MODEL 1
REMARK VINA RESULT:      -7.3      0.000      0.000
REMARK  Name = 
REMARK  5 active torsions:
REMARK  status: ('A' for Active; 'I' for Inactive)
REMARK    1  A    between atoms: C_1  and  O_2
REMARK    2  A    between atoms: O_2  and  C_3
REMARK    3  A    between atoms: C_6  and  S_7
REMARK    4  A    between atoms: S_7  and  N_10
REMARK    5  A    between atoms: C_14  and  C_16
REMARK                            x       y       z     vdW  Elec       q    Type
REMARK                         _______ _______ _______ _____ _____    ______ ____
ROOT
ATOM      1  N   UNL     1       3.878   3.917  18.858  0.00  0.00    +0.000 NA
ATOM      2  C   UNL     1       4.299   2.937  17.847  0.00  0.00    +0.000 C 
ATOM      3  C   UNL     1       4.840   3.633  16.608  0.00  0.00    +0.000 C 
ATOM      4  N   UNL     1       5.765   4.745  16.844  0.00  0.00    +0.000 N 
ATOM      5  C   UNL     1       6.528   5.334  15.809  0.00  0.00    +0.000 C 
ATOM      6  O   UNL     1       7.229   6.320  16.063  0.00  0.00    +0.000 OA
ATOM      7  C   UNL     1       5.537   5.575  18.036  0.00  0.00    +0.000 C 
ATOM      8  C   UNL     1       4.977   4.820  19.252  0.00  0.00    +0.000 C 
ENDROOT
BRANCH   5   9
ATOM      9  C   UNL     1       6.477   4.741  14.468  0.00  0.00    +0.000 A 
ATOM     10  C   UNL     1       5.511   3.953  13.862  0.00  0.00    +0.000 A 
ATOM     11  C   UNL     1       5.901   3.474  12.580  0.00  0.00    +0.000 A 
ATOM     12  C   UNL     1       7.086   4.035  12.171  0.00  0.00    +0.000 A 
ATOM     13  S   UNL     1       7.746   5.079  13.356  0.00  0.00    +0.000 S 
ENDBRANCH   5   9
BRANCH   1  14
ATOM     14  S   UNL     1       2.271   4.363  19.023  0.00  0.00    +0.000 S 
ATOM     15  O   UNL     1       1.842   3.937  20.337  0.00  0.00    +0.000 OA
ATOM     16  O   UNL     1       1.558   3.931  17.838  0.00  0.00    +0.000 OA
BRANCH  14  20
ATOM     17  C   UNL     1       1.787   8.923  19.058  0.00  0.00    +0.000 A 
ATOM     18  C   UNL     1       2.118   8.263  17.869  0.00  0.00    +0.000 A 
ATOM     19  C   UNL     1       2.317   6.876  17.846  0.00  0.00    +0.000 A 
ATOM     20  C   UNL     1       2.228   6.148  19.035  0.00  0.00    +0.000 A 
ATOM     21  C   UNL     1       1.904   6.806  20.229  0.00  0.00    +0.000 A 
ATOM     22  C   UNL     1       1.692   8.189  20.239  0.00  0.00    +0.000 A 
BRANCH  17  24
ATOM     23  C   UNL     1       0.283  10.756  19.193  0.00  0.00    +0.000 C 
ATOM     24  O   UNL     1       1.604  10.275  18.952  0.00  0.00    +0.000 OA
ENDBRANCH  17  24
ENDBRANCH  14  20
ENDBRANCH   1  14
TORSDOF 4
ENDMDL
MODEL 2
REMARK VINA RESULT:      -7.2      1.661      2.047
REMARK  Name = 
REMARK  5 active torsions:
REMARK  status: ('A' for Active; 'I' for Inactive)
REMARK    1  A    between atoms: C_1  and  O_2
REMARK    2  A    between atoms: O_2  and  C_3
REMARK    3  A    between atoms: C_6  and  S_7
REMARK    4  A    between atoms: S_7  and  N_10
REMARK    5  A    between atoms: C_14  and  C_16
REMARK                            x       y       z     vdW  Elec       q    Type
REMARK                         _______ _______ _______ _____ _____    ______ ____
ROOT
ATOM      1  N   UNL     1       2.811   2.341  19.612  0.00  0.00    +0.000 NA
ATOM      2  C   UNL     1       3.047   1.964  18.212  0.00  0.00    +0.000 C 
ATOM      3  C   UNL     1       3.951   2.973  17.522  0.00  0.00    +0.000 C 
ATOM      4  N   UNL     1       5.134   3.400  18.275  0.00  0.00    +0.000 N 
ATOM      5  C   UNL     1       6.185   4.142  17.687  0.00  0.00    +0.000 C 
ATOM      6  O   UNL     1       7.114   4.539  18.399  0.00  0.00    +0.000 OA
ATOM      7  C   UNL     1       5.007   3.500  19.737  0.00  0.00    +0.000 C 
ATOM      8  C   UNL     1       4.069   2.465  20.376  0.00  0.00    +0.000 C 
ENDROOT
BRANCH   5   9
ATOM      9  C   UNL     1       6.145   4.401  16.243  0.00  0.00    +0.000 A 
ATOM     10  C   UNL     1       6.549   3.621  15.171  0.00  0.00    +0.000 A 
ATOM     11  C   UNL     1       6.453   4.293  13.921  0.00  0.00    +0.000 A 
ATOM     12  C   UNL     1       5.833   5.512  14.049  0.00  0.00    +0.000 A 
ATOM     13  S   UNL     1       5.429   5.860  15.676  0.00  0.00    +0.000 S 
ENDBRANCH   5   9
BRANCH   1  14
ATOM     14  S   UNL     1       1.418   3.151  20.074  0.00  0.00    +0.000 S 
ATOM     15  O   UNL     1       1.257   2.944  21.497  0.00  0.00    +0.000 OA
ATOM     16  O   UNL     1       0.360   2.793  19.151  0.00  0.00    +0.000 OA
BRANCH  14  20
ATOM     17  C   UNL     1       1.863   7.677  19.488  0.00  0.00    +0.000 A 
ATOM     18  C   UNL     1       2.102   6.806  18.419  0.00  0.00    +0.000 A 
ATOM     19  C   UNL     1       2.019   5.417  18.588  0.00  0.00    +0.000 A 
ATOM     20  C   UNL     1       1.736   4.894  19.853  0.00  0.00    +0.000 A 
ATOM     21  C   UNL     1       1.503   5.763  20.927  0.00  0.00    +0.000 A 
ATOM     22  C   UNL     1       1.574   7.148  20.745  0.00  0.00    +0.000 A 
BRANCH  17  24
ATOM     23  C   UNL     1       1.816   9.370  17.824  0.00  0.00    +0.000 C 
ATOM     24  O   UNL     1       1.961   9.011  19.196  0.00  0.00    +0.000 OA
ENDBRANCH  17  24
ENDBRANCH  14  20
ENDBRANCH   1  14
TORSDOF 4
ENDMDL
MODEL 3
REMARK VINA RESULT:      -7.2      1.646      2.241
REMARK  Name = 
REMARK  5 active torsions:
REMARK  status: ('A' for Active; 'I' for Inactive)
REMARK    1  A    between atoms: C_1  and  O_2
REMARK    2  A    between atoms: O_2  and  C_3
REMARK    3  A    between atoms: C_6  and  S_7
REMARK    4  A    between atoms: S_7  and  N_10
REMARK    5  A    between atoms: C_14  and  C_16
REMARK                            x       y       z     vdW  Elec       q    Type
REMARK                         _______ _______ _______ _____ _____    ______ ____
ROOT
ATOM      1  N   UNL     1       2.793   2.247  19.579  0.00  0.00    +0.000 NA
ATOM      2  C   UNL     1       3.167   1.783  18.236  0.00  0.00    +0.000 C 
ATOM      3  C   UNL     1       4.068   2.794  17.543  0.00  0.00    +0.000 C 
ATOM      4  N   UNL     1       5.155   3.351  18.353  0.00  0.00    +0.000 N 
ATOM      5  C   UNL     1       6.208   4.113  17.795  0.00  0.00    +0.000 C 
ATOM      6  O   UNL     1       7.049   4.620  18.545  0.00  0.00    +0.000 OA
ATOM      7  C   UNL     1       4.899   3.550  19.787  0.00  0.00    +0.000 C 
ATOM      8  C   UNL     1       3.972   2.506  20.429  0.00  0.00    +0.000 C 
ENDROOT
BRANCH   5   9
ATOM      9  C   UNL     1       6.277   4.261  16.337  0.00  0.00    +0.000 A 
ATOM     10  C   UNL     1       5.823   3.437  15.319  0.00  0.00    +0.000 A 
ATOM     11  C   UNL     1       6.199   3.886  14.023  0.00  0.00    +0.000 A 
ATOM     12  C   UNL     1       6.794   5.124  14.071  0.00  0.00    +0.000 A 
ATOM     13  S   UNL     1       6.949   5.701  15.675  0.00  0.00    +0.000 S 
ENDBRANCH   5   9
BRANCH   1  14
ATOM     14  S   UNL     1       1.321   2.998  19.862  0.00  0.00    +0.000 S 
ATOM     15  O   UNL     1       1.076   2.932  21.286  0.00  0.00    +0.000 OA
ATOM     16  O   UNL     1       0.354   2.468  18.921  0.00  0.00    +0.000 OA
BRANCH  14  20
ATOM     17  C   UNL     1       2.246   7.369  18.831  0.00  0.00    +0.000 A 
ATOM     18  C   UNL     1       1.952   7.009  20.151  0.00  0.00    +0.000 A 
ATOM     19  C   UNL     1       1.619   5.687  20.480  0.00  0.00    +0.000 A 
ATOM     20  C   UNL     1       1.538   4.726  19.469  0.00  0.00    +0.000 A 
ATOM     21  C   UNL     1       1.825   5.086  18.145  0.00  0.00    +0.000 A 
ATOM     22  C   UNL     1       2.170   6.404  17.829  0.00  0.00    +0.000 A 
BRANCH  17  24
ATOM     23  C   UNL     1       1.597   9.483  17.966  0.00  0.00    +0.000 C 
ATOM     24  O   UNL     1       2.569   8.685  18.637  0.00  0.00    +0.000 OA
ENDBRANCH  17  24
ENDBRANCH  14  20
ENDBRANCH   1  14
TORSDOF 4
ENDMDL
MODEL 4
REMARK VINA RESULT:      -6.8      2.425      7.623
REMARK  Name = 
REMARK  5 active torsions:
REMARK  status: ('A' for Active; 'I' for Inactive)
REMARK    1  A    between atoms: C_1  and  O_2
REMARK    2  A    between atoms: O_2  and  C_3
REMARK    3  A    between atoms: C_6  and  S_7
REMARK    4  A    between atoms: S_7  and  N_10
REMARK    5  A    between atoms: C_14  and  C_16
REMARK                            x       y       z     vdW  Elec       q    Type
REMARK                         _______ _______ _______ _____ _____    ______ ____
ROOT
ATOM      1  N   UNL     1       3.028   5.018  18.745  0.00  0.00    +0.000 NA
ATOM      2  C   UNL     1       1.991   5.100  19.784  0.00  0.00    +0.000 C 
ATOM      3  C   UNL     1       1.841   6.526  20.290  0.00  0.00    +0.000 C 
ATOM      4  N   UNL     1       1.803   7.574  19.266  0.00  0.00    +0.000 N 
ATOM      5  C   UNL     1       1.434   8.909  19.555  0.00  0.00    +0.000 C 
ATOM      6  O   UNL     1       1.501   9.760  18.660  0.00  0.00    +0.000 OA
ATOM      7  C   UNL     1       2.617   7.372  18.058  0.00  0.00    +0.000 C 
ATOM      8  C   UNL     1       2.745   5.910  17.603  0.00  0.00    +0.000 C 
ENDROOT
BRANCH   5   9
ATOM      9  C   UNL     1       0.967   9.236  20.907  0.00  0.00    +0.000 A 
ATOM     10  C   UNL     1       1.530   8.979  22.147  0.00  0.00    +0.000 A 
ATOM     11  C   UNL     1       0.691   9.357  23.232  0.00  0.00    +0.000 A 
ATOM     12  C   UNL     1      -0.422  10.035  22.798  0.00  0.00    +0.000 A 
ATOM     13  S   UNL     1      -0.476  10.155  21.091  0.00  0.00    +0.000 S 
ENDBRANCH   5   9
BRANCH   1  14
ATOM     14  S   UNL     1       4.587   4.520  19.107  0.00  0.00    +0.000 S 
ATOM     15  O   UNL     1       4.512   3.125  19.481  0.00  0.00    +0.000 OA
ATOM     16  O   UNL     1       5.176   5.494  20.003  0.00  0.00    +0.000 OA
BRANCH  14  20
ATOM     17  C   UNL     1       6.759   4.968  15.094  0.00  0.00    +0.000 A 
ATOM     18  C   UNL     1       5.827   3.939  15.274  0.00  0.00    +0.000 A 
ATOM     19  C   UNL     1       5.187   3.755  16.508  0.00  0.00    +0.000 A 
ATOM     20  C   UNL     1       5.517   4.582  17.584  0.00  0.00    +0.000 A 
ATOM     21  C   UNL     1       6.455   5.608  17.409  0.00  0.00    +0.000 A 
ATOM     22  C   UNL     1       7.078   5.793  16.170  0.00  0.00    +0.000 A 
BRANCH  17  24
ATOM     23  C   UNL     1       6.802   4.147  12.866  0.00  0.00    +0.000 C 
ATOM     24  O   UNL     1       7.307   5.055  13.842  0.00  0.00    +0.000 OA
ENDBRANCH  17  24
ENDBRANCH  14  20
ENDBRANCH   1  14
TORSDOF 4
ENDMDL
MODEL 5
REMARK VINA RESULT:      -6.8      3.197      6.641
REMARK  Name = 
REMARK  5 active torsions:
REMARK  status: ('A' for Active; 'I' for Inactive)
REMARK    1  A    between atoms: C_1  and  O_2
REMARK    2  A    between atoms: O_2  and  C_3
REMARK    3  A    between atoms: C_6  and  S_7
REMARK    4  A    between atoms: S_7  and  N_10
REMARK    5  A    between atoms: C_14  and  C_16
REMARK                            x       y       z     vdW  Elec       q    Type
REMARK                         _______ _______ _______ _____ _____    ______ ____
ROOT
ATOM      1  N   UNL     1       5.322   5.354  16.271  0.00  0.00    +0.000 NA
ATOM      2  C   UNL     1       4.468   4.199  16.583  0.00  0.00    +0.000 C 
ATOM      3  C   UNL     1       3.879   4.321  17.979  0.00  0.00    +0.000 C 
ATOM      4  N   UNL     1       3.333   5.633  18.338  0.00  0.00    +0.000 N 
ATOM      5  C   UNL     1       2.548   5.841  19.495  0.00  0.00    +0.000 C 
ATOM      6  O   UNL     1       2.187   6.989  19.780  0.00  0.00    +0.000 OA
ATOM      7  C   UNL     1       4.004   6.820  17.785  0.00  0.00    +0.000 C 
ATOM      8  C   UNL     1       4.592   6.633  16.378  0.00  0.00    +0.000 C 
ENDROOT
BRANCH   5   9
ATOM      9  C   UNL     1       2.171   4.682  20.312  0.00  0.00    +0.000 A 
ATOM     10  C   UNL     1       2.626   4.260  21.551  0.00  0.00    +0.000 A 
ATOM     11  C   UNL     1       2.089   3.004  21.947  0.00  0.00    +0.000 A 
ATOM     12  C   UNL     1       1.119   2.571  21.076  0.00  0.00    +0.000 A 
ATOM     13  S   UNL     1       0.910   3.648  19.762  0.00  0.00    +0.000 S 
ENDBRANCH   5   9
BRANCH   1  14
ATOM     14  S   UNL     1       6.988   5.276  16.436  0.00  0.00    +0.000 S 
ATOM     15  O   UNL     1       7.557   5.488  15.123  0.00  0.00    +0.000 OA
ATOM     16  O   UNL     1       7.312   4.085  17.197  0.00  0.00    +0.000 OA
BRANCH  14  20
ATOM     17  C   UNL     1       8.561   8.886  18.785  0.00  0.00    +0.000 A 
ATOM     18  C   UNL     1       8.599   7.608  19.357  0.00  0.00    +0.000 A 
ATOM     19  C   UNL     1       8.080   6.498  18.675  0.00  0.00    +0.000 A 
ATOM     20  C   UNL     1       7.477   6.678  17.428  0.00  0.00    +0.000 A 
ATOM     21  C   UNL     1       7.430   7.956  16.856  0.00  0.00    +0.000 A 
ATOM     22  C   UNL     1       7.964   9.055  17.538  0.00  0.00    +0.000 A 
BRANCH  17  24
ATOM     23  C   UNL     1       9.731  10.951  18.825  0.00  0.00    +0.000 C 
ATOM     24  O   UNL     1       9.110   9.886  19.541  0.00  0.00    +0.000 OA
ENDBRANCH  17  24
ENDBRANCH  14  20
ENDBRANCH   1  14
TORSDOF 4
ENDMDL
MODEL 6
REMARK VINA RESULT:      -6.6      0.522      1.103
REMARK  Name = 
REMARK  5 active torsions:
REMARK  status: ('A' for Active; 'I' for Inactive)
REMARK    1  A    between atoms: C_1  and  O_2
REMARK    2  A    between atoms: O_2  and  C_3
REMARK    3  A    between atoms: C_6  and  S_7
REMARK    4  A    between atoms: S_7  and  N_10
REMARK    5  A    between atoms: C_14  and  C_16
REMARK                            x       y       z     vdW  Elec       q    Type
REMARK                         _______ _______ _______ _____ _____    ______ ____
ROOT
ATOM      1  N   UNL     1       4.067   3.893  19.302  0.00  0.00    +0.000 NA
ATOM      2  C   UNL     1       4.498   2.924  18.285  0.00  0.00    +0.000 C 
ATOM      3  C   UNL     1       4.851   3.623  16.982  0.00  0.00    +0.000 C 
ATOM      4  N   UNL     1       5.673   4.831  17.100  0.00  0.00    +0.000 N 
ATOM      5  C   UNL     1       6.277   5.454  15.983  0.00  0.00    +0.000 C 
ATOM      6  O   UNL     1       6.890   6.515  16.143  0.00  0.00    +0.000 OA
ATOM      7  C   UNL     1       5.465   5.679  18.283  0.00  0.00    +0.000 C 
ATOM      8  C   UNL     1       5.097   4.919  19.566  0.00  0.00    +0.000 C 
ENDROOT
BRANCH   5   9
ATOM      9  C   UNL     1       6.169   4.808  14.670  0.00  0.00    +0.000 A 
ATOM     10  C   UNL     1       5.096   4.188  14.049  0.00  0.00    +0.000 A 
ATOM     11  C   UNL     1       5.441   3.572  12.815  0.00  0.00    +0.000 A 
ATOM     12  C   UNL     1       6.731   3.869  12.445  0.00  0.00    +0.000 A 
ATOM     13  S   UNL     1       7.528   4.832  13.614  0.00  0.00    +0.000 S 
ENDBRANCH   5   9
BRANCH   1  14
ATOM     14  S   UNL     1       2.443   4.180  19.599  0.00  0.00    +0.000 S 
ATOM     15  O   UNL     1       2.240   4.047  21.025  0.00  0.00    +0.000 OA
ATOM     16  O   UNL     1       1.665   3.389  18.666  0.00  0.00    +0.000 OA
BRANCH  14  20
ATOM     17  C   UNL     1       2.036   8.631  18.575  0.00  0.00    +0.000 A 
ATOM     18  C   UNL     1       1.849   8.197  19.892  0.00  0.00    +0.000 A 
ATOM     19  C   UNL     1       1.922   6.835  20.219  0.00  0.00    +0.000 A 
ATOM     20  C   UNL     1       2.140   5.896  19.207  0.00  0.00    +0.000 A 
ATOM     21  C   UNL     1       2.319   6.327  17.886  0.00  0.00    +0.000 A 
ATOM     22  C   UNL     1       2.260   7.689  17.573  0.00  0.00    +0.000 A 
BRANCH  17  24
ATOM     23  C   UNL     1       0.829  10.639  18.964  0.00  0.00    +0.000 C 
ATOM     24  O   UNL     1       1.955   9.984  18.383  0.00  0.00    +0.000 OA
ENDBRANCH  17  24
ENDBRANCH  14  20
ENDBRANCH   1  14
TORSDOF 4
ENDMDL
MODEL 7
REMARK VINA RESULT:      -6.6      2.445      7.689
REMARK  Name = 
REMARK  5 active torsions:
REMARK  status: ('A' for Active; 'I' for Inactive)
REMARK    1  A    between atoms: C_1  and  O_2
REMARK    2  A    between atoms: O_2  and  C_3
REMARK    3  A    between atoms: C_6  and  S_7
REMARK    4  A    between atoms: S_7  and  N_10
REMARK    5  A    between atoms: C_14  and  C_16
REMARK                            x       y       z     vdW  Elec       q    Type
REMARK                         _______ _______ _______ _____ _____    ______ ____
ROOT
ATOM      1  N   UNL     1       2.841   5.062  18.748  0.00  0.00    +0.000 NA
ATOM      2  C   UNL     1       1.849   5.145  19.828  0.00  0.00    +0.000 C 
ATOM      3  C   UNL     1       1.727   6.570  20.346  0.00  0.00    +0.000 C 
ATOM      4  N   UNL     1       1.651   7.622  19.328  0.00  0.00    +0.000 N 
ATOM      5  C   UNL     1       1.302   8.957  19.637  0.00  0.00    +0.000 C 
ATOM      6  O   UNL     1       1.335   9.811  18.743  0.00  0.00    +0.000 OA
ATOM      7  C   UNL     1       2.414   7.420  18.087  0.00  0.00    +0.000 C 
ATOM      8  C   UNL     1       2.516   5.960  17.621  0.00  0.00    +0.000 C 
ENDROOT
BRANCH   5   9
ATOM      9  C   UNL     1       0.892   9.281  21.008  0.00  0.00    +0.000 A 
ATOM     10  C   UNL     1       1.460   8.946  22.227  0.00  0.00    +0.000 A 
ATOM     11  C   UNL     1       0.679   9.357  23.342  0.00  0.00    +0.000 A 
ATOM     12  C   UNL     1      -0.387  10.133  22.953  0.00  0.00    +0.000 A 
ATOM     13  S   UNL     1      -0.469  10.305  21.252  0.00  0.00    +0.000 S 
ENDBRANCH   5   9
BRANCH   1  14
ATOM     14  S   UNL     1       4.412   4.555  19.043  0.00  0.00    +0.000 S 
ATOM     15  O   UNL     1       4.373   3.118  19.203  0.00  0.00    +0.000 OA
ATOM     16  O   UNL     1       4.971   5.398  20.081  0.00  0.00    +0.000 OA
BRANCH  14  20
ATOM     17  C   UNL     1       7.034   5.078  15.318  0.00  0.00    +0.000 A 
ATOM     18  C   UNL     1       7.174   5.954  16.401  0.00  0.00    +0.000 A 
ATOM     19  C   UNL     1       6.350   5.842  17.530  0.00  0.00    +0.000 A 
ATOM     20  C   UNL     1       5.346   4.870  17.555  0.00  0.00    +0.000 A 
ATOM     21  C   UNL     1       5.199   3.996  16.469  0.00  0.00    +0.000 A 
ATOM     22  C   UNL     1       6.036   4.107  15.354  0.00  0.00    +0.000 A 
BRANCH  17  24
ATOM     23  C   UNL     1       7.465   4.851  12.994  0.00  0.00    +0.000 C 
ATOM     24  O   UNL     1       7.905   5.279  14.281  0.00  0.00    +0.000 OA
ENDBRANCH  17  24
ENDBRANCH  14  20
ENDBRANCH   1  14
TORSDOF 4
ENDMDL
MODEL 8
REMARK VINA RESULT:      -6.5      2.208      7.075
REMARK  Name = 
REMARK  5 active torsions:
REMARK  status: ('A' for Active; 'I' for Inactive)
REMARK    1  A    between atoms: C_1  and  O_2
REMARK    2  A    between atoms: O_2  and  C_3
REMARK    3  A    between atoms: C_6  and  S_7
REMARK    4  A    between atoms: S_7  and  N_10
REMARK    5  A    between atoms: C_14  and  C_16
REMARK                            x       y       z     vdW  Elec       q    Type
REMARK                         _______ _______ _______ _____ _____    ______ ____
ROOT
ATOM      1  N   UNL     1       3.631   4.648  19.442  0.00  0.00    +0.000 NA
ATOM      2  C   UNL     1       4.158   6.014  19.319  0.00  0.00    +0.000 C 
ATOM      3  C   UNL     1       3.030   7.033  19.309  0.00  0.00    +0.000 C 
ATOM      4  N   UNL     1       1.978   6.843  20.312  0.00  0.00    +0.000 N 
ATOM      5  C   UNL     1       0.997   7.825  20.584  0.00  0.00    +0.000 C 
ATOM      6  O   UNL     1       0.092   7.567  21.385  0.00  0.00    +0.000 OA
ATOM      7  C   UNL     1       1.633   5.461  20.678  0.00  0.00    +0.000 C 
ATOM      8  C   UNL     1       2.810   4.474  20.657  0.00  0.00    +0.000 C 
ENDROOT
BRANCH   5   9
ATOM      9  C   UNL     1       1.098   9.128  19.917  0.00  0.00    +0.000 A 
ATOM     10  C   UNL     1       1.330   9.451  18.589  0.00  0.00    +0.000 A 
ATOM     11  C   UNL     1       1.478  10.848  18.370  0.00  0.00    +0.000 A 
ATOM     12  C   UNL     1       1.201  11.570  19.506  0.00  0.00    +0.000 A 
ATOM     13  S   UNL     1       0.827  10.558  20.835  0.00  0.00    +0.000 S 
ENDBRANCH   5   9
BRANCH   1  14
ATOM     14  S   UNL     1       3.432   3.667  18.098  0.00  0.00    +0.000 S 
ATOM     15  O   UNL     1       2.239   4.115  17.415  0.00  0.00    +0.000 OA
ATOM     16  O   UNL     1       3.566   2.287  18.521  0.00  0.00    +0.000 OA
BRANCH  14  20
ATOM     17  C   UNL     1       6.929   4.902  15.401  0.00  0.00    +0.000 A 
ATOM     18  C   UNL     1       5.650   4.737  14.857  0.00  0.00    +0.000 A 
ATOM     19  C   UNL     1       4.577   4.314  15.654  0.00  0.00    +0.000 A 
ATOM     20  C   UNL     1       4.798   4.010  17.000  0.00  0.00    +0.000 A 
ATOM     21  C   UNL     1       6.079   4.167  17.546  0.00  0.00    +0.000 A 
ATOM     22  C   UNL     1       7.140   4.604  16.746  0.00  0.00    +0.000 A 
BRANCH  17  24
ATOM     23  C   UNL     1       7.614   5.149  13.141  0.00  0.00    +0.000 C 
ATOM     24  O   UNL     1       7.891   5.332  14.527  0.00  0.00    +0.000 OA
ENDBRANCH  17  24
ENDBRANCH  14  20
ENDBRANCH   1  14
TORSDOF 4
ENDMDL
MODEL 9
REMARK VINA RESULT:      -6.5      9.380     11.280
REMARK  Name = 
REMARK  5 active torsions:
REMARK  status: ('A' for Active; 'I' for Inactive)
REMARK    1  A    between atoms: C_1  and  O_2
REMARK    2  A    between atoms: O_2  and  C_3
REMARK    3  A    between atoms: C_6  and  S_7
REMARK    4  A    between atoms: S_7  and  N_10
REMARK    5  A    between atoms: C_14  and  C_16
REMARK                            x       y       z     vdW  Elec       q    Type
REMARK                         _______ _______ _______ _____ _____    ______ ____
ROOT
ATOM      1  N   UNL     1      10.442  13.827  18.092  0.00  0.00    +0.000 NA
ATOM      2  C   UNL     1       9.181  13.191  17.686  0.00  0.00    +0.000 C 
ATOM      3  C   UNL     1       7.987  13.919  18.284  0.00  0.00    +0.000 C 
ATOM      4  N   UNL     1       8.018  15.382  18.206  0.00  0.00    +0.000 N 
ATOM      5  C   UNL     1       6.891  16.185  18.499  0.00  0.00    +0.000 C 
ATOM      6  O   UNL     1       7.009  17.415  18.490  0.00  0.00    +0.000 OA
ATOM      7  C   UNL     1       9.329  16.039  18.312  0.00  0.00    +0.000 C 
ATOM      8  C   UNL     1      10.499  15.251  17.703  0.00  0.00    +0.000 C 
ENDROOT
BRANCH   5   9
ATOM      9  C   UNL     1       5.611  15.527  18.787  0.00  0.00    +0.000 A 
ATOM     10  C   UNL     1       4.633  15.037  17.937  0.00  0.00    +0.000 A 
ATOM     11  C   UNL     1       3.473  14.579  18.621  0.00  0.00    +0.000 A 
ATOM     12  C   UNL     1       3.655  14.584  19.983  0.00  0.00    +0.000 A 
ATOM     13  S   UNL     1       5.192  15.197  20.423  0.00  0.00    +0.000 S 
ENDBRANCH   5   9
BRANCH   1  14
ATOM     14  S   UNL     1      11.351  13.226  19.365  0.00  0.00    +0.000 S 
ATOM     15  O   UNL     1      12.333  14.233  19.701  0.00  0.00    +0.000 OA
ATOM     16  O   UNL     1      11.763  11.877  19.030  0.00  0.00    +0.000 OA
BRANCH  14  20
ATOM     17  C   UNL     1       8.254  12.915  22.733  0.00  0.00    +0.000 A 
ATOM     18  C   UNL     1       8.889  14.136  22.476  0.00  0.00    +0.000 A 
ATOM     19  C   UNL     1       9.873  14.242  21.483  0.00  0.00    +0.000 A 
ATOM     20  C   UNL     1      10.257  13.103  20.771  0.00  0.00    +0.000 A 
ATOM     21  C   UNL     1       9.629  11.877  21.031  0.00  0.00    +0.000 A 
ATOM     22  C   UNL     1       8.637  11.785  22.013  0.00  0.00    +0.000 A 
BRANCH  17  24
ATOM     23  C   UNL     1       6.799  11.677  24.142  0.00  0.00    +0.000 C 
ATOM     24  O   UNL     1       7.302  12.941  23.715  0.00  0.00    +0.000 OA
ENDBRANCH  17  24
ENDBRANCH  14  20
ENDBRANCH   1  14
TORSDOF 4
ENDMDL
