MODEL 1
REMARK VINA RESULT:      -8.3      0.000      0.000
REMARK  Name = 
REMARK  6 active torsions:
REMARK  status: ('A' for Active; 'I' for Inactive)
REMARK    1  A    between atoms: C_1  and  N_2
REMARK    2  A    between atoms: N_7  and  C_8
REMARK    3  A    between atoms: C_11  and  C_12
REMARK    4  A    between atoms: C_17  and  O_18
REMARK    5  A    between atoms: O_18  and  C_19
REMARK    6  A    between atoms: C_23  and  O_24
REMARK                            x       y       z     vdW  Elec       q    Type
REMARK                         _______ _______ _______ _____ _____    ______ ____
ROOT
ATOM      1  C   UNL     1       1.323   8.306  21.911  0.00  0.00    +0.000 C 
ATOM      2  N   UNL     1       1.553   8.244  20.473  0.00  0.00    +0.000 N 
ATOM      3  C   UNL     1       1.865   7.046  19.854  0.00  0.00    +0.000 A 
ATOM      4  C   UNL     1       2.363   7.046  18.610  0.00  0.00    +0.000 A 
ATOM      5  C   UNL     1       2.405   8.300  17.838  0.00  0.00    +0.000 A 
ATOM      6  O   UNL     1       2.799   8.280  16.679  0.00  0.00    +0.000 OA
ATOM      7  N   UNL     1       1.989   9.440  18.489  0.00  0.00    +0.000 N 
ATOM      8  C   UNL     1       2.061  10.709  17.788  0.00  0.00    +0.000 C 
ATOM      9  C   UNL     1       1.636   9.476  19.828  0.00  0.00    +0.000 A 
ATOM     10  O   UNL     1       1.433  10.541  20.414  0.00  0.00    +0.000 OA
ATOM     11  C   UNL     1       2.970   5.804  17.983  0.00  0.00    +0.000 C 
ATOM     12  C   UNL     1       2.371   4.557  18.599  0.00  0.00    +0.000 C 
ATOM     13  C   UNL     1       2.052   3.397  17.992  0.00  0.00    +0.000 C 
ATOM     14  C   UNL     1       1.377   2.262  18.709  0.00  0.00    +0.000 C 
ATOM     15  C   UNL     1       1.820   2.173  20.156  0.00  0.00    +0.000 C 
ATOM     16  C   UNL     1       1.743   3.501  20.891  0.00  0.00    +0.000 C 
ATOM     17  C   UNL     1       1.940   4.736  20.022  0.00  0.00    +0.000 C 
ATOM     18  N   UNL     1       1.742   5.890  20.590  0.00  0.00    +0.000 NA
ENDROOT
BRANCH  11  19
ATOM     19  C   UNL     1       4.511   5.850  18.101  0.00  0.00    +0.000 A 
ATOM     20  C   UNL     1       5.062   5.459  19.360  0.00  0.00    +0.000 A 
ATOM     21  C   UNL     1       6.423   5.533  19.656  0.00  0.00    +0.000 A 
ATOM     22  C   UNL     1       7.300   5.998  18.699  0.00  0.00    +0.000 A 
ATOM     23  C   UNL     1       6.806   6.338  17.443  0.00  0.00    +0.000 A 
ATOM     24  C   UNL     1       5.432   6.260  17.118  0.00  0.00    +0.000 A 
BRANCH  24  25
ATOM     25  O   UNL     1       5.281   6.533  15.793  0.00  0.00    +0.000 OA
BRANCH  25  26
ATOM     26  C   UNL     1       5.325   5.540  14.805  0.00  0.00    +0.000 C 
ATOM     27  F   UNL     1       6.626   5.384  14.450  0.00  0.00    +0.000 F 
ATOM     28  F   UNL     1       4.950   4.375  15.391  0.00  0.00    +0.000 F 
ENDBRANCH  25  26
ENDBRANCH  24  25
ENDBRANCH  11  19
BRANCH  13  29
ATOM     29  O   UNL     1       2.284   3.108  16.670  0.00  0.00    +0.000 OA
ATOM     30  H   UNL     1       3.227   2.980  16.467  0.00  0.00    +0.000 HD
ENDBRANCH  13  29
TORSDOF 4
ENDMDL
MODEL 2
REMARK VINA RESULT:      -7.9      2.992      6.024
REMARK  Name = 
REMARK  6 active torsions:
REMARK  status: ('A' for Active; 'I' for Inactive)
REMARK    1  A    between atoms: C_1  and  N_2
REMARK    2  A    between atoms: N_7  and  C_8
REMARK    3  A    between atoms: C_11  and  C_12
REMARK    4  A    between atoms: C_17  and  O_18
REMARK    5  A    between atoms: O_18  and  C_19
REMARK    6  A    between atoms: C_23  and  O_24
REMARK                            x       y       z     vdW  Elec       q    Type
REMARK                         _______ _______ _______ _____ _____    ______ ____
ROOT
ATOM      1  C   UNL     1       4.588   2.139  20.776  0.00  0.00    +0.000 C 
ATOM      2  N   UNL     1       3.811   2.603  19.632  0.00  0.00    +0.000 N 
ATOM      3  C   UNL     1       4.188   3.733  18.927  0.00  0.00    +0.000 A 
ATOM      4  C   UNL     1       3.323   4.316  18.086  0.00  0.00    +0.000 A 
ATOM      5  C   UNL     1       2.046   3.651  17.774  0.00  0.00    +0.000 A 
ATOM      6  O   UNL     1       1.291   4.156  16.953  0.00  0.00    +0.000 OA
ATOM      7  N   UNL     1       1.780   2.479  18.444  0.00  0.00    +0.000 N 
ATOM      8  C   UNL     1       0.511   1.813  18.209  0.00  0.00    +0.000 C 
ATOM      9  C   UNL     1       2.590   1.960  19.441  0.00  0.00    +0.000 A 
ATOM     10  O   UNL     1       2.234   1.004  20.131  0.00  0.00    +0.000 OA
ATOM     11  C   UNL     1       3.573   5.690  17.495  0.00  0.00    +0.000 C 
ATOM     12  C   UNL     1       5.060   5.973  17.427  0.00  0.00    +0.000 C 
ATOM     13  C   UNL     1       5.744   6.616  16.461  0.00  0.00    +0.000 C 
ATOM     14  C   UNL     1       7.240   6.750  16.475  0.00  0.00    +0.000 C 
ATOM     15  C   UNL     1       7.777   6.876  17.887  0.00  0.00    +0.000 C 
ATOM     16  C   UNL     1       7.243   5.810  18.830  0.00  0.00    +0.000 C 
ATOM     17  C   UNL     1       5.851   5.289  18.499  0.00  0.00    +0.000 C 
ATOM     18  N   UNL     1       5.422   4.279  19.199  0.00  0.00    +0.000 NA
ENDROOT
BRANCH  11  19
ATOM     19  C   UNL     1       2.797   6.762  18.296  0.00  0.00    +0.000 A 
ATOM     20  C   UNL     1       2.340   7.896  17.560  0.00  0.00    +0.000 A 
ATOM     21  C   UNL     1       1.708   8.990  18.152  0.00  0.00    +0.000 A 
ATOM     22  C   UNL     1       1.498   8.994  19.514  0.00  0.00    +0.000 A 
ATOM     23  C   UNL     1       1.882   7.883  20.257  0.00  0.00    +0.000 A 
ATOM     24  C   UNL     1       2.514   6.759  19.676  0.00  0.00    +0.000 A 
BRANCH  24  25
ATOM     25  O   UNL     1       2.650   5.794  20.626  0.00  0.00    +0.000 OA
BRANCH  25  26
ATOM     26  C   UNL     1       1.553   5.174  21.238  0.00  0.00    +0.000 C 
ATOM     27  F   UNL     1       0.715   4.771  20.249  0.00  0.00    +0.000 F 
ATOM     28  F   UNL     1       2.012   4.042  21.831  0.00  0.00    +0.000 F 
ENDBRANCH  25  26
ENDBRANCH  24  25
ENDBRANCH  11  19
BRANCH  13  29
ATOM     29  O   UNL     1       5.182   7.210  15.357  0.00  0.00    +0.000 OA
ATOM     30  H   UNL     1       5.041   6.590  14.620  0.00  0.00    +0.000 HD
ENDBRANCH  13  29
TORSDOF 4
ENDMDL
MODEL 3
REMARK VINA RESULT:      -7.9      1.672      2.283
REMARK  Name = 
REMARK  6 active torsions:
REMARK  status: ('A' for Active; 'I' for Inactive)
REMARK    1  A    between atoms: C_1  and  N_2
REMARK    2  A    between atoms: N_7  and  C_8
REMARK    3  A    between atoms: C_11  and  C_12
REMARK    4  A    between atoms: C_17  and  O_18
REMARK    5  A    between atoms: O_18  and  C_19
REMARK    6  A    between atoms: C_23  and  O_24
REMARK                            x       y       z     vdW  Elec       q    Type
REMARK                         _______ _______ _______ _____ _____    ______ ____
ROOT
ATOM      1  C   UNL     1       1.165   8.564  22.155  0.00  0.00    +0.000 C 
ATOM      2  N   UNL     1       1.361   8.517  20.711  0.00  0.00    +0.000 N 
ATOM      3  C   UNL     1       1.616   7.319  20.066  0.00  0.00    +0.000 A 
ATOM      4  C   UNL     1       2.086   7.322  18.812  0.00  0.00    +0.000 A 
ATOM      5  C   UNL     1       2.155   8.586  18.059  0.00  0.00    +0.000 A 
ATOM      6  O   UNL     1       2.521   8.571  16.891  0.00  0.00    +0.000 OA
ATOM      7  N   UNL     1       1.795   9.729  18.737  0.00  0.00    +0.000 N 
ATOM      8  C   UNL     1       1.895  11.006  18.053  0.00  0.00    +0.000 C 
ATOM      9  C   UNL     1       1.473   9.756  20.084  0.00  0.00    +0.000 A 
ATOM     10  O   UNL     1       1.322  10.818  20.691  0.00  0.00    +0.000 OA
ATOM     11  C   UNL     1       2.634   6.070  18.152  0.00  0.00    +0.000 C 
ATOM     12  C   UNL     1       2.005   4.835  18.762  0.00  0.00    +0.000 C 
ATOM     13  C   UNL     1       1.631   3.697  18.145  0.00  0.00    +0.000 C 
ATOM     14  C   UNL     1       0.933   2.575  18.860  0.00  0.00    +0.000 C 
ATOM     15  C   UNL     1       1.405   2.447  20.294  0.00  0.00    +0.000 C 
ATOM     16  C   UNL     1       1.391   3.764  21.051  0.00  0.00    +0.000 C 
ATOM     17  C   UNL     1       1.613   5.005  20.197  0.00  0.00    +0.000 C 
ATOM     18  N   UNL     1       1.468   6.157  20.788  0.00  0.00    +0.000 NA
ENDROOT
BRANCH  11  19
ATOM     19  C   UNL     1       4.178   6.059  18.235  0.00  0.00    +0.000 A 
ATOM     20  C   UNL     1       4.861   7.046  17.462  0.00  0.00    +0.000 A 
ATOM     21  C   UNL     1       6.251   7.110  17.357  0.00  0.00    +0.000 A 
ATOM     22  C   UNL     1       7.024   6.187  18.029  0.00  0.00    +0.000 A 
ATOM     23  C   UNL     1       6.394   5.243  18.834  0.00  0.00    +0.000 A 
ATOM     24  C   UNL     1       4.988   5.167  18.964  0.00  0.00    +0.000 A 
BRANCH  24  25
ATOM     25  O   UNL     1       4.686   4.234  19.907  0.00  0.00    +0.000 OA
BRANCH  25  26
ATOM     26  C   UNL     1       4.992   2.875  19.754  0.00  0.00    +0.000 C 
ATOM     27  F   UNL     1       4.447   2.219  20.810  0.00  0.00    +0.000 F 
ATOM     28  F   UNL     1       4.329   2.438  18.653  0.00  0.00    +0.000 F 
ENDBRANCH  25  26
ENDBRANCH  24  25
ENDBRANCH  11  19
BRANCH  13  29
ATOM     29  O   UNL     1       1.823   3.421  16.813  0.00  0.00    +0.000 OA
ATOM     30  H   UNL     1       2.761   3.424  16.554  0.00  0.00    +0.000 HD
ENDBRANCH  13  29
TORSDOF 4
ENDMDL
MODEL 4
REMARK VINA RESULT:      -7.1      6.055      8.696
REMARK  Name = 
REMARK  6 active torsions:
REMARK  status: ('A' for Active; 'I' for Inactive)
REMARK    1  A    between atoms: C_1  and  N_2
REMARK    2  A    between atoms: N_7  and  C_8
REMARK    3  A    between atoms: C_11  and  C_12
REMARK    4  A    between atoms: C_17  and  O_18
REMARK    5  A    between atoms: O_18  and  C_19
REMARK    6  A    between atoms: C_23  and  O_24
REMARK                            x       y       z     vdW  Elec       q    Type
REMARK                         _______ _______ _______ _____ _____    ______ ____
ROOT
ATOM      1  C   UNL     1       2.672  12.950  18.170  0.00  0.00    +0.000 C 
ATOM      2  N   UNL     1       1.681  13.637  18.989  0.00  0.00    +0.000 N 
ATOM      3  C   UNL     1       0.827  12.928  19.817  0.00  0.00    +0.000 A 
ATOM      4  C   UNL     1      -0.260  13.525  20.326  0.00  0.00    +0.000 A 
ATOM      5  C   UNL     1      -0.444  14.977  20.156  0.00  0.00    +0.000 A 
ATOM      6  O   UNL     1      -1.404  15.526  20.682  0.00  0.00    +0.000 OA
ATOM      7  N   UNL     1       0.499  15.634  19.399  0.00  0.00    +0.000 N 
ATOM      8  C   UNL     1       0.333  17.057  19.160  0.00  0.00    +0.000 C 
ATOM      9  C   UNL     1       1.529  14.996  18.727  0.00  0.00    +0.000 A 
ATOM     10  O   UNL     1       2.248  15.597  17.926  0.00  0.00    +0.000 OA
ATOM     11  C   UNL     1      -1.365  12.742  21.010  0.00  0.00    +0.000 C 
ATOM     12  C   UNL     1      -0.817  11.458  21.595  0.00  0.00    +0.000 C 
ATOM     13  C   UNL     1      -1.147  10.863  22.758  0.00  0.00    +0.000 C 
ATOM     14  C   UNL     1      -0.457   9.628  23.265  0.00  0.00    +0.000 C 
ATOM     15  C   UNL     1      -0.038   8.716  22.130  0.00  0.00    +0.000 C 
ATOM     16  C   UNL     1       0.720   9.438  21.028  0.00  0.00    +0.000 C 
ATOM     17  C   UNL     1       0.353  10.904  20.842  0.00  0.00    +0.000 C 
ATOM     18  N   UNL     1       1.078  11.588  20.004  0.00  0.00    +0.000 NA
ENDROOT
BRANCH  11  19
ATOM     19  C   UNL     1      -2.532  12.500  20.024  0.00  0.00    +0.000 A 
ATOM     20  C   UNL     1      -3.806  13.017  20.411  0.00  0.00    +0.000 A 
ATOM     21  C   UNL     1      -4.974  12.803  19.679  0.00  0.00    +0.000 A 
ATOM     22  C   UNL     1      -4.918  12.063  18.517  0.00  0.00    +0.000 A 
ATOM     23  C   UNL     1      -3.686  11.588  18.081  0.00  0.00    +0.000 A 
ATOM     24  C   UNL     1      -2.488  11.803  18.801  0.00  0.00    +0.000 A 
BRANCH  24  25
ATOM     25  O   UNL     1      -1.444  11.332  18.065  0.00  0.00    +0.000 OA
BRANCH  25  26
ATOM     26  C   UNL     1      -1.357  10.000  17.641  0.00  0.00    +0.000 C 
ATOM     27  F   UNL     1      -1.751   9.965  16.342  0.00  0.00    +0.000 F 
ATOM     28  F   UNL     1      -0.042   9.662  17.647  0.00  0.00    +0.000 F 
ENDBRANCH  25  26
ENDBRANCH  24  25
ENDBRANCH  11  19
BRANCH  13  29
ATOM     29  O   UNL     1      -2.126  11.299  23.618  0.00  0.00    +0.000 OA
ATOM     30  H   UNL     1      -2.080  12.255  23.795  0.00  0.00    +0.000 HD
ENDBRANCH  13  29
TORSDOF 4
ENDMDL
MODEL 5
REMARK VINA RESULT:      -6.8      5.987      8.801
REMARK  Name = 
REMARK  6 active torsions:
REMARK  status: ('A' for Active; 'I' for Inactive)
REMARK    1  A    between atoms: C_1  and  N_2
REMARK    2  A    between atoms: N_7  and  C_8
REMARK    3  A    between atoms: C_11  and  C_12
REMARK    4  A    between atoms: C_17  and  O_18
REMARK    5  A    between atoms: O_18  and  C_19
REMARK    6  A    between atoms: C_23  and  O_24
REMARK                            x       y       z     vdW  Elec       q    Type
REMARK                         _______ _______ _______ _____ _____    ______ ____
ROOT
ATOM      1  C   UNL     1      -5.075  14.454  23.196  0.00  0.00    +0.000 C 
ATOM      2  N   UNL     1      -3.763  14.538  22.565  0.00  0.00    +0.000 N 
ATOM      3  C   UNL     1      -3.436  13.726  21.492  0.00  0.00    +0.000 A 
ATOM      4  C   UNL     1      -2.156  13.596  21.118  0.00  0.00    +0.000 A 
ATOM      5  C   UNL     1      -1.125  14.455  21.725  0.00  0.00    +0.000 A 
ATOM      6  O   UNL     1       0.031  14.378  21.330  0.00  0.00    +0.000 OA
ATOM      7  N   UNL     1      -1.541  15.309  22.722  0.00  0.00    +0.000 N 
ATOM      8  C   UNL     1      -0.553  16.139  23.387  0.00  0.00    +0.000 C 
ATOM      9  C   UNL     1      -2.829  15.326  23.233  0.00  0.00    +0.000 A 
ATOM     10  O   UNL     1      -3.117  15.983  24.236  0.00  0.00    +0.000 OA
ATOM     11  C   UNL     1      -1.706  12.528  20.139  0.00  0.00    +0.000 C 
ATOM     12  C   UNL     1      -2.846  12.142  19.219  0.00  0.00    +0.000 C 
ATOM     13  C   UNL     1      -2.794  11.845  17.906  0.00  0.00    +0.000 C 
ATOM     14  C   UNL     1      -4.022  11.563  17.087  0.00  0.00    +0.000 C 
ATOM     15  C   UNL     1      -5.088  10.860  17.902  0.00  0.00    +0.000 C 
ATOM     16  C   UNL     1      -5.375  11.540  19.231  0.00  0.00    +0.000 C 
ATOM     17  C   UNL     1      -4.199  12.286  19.845  0.00  0.00    +0.000 C 
ATOM     18  N   UNL     1      -4.445  12.995  20.909  0.00  0.00    +0.000 NA
ENDROOT
BRANCH  11  19
ATOM     19  C   UNL     1      -1.119  11.319  20.905  0.00  0.00    +0.000 A 
ATOM     20  C   UNL     1      -1.340  11.295  22.315  0.00  0.00    +0.000 A 
ATOM     21  C   UNL     1      -0.799  10.325  23.159  0.00  0.00    +0.000 A 
ATOM     22  C   UNL     1      -0.012   9.326  22.625  0.00  0.00    +0.000 A 
ATOM     23  C   UNL     1       0.181   9.287  21.248  0.00  0.00    +0.000 A 
ATOM     24  C   UNL     1      -0.367  10.253  20.373  0.00  0.00    +0.000 A 
BRANCH  24  25
ATOM     25  O   UNL     1      -0.111   9.878  19.090  0.00  0.00    +0.000 OA
BRANCH  25  26
ATOM     26  C   UNL     1       1.190   9.734  18.589  0.00  0.00    +0.000 C 
ATOM     27  F   UNL     1       1.108   8.969  17.471  0.00  0.00    +0.000 F 
ATOM     28  F   UNL     1       1.599  10.962  18.179  0.00  0.00    +0.000 F 
ENDBRANCH  25  26
ENDBRANCH  24  25
ENDBRANCH  11  19
BRANCH  13  29
ATOM     29  O   UNL     1      -1.646  11.772  17.157  0.00  0.00    +0.000 OA
ATOM     30  H   UNL     1      -1.222  10.897  17.192  0.00  0.00    +0.000 HD
ENDBRANCH  13  29
TORSDOF 4
ENDMDL
MODEL 6
REMARK VINA RESULT:      -6.8      5.928      8.150
REMARK  Name = 
REMARK  6 active torsions:
REMARK  status: ('A' for Active; 'I' for Inactive)
REMARK    1  A    between atoms: C_1  and  N_2
REMARK    2  A    between atoms: N_7  and  C_8
REMARK    3  A    between atoms: C_11  and  C_12
REMARK    4  A    between atoms: C_17  and  O_18
REMARK    5  A    between atoms: O_18  and  C_19
REMARK    6  A    between atoms: C_23  and  O_24
REMARK                            x       y       z     vdW  Elec       q    Type
REMARK                         _______ _______ _______ _____ _____    ______ ____
ROOT
ATOM      1  C   UNL     1      -0.581  15.810  20.840  0.00  0.00    +0.000 C 
ATOM      2  N   UNL     1       0.228  14.944  19.989  0.00  0.00    +0.000 N 
ATOM      3  C   UNL     1      -0.279  13.752  19.500  0.00  0.00    +0.000 A 
ATOM      4  C   UNL     1       0.550  12.836  18.982  0.00  0.00    +0.000 A 
ATOM      5  C   UNL     1       1.968  13.172  18.765  0.00  0.00    +0.000 A 
ATOM      6  O   UNL     1       2.704  12.353  18.228  0.00  0.00    +0.000 OA
ATOM      7  N   UNL     1       2.381  14.414  19.190  0.00  0.00    +0.000 N 
ATOM      8  C   UNL     1       3.780  14.772  19.044  0.00  0.00    +0.000 C 
ATOM      9  C   UNL     1       1.570  15.300  19.882  0.00  0.00    +0.000 A 
ATOM     10  O   UNL     1       2.023  16.327  20.392  0.00  0.00    +0.000 OA
ATOM     11  C   UNL     1       0.100  11.419  18.681  0.00  0.00    +0.000 C 
ATOM     12  C   UNL     1      -1.390  11.385  18.411  0.00  0.00    +0.000 C 
ATOM     13  C   UNL     1      -2.057  10.642  17.507  0.00  0.00    +0.000 C 
ATOM     14  C   UNL     1      -3.537  10.771  17.281  0.00  0.00    +0.000 C 
ATOM     15  C   UNL     1      -4.272  11.103  18.564  0.00  0.00    +0.000 C 
ATOM     16  C   UNL     1      -3.659  12.269  19.323  0.00  0.00    +0.000 C 
ATOM     17  C   UNL     1      -2.157  12.444  19.140  0.00  0.00    +0.000 C 
ATOM     18  N   UNL     1      -1.624  13.511  19.661  0.00  0.00    +0.000 NA
ENDROOT
BRANCH  11  19
ATOM     19  C   UNL     1       0.522  10.473  19.830  0.00  0.00    +0.000 A 
ATOM     20  C   UNL     1       1.112   9.231  19.443  0.00  0.00    +0.000 A 
ATOM     21  C   UNL     1       1.460   8.232  20.353  0.00  0.00    +0.000 A 
ATOM     22  C   UNL     1       1.238   8.435  21.699  0.00  0.00    +0.000 A 
ATOM     23  C   UNL     1       0.713   9.654  22.117  0.00  0.00    +0.000 A 
ATOM     24  C   UNL     1       0.364  10.684  21.213  0.00  0.00    +0.000 A 
BRANCH  24  25
ATOM     25  O   UNL     1       0.002  11.786  21.924  0.00  0.00    +0.000 OA
BRANCH  25  26
ATOM     26  C   UNL     1      -1.001  11.759  22.904  0.00  0.00    +0.000 C 
ATOM     27  F   UNL     1      -1.047  12.995  23.465  0.00  0.00    +0.000 F 
ATOM     28  F   UNL     1      -2.184  11.591  22.261  0.00  0.00    +0.000 F 
ENDBRANCH  25  26
ENDBRANCH  24  25
ENDBRANCH  11  19
BRANCH  13  29
ATOM     29  O   UNL     1      -1.490   9.699  16.686  0.00  0.00    +0.000 OA
ATOM     30  H   UNL     1      -2.147   9.163  16.208  0.00  0.00    +0.000 HD
ENDBRANCH  13  29
TORSDOF 4
ENDMDL
MODEL 7
REMARK VINA RESULT:      -6.7      6.322      9.357
REMARK  Name = 
REMARK  6 active torsions:
REMARK  status: ('A' for Active; 'I' for Inactive)
REMARK    1  A    between atoms: C_1  and  N_2
REMARK    2  A    between atoms: N_7  and  C_8
REMARK    3  A    between atoms: C_11  and  C_12
REMARK    4  A    between atoms: C_17  and  O_18
REMARK    5  A    between atoms: O_18  and  C_19
REMARK    6  A    between atoms: C_23  and  O_24
REMARK                            x       y       z     vdW  Elec       q    Type
REMARK                         _______ _______ _______ _____ _____    ______ ____
ROOT
ATOM      1  C   UNL     1       1.697  15.038  19.052  0.00  0.00    +0.000 C 
ATOM      2  N   UNL     1       1.182  14.935  20.413  0.00  0.00    +0.000 N 
ATOM      3  C   UNL     1       0.708  13.731  20.905  0.00  0.00    +0.000 A 
ATOM      4  C   UNL     1      -0.028  13.709  22.024  0.00  0.00    +0.000 A 
ATOM      5  C   UNL     1      -0.176  14.936  22.827  0.00  0.00    +0.000 A 
ATOM      6  O   UNL     1      -0.793  14.892  23.883  0.00  0.00    +0.000 OA
ATOM      7  N   UNL     1       0.404  16.078  22.322  0.00  0.00    +0.000 N 
ATOM      8  C   UNL     1       0.242  17.323  23.051  0.00  0.00    +0.000 C 
ATOM      9  C   UNL     1       1.019  16.146  21.082  0.00  0.00    +0.000 A 
ATOM     10  O   UNL     1       1.374  17.221  20.595  0.00  0.00    +0.000 OA
ATOM     11  C   UNL     1      -0.794  12.475  22.463  0.00  0.00    +0.000 C 
ATOM     12  C   UNL     1      -0.132  11.225  21.923  0.00  0.00    +0.000 C 
ATOM     13  C   UNL     1       0.016  10.031  22.529  0.00  0.00    +0.000 C 
ATOM     14  C   UNL     1       0.776   8.892  21.910  0.00  0.00    +0.000 C 
ATOM     15  C   UNL     1       0.627   8.875  20.402  0.00  0.00    +0.000 C 
ATOM     16  C   UNL     1       0.900  10.224  19.756  0.00  0.00    +0.000 C 
ATOM     17  C   UNL     1       0.580  11.434  20.623  0.00  0.00    +0.000 C 
ATOM     18  N   UNL     1       0.931  12.598  20.156  0.00  0.00    +0.000 NA
ENDROOT
BRANCH  11  19
ATOM     19  C   UNL     1      -2.278  12.595  22.044  0.00  0.00    +0.000 A 
ATOM     20  C   UNL     1      -3.233  12.654  23.105  0.00  0.00    +0.000 A 
ATOM     21  C   UNL     1      -4.612  12.669  22.894  0.00  0.00    +0.000 A 
ATOM     22  C   UNL     1      -5.100  12.633  21.605  0.00  0.00    +0.000 A 
ATOM     23  C   UNL     1      -4.199  12.629  20.545  0.00  0.00    +0.000 A 
ATOM     24  C   UNL     1      -2.798  12.624  20.735  0.00  0.00    +0.000 A 
BRANCH  24  25
ATOM     25  O   UNL     1      -2.191  12.747  19.524  0.00  0.00    +0.000 OA
BRANCH  25  26
ATOM     26  C   UNL     1      -2.442  11.872  18.459  0.00  0.00    +0.000 C 
ATOM     27  F   UNL     1      -1.522  12.135  17.496  0.00  0.00    +0.000 F 
ATOM     28  F   UNL     1      -2.178  10.616  18.902  0.00  0.00    +0.000 F 
ENDBRANCH  25  26
ENDBRANCH  24  25
ENDBRANCH  11  19
BRANCH  13  29
ATOM     29  O   UNL     1      -0.486   9.705  23.766  0.00  0.00    +0.000 OA
ATOM     30  H   UNL     1      -0.548   8.745  23.912  0.00  0.00    +0.000 HD
ENDBRANCH  13  29
TORSDOF 4
ENDMDL
MODEL 8
REMARK VINA RESULT:      -6.7      6.829      8.766
REMARK  Name = 
REMARK  6 active torsions:
REMARK  status: ('A' for Active; 'I' for Inactive)
REMARK    1  A    between atoms: C_1  and  N_2
REMARK    2  A    between atoms: N_7  and  C_8
REMARK    3  A    between atoms: C_11  and  C_12
REMARK    4  A    between atoms: C_17  and  O_18
REMARK    5  A    between atoms: O_18  and  C_19
REMARK    6  A    between atoms: C_23  and  O_24
REMARK                            x       y       z     vdW  Elec       q    Type
REMARK                         _______ _______ _______ _____ _____    ______ ____
ROOT
ATOM      1  C   UNL     1      -2.310  15.912  20.536  0.00  0.00    +0.000 C 
ATOM      2  N   UNL     1      -1.053  15.209  20.304  0.00  0.00    +0.000 N 
ATOM      3  C   UNL     1      -1.043  13.902  19.850  0.00  0.00    +0.000 A 
ATOM      4  C   UNL     1       0.081  13.176  19.927  0.00  0.00    +0.000 A 
ATOM      5  C   UNL     1       1.344  13.823  20.319  0.00  0.00    +0.000 A 
ATOM      6  O   UNL     1       2.379  13.169  20.321  0.00  0.00    +0.000 OA
ATOM      7  N   UNL     1       1.275  15.153  20.666  0.00  0.00    +0.000 N 
ATOM      8  C   UNL     1       2.485  15.823  21.110  0.00  0.00    +0.000 C 
ATOM      9  C   UNL     1       0.089  15.865  20.755  0.00  0.00    +0.000 A 
ATOM     10  O   UNL     1       0.052  17.001  21.232  0.00  0.00    +0.000 OA
ATOM     11  C   UNL     1       0.090  11.675  19.701  0.00  0.00    +0.000 C 
ATOM     12  C   UNL     1      -1.057  11.271  18.798  0.00  0.00    +0.000 C 
ATOM     13  C   UNL     1      -1.066  10.333  17.831  0.00  0.00    +0.000 C 
ATOM     14  C   UNL     1      -2.254  10.092  16.942  0.00  0.00    +0.000 C 
ATOM     15  C   UNL     1      -3.558  10.325  17.678  0.00  0.00    +0.000 C 
ATOM     16  C   UNL     1      -3.602  11.650  18.421  0.00  0.00    +0.000 C 
ATOM     17  C   UNL     1      -2.254  12.164  18.909  0.00  0.00    +0.000 C 
ATOM     18  N   UNL     1      -2.234  13.359  19.424  0.00  0.00    +0.000 NA
ENDROOT
BRANCH  11  19
ATOM     19  C   UNL     1       0.072  10.934  21.058  0.00  0.00    +0.000 A 
ATOM     20  C   UNL     1       1.111   9.979  21.272  0.00  0.00    +0.000 A 
ATOM     21  C   UNL     1       1.181   9.163  22.402  0.00  0.00    +0.000 A 
ATOM     22  C   UNL     1       0.212   9.273  23.377  0.00  0.00    +0.000 A 
ATOM     23  C   UNL     1      -0.787  10.230  23.227  0.00  0.00    +0.000 A 
ATOM     24  C   UNL     1      -0.870  11.075  22.096  0.00  0.00    +0.000 A 
BRANCH  24  25
ATOM     25  O   UNL     1      -1.867  11.978  22.298  0.00  0.00    +0.000 OA
BRANCH  25  26
ATOM     26  C   UNL     1      -1.829  12.932  23.324  0.00  0.00    +0.000 C 
ATOM     27  F   UNL     1      -0.668  13.622  23.189  0.00  0.00    +0.000 F 
ATOM     28  F   UNL     1      -2.828  13.819  23.084  0.00  0.00    +0.000 F 
ENDBRANCH  25  26
ENDBRANCH  24  25
ENDBRANCH  11  19
BRANCH  13  29
ATOM     29  O   UNL     1      -0.018   9.499  17.528  0.00  0.00    +0.000 OA
ATOM     30  H   UNL     1      -0.253   8.556  17.578  0.00  0.00    +0.000 HD
ENDBRANCH  13  29
TORSDOF 4
ENDMDL
MODEL 9
REMARK VINA RESULT:      -6.5      5.872      8.779
REMARK  Name = 
REMARK  6 active torsions:
REMARK  status: ('A' for Active; 'I' for Inactive)
REMARK    1  A    between atoms: C_1  and  N_2
REMARK    2  A    between atoms: N_7  and  C_8
REMARK    3  A    between atoms: C_11  and  C_12
REMARK    4  A    between atoms: C_17  and  O_18
REMARK    5  A    between atoms: O_18  and  C_19
REMARK    6  A    between atoms: C_23  and  O_24
REMARK                            x       y       z     vdW  Elec       q    Type
REMARK                         _______ _______ _______ _____ _____    ______ ____
ROOT
ATOM      1  C   UNL     1      -6.101  13.120  22.210  0.00  0.00    +0.000 C 
ATOM      2  N   UNL     1      -4.753  13.644  22.025  0.00  0.00    +0.000 N 
ATOM      3  C   UNL     1      -3.912  13.119  21.058  0.00  0.00    +0.000 A 
ATOM      4  C   UNL     1      -2.601  13.392  21.093  0.00  0.00    +0.000 A 
ATOM      5  C   UNL     1      -2.087  14.392  22.044  0.00  0.00    +0.000 A 
ATOM      6  O   UNL     1      -0.898  14.685  22.024  0.00  0.00    +0.000 OA
ATOM      7  N   UNL     1      -3.000  14.944  22.914  0.00  0.00    +0.000 N 
ATOM      8  C   UNL     1      -2.532  15.897  23.905  0.00  0.00    +0.000 C 
ATOM      9  C   UNL     1      -4.323  14.542  22.999  0.00  0.00    +0.000 A 
ATOM     10  O   UNL     1      -5.062  14.938  23.902  0.00  0.00    +0.000 OA
ATOM     11  C   UNL     1      -1.597  12.643  20.237  0.00  0.00    +0.000 C 
ATOM     12  C   UNL     1      -2.265  12.111  18.985  0.00  0.00    +0.000 C 
ATOM     13  C   UNL     1      -1.762  12.041  17.737  0.00  0.00    +0.000 C 
ATOM     14  C   UNL     1      -2.570  11.570  16.561  0.00  0.00    +0.000 C 
ATOM     15  C   UNL     1      -3.560  10.494  16.957  0.00  0.00    +0.000 C 
ATOM     16  C   UNL     1      -4.396  10.864  18.171  0.00  0.00    +0.000 C 
ATOM     17  C   UNL     1      -3.717  11.795  19.167  0.00  0.00    +0.000 C 
ATOM     18  N   UNL     1      -4.451  12.243  20.144  0.00  0.00    +0.000 NA
ENDROOT
BRANCH  11  19
ATOM     19  C   UNL     1      -0.915  11.531  21.069  0.00  0.00    +0.000 A 
ATOM     20  C   UNL     1      -1.500  11.240  22.338  0.00  0.00    +0.000 A 
ATOM     21  C   UNL     1      -0.951  10.333  23.245  0.00  0.00    +0.000 A 
ATOM     22  C   UNL     1       0.212   9.668  22.917  0.00  0.00    +0.000 A 
ATOM     23  C   UNL     1       0.782   9.888  21.667  0.00  0.00    +0.000 A 
ATOM     24  C   UNL     1       0.236  10.794  20.729  0.00  0.00    +0.000 A 
BRANCH  24  25
ATOM     25  O   UNL     1       0.937  10.695  19.567  0.00  0.00    +0.000 OA
BRANCH  25  26
ATOM     26  C   UNL     1       1.096   9.485  18.878  0.00  0.00    +0.000 C 
ATOM     27  F   UNL     1       0.138   9.441  17.917  0.00  0.00    +0.000 F 
ATOM     28  F   UNL     1       2.285   9.548  18.226  0.00  0.00    +0.000 F 
ENDBRANCH  25  26
ENDBRANCH  24  25
ENDBRANCH  11  19
BRANCH  13  29
ATOM     29  O   UNL     1      -0.483  12.390  17.380  0.00  0.00    +0.000 OA
ATOM     30  H   UNL     1       0.147  12.338  18.120  0.00  0.00    +0.000 HD
ENDBRANCH  13  29
TORSDOF 4
ENDMDL
