MODEL 1
REMARK VINA RESULT:      -9.4      0.000      0.000
REMARK  Name = 
REMARK  3 active torsions:
REMARK  status: ('A' for Active; 'I' for Inactive)
REMARK    1  A    between atoms: C_3  and  N_4
REMARK    2  A    between atoms: N_7  and  C_8
REMARK    3  A    between atoms: C_11  and  C_12
REMARK                            x       y       z     vdW  Elec       q    Type
REMARK                         _______ _______ _______ _____ _____    ______ ____
ROOT
ATOM      1  N   UNL     1      -2.237  12.159  21.069  0.00  0.00    +0.000 N 
ATOM      2  C   UNL     1      -0.966  12.606  21.668  0.00  0.00    +0.000 C 
ATOM      3  C   UNL     1       0.115  11.546  21.328  0.00  0.00    +0.000 C 
ATOM      4  N   UNL     1       0.267  11.271  19.873  0.00  0.00    +0.000 NA
ATOM      5  C   UNL     1      -1.057  11.060  19.237  0.00  0.00    +0.000 C 
ATOM      6  C   UNL     1      -2.120  12.114  19.603  0.00  0.00    +0.000 C 
ENDROOT
BRANCH   1   9
ATOM      7  C   UNL     1      -5.264  14.294  20.828  0.00  0.00    +0.000 A 
ATOM      8  C   UNL     1      -4.080  13.615  20.540  0.00  0.00    +0.000 A 
ATOM      9  C   UNL     1      -3.413  12.805  21.490  0.00  0.00    +0.000 A 
ATOM     10  C   UNL     1      -4.010  12.719  22.772  0.00  0.00    +0.000 A 
ATOM     11  N   UNL     1      -3.600  12.035  23.903  0.00  0.00    +0.000 NA
ATOM     12  C   UNL     1      -4.493  12.309  24.823  0.00  0.00    +0.000 A 
ATOM     13  N   UNL     1      -5.472  13.130  24.345  0.00  0.00    +0.000 N 
ATOM     14  C   UNL     1      -5.188  13.419  23.034  0.00  0.00    +0.000 A 
ATOM     15  C   UNL     1      -5.845  14.210  22.092  0.00  0.00    +0.000 A 
ATOM     16  H   UNL     1      -6.262  13.474  24.868  0.00  0.00    +0.000 HD
ENDBRANCH   1   9
BRANCH   4  17
ATOM     17  C   UNL     1       1.234  10.181  19.604  0.00  0.00    +0.000 C 
ATOM     18  C   UNL     1       0.958   8.867  20.370  0.00  0.00    +0.000 C 
ATOM     19  C   UNL     1       1.927   7.751  19.995  0.00  0.00    +0.000 C 
ATOM     20  C   UNL     1       1.952   7.511  18.480  0.00  0.00    +0.000 C 
ATOM     21  C   UNL     1       2.332   8.805  17.748  0.00  0.00    +0.000 C 
ATOM     22  C   UNL     1       1.360   9.931  18.085  0.00  0.00    +0.000 C 
BRANCH  20  23
ATOM     23  C   UNL     1       2.876   6.380  18.124  0.00  0.00    +0.000 A 
ATOM     24  C   UNL     1       4.195   6.502  17.731  0.00  0.00    +0.000 A 
ATOM     25  N   UNL     1       4.702   5.250  17.525  0.00  0.00    +0.000 N 
ATOM     26  C   UNL     1       3.741   4.302  17.770  0.00  0.00    +0.000 A 
ATOM     27  C   UNL     1       3.820   2.907  17.693  0.00  0.00    +0.000 A 
ATOM     28  C   UNL     1       2.668   2.175  17.992  0.00  0.00    +0.000 A 
ATOM     29  C   UNL     1       1.487   2.816  18.354  0.00  0.00    +0.000 A 
ATOM     30  C   UNL     1       1.427   4.213  18.434  0.00  0.00    +0.000 A 
ATOM     31  C   UNL     1       2.577   4.978  18.138  0.00  0.00    +0.000 A 
ATOM     32  H   UNL     1       5.648   5.048  17.237  0.00  0.00    +0.000 HD
ENDBRANCH  20  23
ENDBRANCH   4  17
TORSDOF 3
ENDMDL
MODEL 2
REMARK VINA RESULT:      -9.0      0.909      1.296
REMARK  Name = 
REMARK  3 active torsions:
REMARK  status: ('A' for Active; 'I' for Inactive)
REMARK    1  A    between atoms: C_3  and  N_4
REMARK    2  A    between atoms: N_7  and  C_8
REMARK    3  A    between atoms: C_11  and  C_12
REMARK                            x       y       z     vdW  Elec       q    Type
REMARK                         _______ _______ _______ _____ _____    ______ ____
ROOT
ATOM      1  N   UNL     1      -1.735  12.214  21.159  0.00  0.00    +0.000 N 
ATOM      2  C   UNL     1      -0.402  12.075  21.772  0.00  0.00    +0.000 C 
ATOM      3  C   UNL     1       0.221  10.752  21.253  0.00  0.00    +0.000 C 
ATOM      4  N   UNL     1       0.293  10.650  19.770  0.00  0.00    +0.000 NA
ATOM      5  C   UNL     1      -1.003  11.030  19.154  0.00  0.00    +0.000 C 
ATOM      6  C   UNL     1      -1.611  12.337  19.698  0.00  0.00    +0.000 C 
ENDROOT
BRANCH   1   9
ATOM      7  C   UNL     1      -3.561  15.434  21.432  0.00  0.00    +0.000 A 
ATOM      8  C   UNL     1      -2.724  14.403  21.005  0.00  0.00    +0.000 A 
ATOM      9  C   UNL     1      -2.601  13.179  21.704  0.00  0.00    +0.000 A 
ATOM     10  C   UNL     1      -3.378  13.047  22.882  0.00  0.00    +0.000 A 
ATOM     11  N   UNL     1      -3.464  11.998  23.780  0.00  0.00    +0.000 NA
ATOM     12  C   UNL     1      -4.304  12.396  24.704  0.00  0.00    +0.000 A 
ATOM     13  N   UNL     1      -4.778  13.648  24.449  0.00  0.00    +0.000 N 
ATOM     14  C   UNL     1      -4.197  14.099  23.290  0.00  0.00    +0.000 A 
ATOM     15  C   UNL     1      -4.320  15.301  22.593  0.00  0.00    +0.000 A 
ATOM     16  H   UNL     1      -5.434  14.159  25.018  0.00  0.00    +0.000 HD
ENDBRANCH   1   9
BRANCH   4  17
ATOM     17  C   UNL     1       0.798   9.331  19.320  0.00  0.00    +0.000 C 
ATOM     18  C   UNL     1       1.696   9.377  18.063  0.00  0.00    +0.000 C 
ATOM     19  C   UNL     1       2.261   8.011  17.691  0.00  0.00    +0.000 C 
ATOM     20  C   UNL     1       2.999   7.365  18.871  0.00  0.00    +0.000 C 
ATOM     21  C   UNL     1       2.055   7.234  20.073  0.00  0.00    +0.000 C 
ATOM     22  C   UNL     1       1.498   8.593  20.484  0.00  0.00    +0.000 C 
BRANCH  20  23
ATOM     23  C   UNL     1       3.591   6.039  18.482  0.00  0.00    +0.000 A 
ATOM     24  C   UNL     1       4.915   5.802  18.167  0.00  0.00    +0.000 A 
ATOM     25  N   UNL     1       5.064   4.472  17.898  0.00  0.00    +0.000 N 
ATOM     26  C   UNL     1       3.862   3.823  18.025  0.00  0.00    +0.000 A 
ATOM     27  C   UNL     1       3.551   2.470  17.851  0.00  0.00    +0.000 A 
ATOM     28  C   UNL     1       2.222   2.080  18.037  0.00  0.00    +0.000 A 
ATOM     29  C   UNL     1       1.246   3.010  18.384  0.00  0.00    +0.000 A 
ATOM     30  C   UNL     1       1.575   4.359  18.561  0.00  0.00    +0.000 A 
ATOM     31  C   UNL     1       2.911   4.781  18.380  0.00  0.00    +0.000 A 
ATOM     32  H   UNL     1       5.933   4.025  17.644  0.00  0.00    +0.000 HD
ENDBRANCH  20  23
ENDBRANCH   4  17
TORSDOF 3
ENDMDL
MODEL 3
REMARK VINA RESULT:      -8.9      1.381      2.239
REMARK  Name = 
REMARK  3 active torsions:
REMARK  status: ('A' for Active; 'I' for Inactive)
REMARK    1  A    between atoms: C_3  and  N_4
REMARK    2  A    between atoms: N_7  and  C_8
REMARK    3  A    between atoms: C_11  and  C_12
REMARK                            x       y       z     vdW  Elec       q    Type
REMARK                         _______ _______ _______ _____ _____    ______ ____
ROOT
ATOM      1  N   UNL     1      -1.751  12.391  21.442  0.00  0.00    +0.000 N 
ATOM      2  C   UNL     1      -0.436  12.152  22.064  0.00  0.00    +0.000 C 
ATOM      3  C   UNL     1       0.119  10.819  21.494  0.00  0.00    +0.000 C 
ATOM      4  N   UNL     1       0.205  10.778  20.009  0.00  0.00    +0.000 NA
ATOM      5  C   UNL     1      -1.058  11.256  19.396  0.00  0.00    +0.000 C 
ATOM      6  C   UNL     1      -1.601  12.571  19.989  0.00  0.00    +0.000 C 
ENDROOT
BRANCH   1   9
ATOM      7  C   UNL     1      -3.270  15.743  21.937  0.00  0.00    +0.000 A 
ATOM      8  C   UNL     1      -2.499  14.680  21.465  0.00  0.00    +0.000 A 
ATOM      9  C   UNL     1      -2.569  13.380  22.019  0.00  0.00    +0.000 A 
ATOM     10  C   UNL     1      -3.472  13.204  23.097  0.00  0.00    +0.000 A 
ATOM     11  N   UNL     1      -3.753  12.077  23.850  0.00  0.00    +0.000 NA
ATOM     12  C   UNL     1      -4.641  12.460  24.736  0.00  0.00    +0.000 A 
ATOM     13  N   UNL     1      -4.961  13.777  24.592  0.00  0.00    +0.000 N 
ATOM     14  C   UNL     1      -4.222  14.287  23.553  0.00  0.00    +0.000 A 
ATOM     15  C   UNL     1      -4.154  15.566  23.000  0.00  0.00    +0.000 A 
ATOM     16  H   UNL     1      -5.618  14.291  25.157  0.00  0.00    +0.000 HD
ENDBRANCH   1   9
BRANCH   4  17
ATOM     17  C   UNL     1       0.643   9.453  19.508  0.00  0.00    +0.000 C 
ATOM     18  C   UNL     1       1.497   9.499  18.220  0.00  0.00    +0.000 C 
ATOM     19  C   UNL     1       1.995   8.123  17.793  0.00  0.00    +0.000 C 
ATOM     20  C   UNL     1       2.748   7.418  18.928  0.00  0.00    +0.000 C 
ATOM     21  C   UNL     1       1.842   7.291  20.160  0.00  0.00    +0.000 C 
ATOM     22  C   UNL     1       1.354   8.658  20.625  0.00  0.00    +0.000 C 
BRANCH  20  23
ATOM     23  C   UNL     1       3.273   6.081  18.484  0.00  0.00    +0.000 A 
ATOM     24  C   UNL     1       2.996   4.863  19.075  0.00  0.00    +0.000 A 
ATOM     25  N   UNL     1       3.634   3.884  18.367  0.00  0.00    +0.000 N 
ATOM     26  C   UNL     1       4.332   4.433  17.320  0.00  0.00    +0.000 A 
ATOM     27  C   UNL     1       5.115   3.811  16.342  0.00  0.00    +0.000 A 
ATOM     28  C   UNL     1       5.729   4.625  15.387  0.00  0.00    +0.000 A 
ATOM     29  C   UNL     1       5.562   6.007  15.412  0.00  0.00    +0.000 A 
ATOM     30  C   UNL     1       4.769   6.613  16.394  0.00  0.00    +0.000 A 
ATOM     31  C   UNL     1       4.137   5.814  17.371  0.00  0.00    +0.000 A 
ATOM     32  H   UNL     1       3.598   2.898  18.578  0.00  0.00    +0.000 HD
ENDBRANCH  20  23
ENDBRANCH   4  17
TORSDOF 3
ENDMDL
MODEL 4
REMARK VINA RESULT:      -8.9      1.688      2.749
REMARK  Name = 
REMARK  3 active torsions:
REMARK  status: ('A' for Active; 'I' for Inactive)
REMARK    1  A    between atoms: C_3  and  N_4
REMARK    2  A    between atoms: N_7  and  C_8
REMARK    3  A    between atoms: C_11  and  C_12
REMARK                            x       y       z     vdW  Elec       q    Type
REMARK                         _______ _______ _______ _____ _____    ______ ____
ROOT
ATOM      1  N   UNL     1      -1.685  11.882  21.963  0.00  0.00    +0.000 N 
ATOM      2  C   UNL     1      -0.826  11.070  22.845  0.00  0.00    +0.000 C 
ATOM      3  C   UNL     1      -0.315   9.858  22.021  0.00  0.00    +0.000 C 
ATOM      4  N   UNL     1       0.391  10.227  20.764  0.00  0.00    +0.000 NA
ATOM      5  C   UNL     1      -0.385  11.236  20.001  0.00  0.00    +0.000 C 
ATOM      6  C   UNL     1      -0.897  12.421  20.843  0.00  0.00    +0.000 C 
ENDROOT
BRANCH   1   9
ATOM      7  C   UNL     1      -2.530  14.815  24.076  0.00  0.00    +0.000 A 
ATOM      8  C   UNL     1      -1.846  13.786  23.428  0.00  0.00    +0.000 A 
ATOM      9  C   UNL     1      -2.490  12.863  22.570  0.00  0.00    +0.000 A 
ATOM     10  C   UNL     1      -3.886  13.032  22.399  0.00  0.00    +0.000 A 
ATOM     11  N   UNL     1      -4.789  12.296  21.652  0.00  0.00    +0.000 NA
ATOM     12  C   UNL     1      -5.956  12.857  21.859  0.00  0.00    +0.000 A 
ATOM     13  N   UNL     1      -5.858  13.928  22.697  0.00  0.00    +0.000 N 
ATOM     14  C   UNL     1      -4.544  14.064  23.068  0.00  0.00    +0.000 A 
ATOM     15  C   UNL     1      -3.904  14.975  23.908  0.00  0.00    +0.000 A 
ATOM     16  H   UNL     1      -6.621  14.513  22.999  0.00  0.00    +0.000 HD
ENDBRANCH   1   9
BRANCH   4  17
ATOM     17  C   UNL     1       0.769   9.040  19.962  0.00  0.00    +0.000 C 
ATOM     18  C   UNL     1       1.563   9.356  18.673  0.00  0.00    +0.000 C 
ATOM     19  C   UNL     1       2.004   8.100  17.929  0.00  0.00    +0.000 C 
ATOM     20  C   UNL     1       2.790   7.150  18.841  0.00  0.00    +0.000 C 
ATOM     21  C   UNL     1       1.940   6.768  20.060  0.00  0.00    +0.000 C 
ATOM     22  C   UNL     1       1.510   8.006  20.839  0.00  0.00    +0.000 C 
BRANCH  20  23
ATOM     23  C   UNL     1       3.258   5.937  18.088  0.00  0.00    +0.000 A 
ATOM     24  C   UNL     1       2.535   4.776  17.888  0.00  0.00    +0.000 A 
ATOM     25  N   UNL     1       3.288   3.922  17.134  0.00  0.00    +0.000 N 
ATOM     26  C   UNL     1       4.499   4.494  16.834  0.00  0.00    +0.000 A 
ATOM     27  C   UNL     1       5.568   3.989  16.086  0.00  0.00    +0.000 A 
ATOM     28  C   UNL     1       6.701   4.794  15.947  0.00  0.00    +0.000 A 
ATOM     29  C   UNL     1       6.758   6.055  16.532  0.00  0.00    +0.000 A 
ATOM     30  C   UNL     1       5.676   6.550  17.271  0.00  0.00    +0.000 A 
ATOM     31  C   UNL     1       4.518   5.757  17.428  0.00  0.00    +0.000 A 
ATOM     32  H   UNL     1       2.999   3.002  16.836  0.00  0.00    +0.000 HD
ENDBRANCH  20  23
ENDBRANCH   4  17
TORSDOF 3
ENDMDL
MODEL 5
REMARK VINA RESULT:      -8.8      1.184      1.796
REMARK  Name = 
REMARK  3 active torsions:
REMARK  status: ('A' for Active; 'I' for Inactive)
REMARK    1  A    between atoms: C_3  and  N_4
REMARK    2  A    between atoms: N_7  and  C_8
REMARK    3  A    between atoms: C_11  and  C_12
REMARK                            x       y       z     vdW  Elec       q    Type
REMARK                         _______ _______ _______ _____ _____    ______ ____
ROOT
ATOM      1  N   UNL     1      -2.116  12.027  21.919  0.00  0.00    +0.000 N 
ATOM      2  C   UNL     1      -0.904  11.612  22.649  0.00  0.00    +0.000 C 
ATOM      3  C   UNL     1      -0.285  10.408  21.889  0.00  0.00    +0.000 C 
ATOM      4  N   UNL     1       0.008  10.674  20.455  0.00  0.00    +0.000 NA
ATOM      5  C   UNL     1      -1.152  11.319  19.792  0.00  0.00    +0.000 C 
ATOM      6  C   UNL     1      -1.761  12.500  20.572  0.00  0.00    +0.000 C 
ENDROOT
BRANCH   1   9
ATOM      7  C   UNL     1      -3.198  14.741  24.210  0.00  0.00    +0.000 A 
ATOM      8  C   UNL     1      -2.433  13.811  23.505  0.00  0.00    +0.000 A 
ATOM      9  C   UNL     1      -2.998  12.904  22.577  0.00  0.00    +0.000 A 
ATOM     10  C   UNL     1      -4.401  12.981  22.396  0.00  0.00    +0.000 A 
ATOM     11  N   UNL     1      -5.238  12.234  21.588  0.00  0.00    +0.000 NA
ATOM     12  C   UNL     1      -6.446  12.692  21.813  0.00  0.00    +0.000 A 
ATOM     13  N   UNL     1      -6.437  13.708  22.722  0.00  0.00    +0.000 N 
ATOM     14  C   UNL     1      -5.140  13.915  23.122  0.00  0.00    +0.000 A 
ATOM     15  C   UNL     1      -4.578  14.811  24.031  0.00  0.00    +0.000 A 
ATOM     16  H   UNL     1      -7.244  14.214  23.051  0.00  0.00    +0.000 HD
ENDBRANCH   1   9
BRANCH   4  17
ATOM     17  C   UNL     1       0.500   9.468  19.748  0.00  0.00    +0.000 C 
ATOM     18  C   UNL     1       1.266   9.755  18.435  0.00  0.00    +0.000 C 
ATOM     19  C   UNL     1       1.826   8.492  17.791  0.00  0.00    +0.000 C 
ATOM     20  C   UNL     1       2.694   7.695  18.773  0.00  0.00    +0.000 C 
ATOM     21  C   UNL     1       1.879   7.332  20.021  0.00  0.00    +0.000 C 
ATOM     22  C   UNL     1       1.332   8.582  20.701  0.00  0.00    +0.000 C 
BRANCH  20  23
ATOM     23  C   UNL     1       3.278   6.475  18.116  0.00  0.00    +0.000 A 
ATOM     24  C   UNL     1       4.448   6.430  17.382  0.00  0.00    +0.000 A 
ATOM     25  N   UNL     1       4.655   5.142  16.977  0.00  0.00    +0.000 N 
ATOM     26  C   UNL     1       3.641   4.334  17.426  0.00  0.00    +0.000 A 
ATOM     27  C   UNL     1       3.450   2.959  17.256  0.00  0.00    +0.000 A 
ATOM     28  C   UNL     1       2.306   2.387  17.820  0.00  0.00    +0.000 A 
ATOM     29  C   UNL     1       1.394   3.165  18.528  0.00  0.00    +0.000 A 
ATOM     30  C   UNL     1       1.604   4.538  18.697  0.00  0.00    +0.000 A 
ATOM     31  C   UNL     1       2.751   5.142  18.136  0.00  0.00    +0.000 A 
ATOM     32  H   UNL     1       5.441   4.825  16.429  0.00  0.00    +0.000 HD
ENDBRANCH  20  23
ENDBRANCH   4  17
TORSDOF 3
ENDMDL
MODEL 6
REMARK VINA RESULT:      -8.8      1.684      2.201
REMARK  Name = 
REMARK  3 active torsions:
REMARK  status: ('A' for Active; 'I' for Inactive)
REMARK    1  A    between atoms: C_3  and  N_4
REMARK    2  A    between atoms: N_7  and  C_8
REMARK    3  A    between atoms: C_11  and  C_12
REMARK                            x       y       z     vdW  Elec       q    Type
REMARK                         _______ _______ _______ _____ _____    ______ ____
ROOT
ATOM      1  N   UNL     1      -2.410  12.038  20.001  0.00  0.00    +0.000 N 
ATOM      2  C   UNL     1      -1.594  11.941  21.225  0.00  0.00    +0.000 C 
ATOM      3  C   UNL     1      -0.492  10.877  20.974  0.00  0.00    +0.000 C 
ATOM      4  N   UNL     1       0.353  11.142  19.778  0.00  0.00    +0.000 NA
ATOM      5  C   UNL     1      -0.490  11.477  18.603  0.00  0.00    +0.000 C 
ATOM      6  C   UNL     1      -1.588  12.521  18.880  0.00  0.00    +0.000 C 
ENDROOT
BRANCH   1   9
ATOM      7  C   UNL     1      -4.824  14.648  21.071  0.00  0.00    +0.000 A 
ATOM      8  C   UNL     1      -3.673  13.877  20.909  0.00  0.00    +0.000 A 
ATOM      9  C   UNL     1      -3.637  12.719  20.095  0.00  0.00    +0.000 A 
ATOM     10  C   UNL     1      -4.847  12.370  19.444  0.00  0.00    +0.000 A 
ATOM     11  N   UNL     1      -5.136  11.305  18.611  0.00  0.00    +0.000 NA
ATOM     12  C   UNL     1      -6.404  11.433  18.304  0.00  0.00    +0.000 A 
ATOM     13  N   UNL     1      -6.955  12.535  18.889  0.00  0.00    +0.000 N 
ATOM     14  C   UNL     1      -5.984  13.155  19.634  0.00  0.00    +0.000 A 
ATOM     15  C   UNL     1      -6.012  14.299  20.432  0.00  0.00    +0.000 A 
ATOM     16  H   UNL     1      -7.912  12.836  18.797  0.00  0.00    +0.000 HD
ENDBRANCH   1   9
BRANCH   4  17
ATOM     17  C   UNL     1       1.321  10.050  19.520  0.00  0.00    +0.000 C 
ATOM     18  C   UNL     1       1.062   8.753  20.320  0.00  0.00    +0.000 C 
ATOM     19  C   UNL     1       2.030   7.632  19.957  0.00  0.00    +0.000 C 
ATOM     20  C   UNL     1       2.035   7.357  18.448  0.00  0.00    +0.000 C 
ATOM     21  C   UNL     1       2.398   8.635  17.681  0.00  0.00    +0.000 C 
ATOM     22  C   UNL     1       1.426   9.765  18.005  0.00  0.00    +0.000 C 
BRANCH  20  23
ATOM     23  C   UNL     1       2.958   6.221  18.105  0.00  0.00    +0.000 A 
ATOM     24  C   UNL     1       4.280   6.338  17.722  0.00  0.00    +0.000 A 
ATOM     25  N   UNL     1       4.786   5.084  17.527  0.00  0.00    +0.000 N 
ATOM     26  C   UNL     1       3.820   4.139  17.769  0.00  0.00    +0.000 A 
ATOM     27  C   UNL     1       3.895   2.744  17.700  0.00  0.00    +0.000 A 
ATOM     28  C   UNL     1       2.739   2.016  17.993  0.00  0.00    +0.000 A 
ATOM     29  C   UNL     1       1.557   2.663  18.343  0.00  0.00    +0.000 A 
ATOM     30  C   UNL     1       1.501   4.060  18.416  0.00  0.00    +0.000 A 
ATOM     31  C   UNL     1       2.655   4.820  18.124  0.00  0.00    +0.000 A 
ATOM     32  H   UNL     1       5.733   4.877  17.246  0.00  0.00    +0.000 HD
ENDBRANCH  20  23
ENDBRANCH   4  17
TORSDOF 3
ENDMDL
MODEL 7
REMARK VINA RESULT:      -8.8      1.548      2.443
REMARK  Name = 
REMARK  3 active torsions:
REMARK  status: ('A' for Active; 'I' for Inactive)
REMARK    1  A    between atoms: C_3  and  N_4
REMARK    2  A    between atoms: N_7  and  C_8
REMARK    3  A    between atoms: C_11  and  C_12
REMARK                            x       y       z     vdW  Elec       q    Type
REMARK                         _______ _______ _______ _____ _____    ______ ____
ROOT
ATOM      1  N   UNL     1      -2.223  12.593  22.188  0.00  0.00    +0.000 N 
ATOM      2  C   UNL     1      -1.186  12.014  23.062  0.00  0.00    +0.000 C 
ATOM      3  C   UNL     1      -0.677  10.712  22.389  0.00  0.00    +0.000 C 
ATOM      4  N   UNL     1      -0.176  10.896  20.999  0.00  0.00    +0.000 NA
ATOM      5  C   UNL     1      -1.135  11.696  20.197  0.00  0.00    +0.000 C 
ATOM      6  C   UNL     1      -1.641  12.975  20.892  0.00  0.00    +0.000 C 
ENDROOT
BRANCH   1   9
ATOM      7  C   UNL     1      -3.201  16.016  23.242  0.00  0.00    +0.000 A 
ATOM      8  C   UNL     1      -2.495  14.920  22.747  0.00  0.00    +0.000 A 
ATOM      9  C   UNL     1      -3.031  13.610  22.730  0.00  0.00    +0.000 A 
ATOM     10  C   UNL     1      -4.339  13.460  23.253  0.00  0.00    +0.000 A 
ATOM     11  N   UNL     1      -5.120  12.326  23.391  0.00  0.00    +0.000 NA
ATOM     12  C   UNL     1      -6.232  12.731  23.954  0.00  0.00    +0.000 A 
ATOM     13  N   UNL     1      -6.220  14.075  24.182  0.00  0.00    +0.000 N 
ATOM     14  C   UNL     1      -5.016  14.573  23.751  0.00  0.00    +0.000 A 
ATOM     15  C   UNL     1      -4.486  15.863  23.759  0.00  0.00    +0.000 A 
ATOM     16  H   UNL     1      -6.963  14.610  24.604  0.00  0.00    +0.000 HD
ENDBRANCH   1   9
BRANCH   4  17
ATOM     17  C   UNL     1       0.203   9.613  20.362  0.00  0.00    +0.000 C 
ATOM     18  C   UNL     1       1.009   9.755  19.051  0.00  0.00    +0.000 C 
ATOM     19  C   UNL     1       1.450   8.411  18.481  0.00  0.00    +0.000 C 
ATOM     20  C   UNL     1       2.224   7.585  19.517  0.00  0.00    +0.000 C 
ATOM     21  C   UNL     1       1.362   7.369  20.767  0.00  0.00    +0.000 C 
ATOM     22  C   UNL     1       0.932   8.700  21.374  0.00  0.00    +0.000 C 
BRANCH  20  23
ATOM     23  C   UNL     1       2.693   6.282  18.932  0.00  0.00    +0.000 A 
ATOM     24  C   UNL     1       2.267   5.023  19.311  0.00  0.00    +0.000 A 
ATOM     25  N   UNL     1       2.901   4.099  18.529  0.00  0.00    +0.000 N 
ATOM     26  C   UNL     1       3.742   4.724  17.643  0.00  0.00    +0.000 A 
ATOM     27  C   UNL     1       4.575   4.177  16.661  0.00  0.00    +0.000 A 
ATOM     28  C   UNL     1       5.343   5.058  15.896  0.00  0.00    +0.000 A 
ATOM     29  C   UNL     1       5.276   6.432  16.107  0.00  0.00    +0.000 A 
ATOM     30  C   UNL     1       4.432   6.965  17.089  0.00  0.00    +0.000 A 
ATOM     31  C   UNL     1       3.645   6.097  17.877  0.00  0.00    +0.000 A 
ATOM     32  H   UNL     1       2.771   3.101  18.590  0.00  0.00    +0.000 HD
ENDBRANCH  20  23
ENDBRANCH   4  17
TORSDOF 3
ENDMDL
MODEL 8
REMARK VINA RESULT:      -8.7      2.278     10.841
REMARK  Name = 
REMARK  3 active torsions:
REMARK  status: ('A' for Active; 'I' for Inactive)
REMARK    1  A    between atoms: C_3  and  N_4
REMARK    2  A    between atoms: N_7  and  C_8
REMARK    3  A    between atoms: C_11  and  C_12
REMARK                            x       y       z     vdW  Elec       q    Type
REMARK                         _______ _______ _______ _____ _____    ______ ____
ROOT
ATOM      1  N   UNL     1       2.220   6.914  18.705  0.00  0.00    +0.000 N 
ATOM      2  C   UNL     1       2.289   8.278  18.150  0.00  0.00    +0.000 C 
ATOM      3  C   UNL     1       1.185   9.124  18.839  0.00  0.00    +0.000 C 
ATOM      4  N   UNL     1       1.263   9.138  20.325  0.00  0.00    +0.000 NA
ATOM      5  C   UNL     1       1.438   7.763  20.855  0.00  0.00    +0.000 C 
ATOM      6  C   UNL     1       2.526   6.936  20.144  0.00  0.00    +0.000 C 
ENDROOT
BRANCH   1   9
ATOM      7  C   UNL     1       4.880   5.382  16.616  0.00  0.00    +0.000 A 
ATOM      8  C   UNL     1       4.086   6.291  17.316  0.00  0.00    +0.000 A 
ATOM      9  C   UNL     1       2.924   5.903  18.025  0.00  0.00    +0.000 A 
ATOM     10  C   UNL     1       2.596   4.526  17.988  0.00  0.00    +0.000 A 
ATOM     11  N   UNL     1       1.532   3.847  18.556  0.00  0.00    +0.000 NA
ATOM     12  C   UNL     1       1.683   2.595  18.197  0.00  0.00    +0.000 A 
ATOM     13  N   UNL     1       2.797   2.421  17.431  0.00  0.00    +0.000 N 
ATOM     14  C   UNL     1       3.403   3.642  17.271  0.00  0.00    +0.000 A 
ATOM     15  C   UNL     1       4.550   4.029  16.579  0.00  0.00    +0.000 A 
ATOM     16  H   UNL     1       3.116   1.548  17.041  0.00  0.00    +0.000 HD
ENDBRANCH   1   9
BRANCH   4  17
ATOM     17  C   UNL     1       0.132   9.871  20.941  0.00  0.00    +0.000 C 
ATOM     18  C   UNL     1      -0.013   9.673  22.467  0.00  0.00    +0.000 C 
ATOM     19  C   UNL     1      -1.134  10.514  23.068  0.00  0.00    +0.000 C 
ATOM     20  C   UNL     1      -0.976  11.999  22.717  0.00  0.00    +0.000 C 
ATOM     21  C   UNL     1      -0.940  12.179  21.194  0.00  0.00    +0.000 C 
ATOM     22  C   UNL     1       0.192  11.370  20.572  0.00  0.00    +0.000 C 
BRANCH  20  23
ATOM     23  C   UNL     1      -2.060  12.826  23.350  0.00  0.00    +0.000 A 
ATOM     24  C   UNL     1      -3.362  12.422  23.575  0.00  0.00    +0.000 A 
ATOM     25  N   UNL     1      -4.030  13.441  24.193  0.00  0.00    +0.000 N 
ATOM     26  C   UNL     1      -3.194  14.514  24.378  0.00  0.00    +0.000 A 
ATOM     27  C   UNL     1      -3.449  15.755  24.970  0.00  0.00    +0.000 A 
ATOM     28  C   UNL     1      -2.402  16.680  25.015  0.00  0.00    +0.000 A 
ATOM     29  C   UNL     1      -1.151  16.369  24.490  0.00  0.00    +0.000 A 
ATOM     30  C   UNL     1      -0.910  15.119  23.908  0.00  0.00    +0.000 A 
ATOM     31  C   UNL     1      -1.951  14.166  23.849  0.00  0.00    +0.000 A 
ATOM     32  H   UNL     1      -4.997  13.412  24.477  0.00  0.00    +0.000 HD
ENDBRANCH  20  23
ENDBRANCH   4  17
TORSDOF 3
ENDMDL
MODEL 9
REMARK VINA RESULT:      -8.6      1.761      2.231
REMARK  Name = 
REMARK  3 active torsions:
REMARK  status: ('A' for Active; 'I' for Inactive)
REMARK    1  A    between atoms: C_3  and  N_4
REMARK    2  A    between atoms: N_7  and  C_8
REMARK    3  A    between atoms: C_11  and  C_12
REMARK                            x       y       z     vdW  Elec       q    Type
REMARK                         _______ _______ _______ _____ _____    ______ ____
ROOT
ATOM      1  N   UNL     1      -1.215  13.007  22.687  0.00  0.00    +0.000 N 
ATOM      2  C   UNL     1      -1.235  13.242  21.231  0.00  0.00    +0.000 C 
ATOM      3  C   UNL     1      -0.176  12.307  20.588  0.00  0.00    +0.000 C 
ATOM      4  N   UNL     1      -0.358  10.865  20.908  0.00  0.00    +0.000 NA
ATOM      5  C   UNL     1      -0.579  10.673  22.363  0.00  0.00    +0.000 C 
ATOM      6  C   UNL     1      -1.620  11.624  22.984  0.00  0.00    +0.000 C 
ENDROOT
BRANCH   1   9
ATOM      7  C   UNL     1      -1.601  15.768  25.138  0.00  0.00    +0.000 A 
ATOM      8  C   UNL     1      -1.068  14.788  24.300  0.00  0.00    +0.000 A 
ATOM      9  C   UNL     1      -1.876  13.943  23.502  0.00  0.00    +0.000 A 
ATOM     10  C   UNL     1      -3.276  14.139  23.598  0.00  0.00    +0.000 A 
ATOM     11  N   UNL     1      -4.314  13.473  22.970  0.00  0.00    +0.000 NA
ATOM     12  C   UNL     1      -5.412  14.026  23.426  0.00  0.00    +0.000 A 
ATOM     13  N   UNL     1      -5.141  15.026  24.314  0.00  0.00    +0.000 N 
ATOM     14  C   UNL     1      -3.779  15.119  24.453  0.00  0.00    +0.000 A 
ATOM     15  C   UNL     1      -2.978  15.953  25.233  0.00  0.00    +0.000 A 
ATOM     16  H   UNL     1      -5.824  15.591  24.793  0.00  0.00    +0.000 HD
ENDBRANCH   1   9
BRANCH   4  17
ATOM     17  C   UNL     1       0.732  10.024  20.359  0.00  0.00    +0.000 C 
ATOM     18  C   UNL     1       0.803   8.594  20.942  0.00  0.00    +0.000 C 
ATOM     19  C   UNL     1       1.882   7.741  20.284  0.00  0.00    +0.000 C 
ATOM     20  C   UNL     1       1.723   7.707  18.759  0.00  0.00    +0.000 C 
ATOM     21  C   UNL     1       1.761   9.133  18.194  0.00  0.00    +0.000 C 
ATOM     22  C   UNL     1       0.671   9.999  18.815  0.00  0.00    +0.000 C 
BRANCH  20  23
ATOM     23  C   UNL     1       2.764   6.829  18.123  0.00  0.00    +0.000 A 
ATOM     24  C   UNL     1       3.956   7.254  17.568  0.00  0.00    +0.000 A 
ATOM     25  N   UNL     1       4.640   6.159  17.122  0.00  0.00    +0.000 N 
ATOM     26  C   UNL     1       3.920   5.016  17.367  0.00  0.00    +0.000 A 
ATOM     27  C   UNL     1       4.235   3.682  17.088  0.00  0.00    +0.000 A 
ATOM     28  C   UNL     1       3.300   2.706  17.442  0.00  0.00    +0.000 A 
ATOM     29  C   UNL     1       2.100   3.056  18.053  0.00  0.00    +0.000 A 
ATOM     30  C   UNL     1       1.803   4.395  18.333  0.00  0.00    +0.000 A 
ATOM     31  C   UNL     1       2.730   5.402  17.985  0.00  0.00    +0.000 A 
ATOM     32  H   UNL     1       5.545   6.182  16.677  0.00  0.00    +0.000 HD
ENDBRANCH  20  23
ENDBRANCH   4  17
TORSDOF 3
ENDMDL
