MODEL 1
REMARK VINA RESULT:      -8.4      0.000      0.000
REMARK  Name = 
REMARK  4 active torsions:
REMARK  status: ('A' for Active; 'I' for Inactive)
REMARK    1  A    between atoms: C_2  and  C_3
REMARK    2  A    between atoms: C_16  and  O_17
REMARK    3  A    between atoms: O_17  and  C_18
REMARK    4  A    between atoms: C_23  and  N_24
REMARK                            x       y       z     vdW  Elec       q    Type
REMARK                         _______ _______ _______ _____ _____    ______ ____
ROOT
ATOM      1  O   UNL     1       0.395   8.678  21.548  0.00  0.00    +0.000 OA
ATOM      2  C   UNL     1       0.859   9.056  20.470  0.00  0.00    +0.000 C 
ATOM      3  N   UNL     1       1.635   8.217  19.654  0.00  0.00    +0.000 N 
ATOM      4  C   UNL     1       1.857   6.844  20.100  0.00  0.00    +0.000 C 
ATOM      5  C   UNL     1       3.271   6.389  19.746  0.00  0.00    +0.000 C 
ATOM      6  C   UNL     1       3.484   6.476  18.234  0.00  0.00    +0.000 C 
ATOM      7  C   UNL     1       3.211   7.912  17.768  0.00  0.00    +0.000 C 
ATOM      8  C   UNL     1       1.846   8.426  18.221  0.00  0.00    +0.000 C 
ENDROOT
BRANCH   2   9
ATOM      9  C   UNL     1       0.536  10.447  20.020  0.00  0.00    +0.000 A 
ATOM     10  C   UNL     1      -0.683  10.658  19.394  0.00  0.00    +0.000 A 
ATOM     11  C   UNL     1      -0.973  11.938  18.938  0.00  0.00    +0.000 A 
ATOM     12  C   UNL     1      -0.048  12.972  19.132  0.00  0.00    +0.000 A 
ATOM     13  C   UNL     1      -0.307  14.271  18.676  0.00  0.00    +0.000 A 
ATOM     14  C   UNL     1       0.621  15.289  18.882  0.00  0.00    +0.000 A 
ATOM     15  C   UNL     1       1.818  15.006  19.536  0.00  0.00    +0.000 A 
ATOM     16  C   UNL     1       2.073  13.703  19.981  0.00  0.00    +0.000 A 
ATOM     17  C   UNL     1       1.162  12.674  19.804  0.00  0.00    +0.000 A 
ATOM     18  N   UNL     1       1.445  11.435  20.248  0.00  0.00    +0.000 NA
ENDBRANCH   2   9
BRANCH   6  19
ATOM     19  O   UNL     1       2.566   5.594  17.569  0.00  0.00    +0.000 OA
BRANCH  19  20
ATOM     20  C   UNL     1       2.697   4.247  17.856  0.00  0.00    +0.000 A 
ATOM     21  N   UNL     1       1.598   3.610  18.331  0.00  0.00    +0.000 NA
ATOM     22  C   UNL     1       1.710   2.301  18.609  0.00  0.00    +0.000 A 
ATOM     23  C   UNL     1       2.880   1.590  18.453  0.00  0.00    +0.000 A 
ATOM     24  C   UNL     1       3.994   2.257  17.942  0.00  0.00    +0.000 A 
ATOM     25  C   UNL     1       3.942   3.620  17.596  0.00  0.00    +0.000 A 
BRANCH  25  26
ATOM     26  N   UNL     1       5.022   4.247  16.977  0.00  0.00    +0.000 N 
ATOM     27  C   UNL     1       6.260   4.524  17.730  0.00  0.00    +0.000 C 
ATOM     28  C   UNL     1       6.968   5.745  17.121  0.00  0.00    +0.000 C 
ATOM     29  O   UNL     1       7.242   5.542  15.726  0.00  0.00    +0.000 OA
ATOM     30  C   UNL     1       6.006   5.391  15.013  0.00  0.00    +0.000 C 
ATOM     31  C   UNL     1       5.193   4.183  15.512  0.00  0.00    +0.000 C 
ENDBRANCH  25  26
ENDBRANCH  19  20
ENDBRANCH   6  19
TORSDOF 4
ENDMDL
MODEL 2
REMARK VINA RESULT:      -8.2      2.931      9.219
REMARK  Name = 
REMARK  4 active torsions:
REMARK  status: ('A' for Active; 'I' for Inactive)
REMARK    1  A    between atoms: C_2  and  C_3
REMARK    2  A    between atoms: C_16  and  O_17
REMARK    3  A    between atoms: O_17  and  C_18
REMARK    4  A    between atoms: C_23  and  N_24
REMARK                            x       y       z     vdW  Elec       q    Type
REMARK                         _______ _______ _______ _____ _____    ______ ____
ROOT
ATOM      1  O   UNL     1       3.066   8.672  17.431  0.00  0.00    +0.000 OA
ATOM      2  C   UNL     1       2.264   8.511  18.353  0.00  0.00    +0.000 C 
ATOM      3  N   UNL     1       1.494   9.566  18.868  0.00  0.00    +0.000 N 
ATOM      4  C   UNL     1       1.638  10.882  18.250  0.00  0.00    +0.000 C 
ATOM      5  C   UNL     1       1.554  11.980  19.307  0.00  0.00    +0.000 C 
ATOM      6  C   UNL     1       0.211  11.902  20.036  0.00  0.00    +0.000 C 
ATOM      7  C   UNL     1       0.051  10.504  20.649  0.00  0.00    +0.000 C 
ATOM      8  C   UNL     1       0.254   9.389  19.626  0.00  0.00    +0.000 C 
ENDROOT
BRANCH   2   9
ATOM      9  C   UNL     1       2.095   7.127  18.898  0.00  0.00    +0.000 A 
ATOM     10  C   UNL     1       1.941   6.984  20.269  0.00  0.00    +0.000 A 
ATOM     11  C   UNL     1       1.823   5.699  20.785  0.00  0.00    +0.000 A 
ATOM     12  C   UNL     1       1.846   4.597  19.920  0.00  0.00    +0.000 A 
ATOM     13  C   UNL     1       1.738   3.289  20.411  0.00  0.00    +0.000 A 
ATOM     14  C   UNL     1       1.756   2.205  19.537  0.00  0.00    +0.000 A 
ATOM     15  C   UNL     1       1.895   2.426  18.169  0.00  0.00    +0.000 A 
ATOM     16  C   UNL     1       2.012   3.736  17.688  0.00  0.00    +0.000 A 
ATOM     17  C   UNL     1       1.981   4.835  18.531  0.00  0.00    +0.000 A 
ATOM     18  N   UNL     1       2.093   6.078  18.028  0.00  0.00    +0.000 NA
ENDBRANCH   2   9
BRANCH   6  19
ATOM     19  O   UNL     1      -0.856  12.119  19.101  0.00  0.00    +0.000 OA
BRANCH  19  20
ATOM     20  C   UNL     1      -2.078  12.482  19.641  0.00  0.00    +0.000 A 
ATOM     21  N   UNL     1      -2.053  13.321  20.707  0.00  0.00    +0.000 NA
ATOM     22  C   UNL     1      -3.232  13.684  21.239  0.00  0.00    +0.000 A 
ATOM     23  C   UNL     1      -4.447  13.236  20.767  0.00  0.00    +0.000 A 
ATOM     24  C   UNL     1      -4.452  12.391  19.656  0.00  0.00    +0.000 A 
ATOM     25  C   UNL     1      -3.258  11.995  19.026  0.00  0.00    +0.000 A 
BRANCH  25  26
ATOM     26  N   UNL     1      -3.279  11.250  17.848  0.00  0.00    +0.000 N 
ATOM     27  C   UNL     1      -2.659   9.912  17.797  0.00  0.00    +0.000 C 
ATOM     28  C   UNL     1      -2.206   9.612  16.360  0.00  0.00    +0.000 C 
ATOM     29  O   UNL     1      -3.302   9.713  15.438  0.00  0.00    +0.000 OA
ATOM     30  C   UNL     1      -3.802  11.058  15.435  0.00  0.00    +0.000 C 
ATOM     31  C   UNL     1      -4.312  11.490  16.821  0.00  0.00    +0.000 C 
ENDBRANCH  25  26
ENDBRANCH  19  20
ENDBRANCH   6  19
TORSDOF 4
ENDMDL
MODEL 3
REMARK VINA RESULT:      -8.0      2.194      9.343
REMARK  Name = 
REMARK  4 active torsions:
REMARK  status: ('A' for Active; 'I' for Inactive)
REMARK    1  A    between atoms: C_2  and  C_3
REMARK    2  A    between atoms: C_16  and  O_17
REMARK    3  A    between atoms: O_17  and  C_18
REMARK    4  A    between atoms: C_23  and  N_24
REMARK                            x       y       z     vdW  Elec       q    Type
REMARK                         _______ _______ _______ _____ _____    ______ ____
ROOT
ATOM      1  O   UNL     1       1.994   5.984  20.862  0.00  0.00    +0.000 OA
ATOM      2  C   UNL     1       2.203   6.583  19.805  0.00  0.00    +0.000 C 
ATOM      3  N   UNL     1       1.782   7.906  19.598  0.00  0.00    +0.000 N 
ATOM      4  C   UNL     1       1.108   8.589  20.699  0.00  0.00    +0.000 C 
ATOM      5  C   UNL     1      -0.007   9.487  20.169  0.00  0.00    +0.000 C 
ATOM      6  C   UNL     1       0.573  10.523  19.203  0.00  0.00    +0.000 C 
ATOM      7  C   UNL     1       1.312   9.798  18.071  0.00  0.00    +0.000 C 
ATOM      8  C   UNL     1       2.348   8.804  18.590  0.00  0.00    +0.000 C 
ENDROOT
BRANCH   2   9
ATOM      9  C   UNL     1       2.969   5.866  18.737  0.00  0.00    +0.000 A 
ATOM     10  C   UNL     1       2.364   4.780  18.122  0.00  0.00    +0.000 A 
ATOM     11  C   UNL     1       3.085   4.087  17.158  0.00  0.00    +0.000 A 
ATOM     12  C   UNL     1       4.380   4.504  16.824  0.00  0.00    +0.000 A 
ATOM     13  C   UNL     1       5.135   3.821  15.861  0.00  0.00    +0.000 A 
ATOM     14  C   UNL     1       6.419   4.253  15.536  0.00  0.00    +0.000 A 
ATOM     15  C   UNL     1       6.955   5.364  16.182  0.00  0.00    +0.000 A 
ATOM     16  C   UNL     1       6.197   6.036  17.149  0.00  0.00    +0.000 A 
ATOM     17  C   UNL     1       4.912   5.639  17.482  0.00  0.00    +0.000 A 
ATOM     18  N   UNL     1       4.215   6.314  18.415  0.00  0.00    +0.000 NA
ENDBRANCH   2   9
BRANCH   6  19
ATOM     19  O   UNL     1       1.507  11.360  19.902  0.00  0.00    +0.000 OA
BRANCH  19  20
ATOM     20  C   UNL     1       1.605  12.667  19.459  0.00  0.00    +0.000 A 
ATOM     21  N   UNL     1       2.599  12.945  18.578  0.00  0.00    +0.000 NA
ATOM     22  C   UNL     1       2.704  14.209  18.137  0.00  0.00    +0.000 A 
ATOM     23  C   UNL     1       1.870  15.226  18.548  0.00  0.00    +0.000 A 
ATOM     24  C   UNL     1       0.840  14.917  19.437  0.00  0.00    +0.000 A 
ATOM     25  C   UNL     1       0.648  13.608  19.916  0.00  0.00    +0.000 A 
BRANCH  25  26
ATOM     26  N   UNL     1      -0.452  13.285  20.709  0.00  0.00    +0.000 N 
ATOM     27  C   UNL     1      -0.338  13.272  22.180  0.00  0.00    +0.000 C 
ATOM     28  C   UNL     1      -1.360  12.285  22.764  0.00  0.00    +0.000 C 
ATOM     29  O   UNL     1      -2.695  12.615  22.350  0.00  0.00    +0.000 OA
ATOM     30  C   UNL     1      -2.793  12.505  20.922  0.00  0.00    +0.000 C 
ATOM     31  C   UNL     1      -1.827  13.460  20.199  0.00  0.00    +0.000 C 
ENDBRANCH  25  26
ENDBRANCH  19  20
ENDBRANCH   6  19
TORSDOF 4
ENDMDL
MODEL 4
REMARK VINA RESULT:      -8.0      2.858      9.498
REMARK  Name = 
REMARK  4 active torsions:
REMARK  status: ('A' for Active; 'I' for Inactive)
REMARK    1  A    between atoms: C_2  and  C_3
REMARK    2  A    between atoms: C_16  and  O_17
REMARK    3  A    between atoms: O_17  and  C_18
REMARK    4  A    between atoms: C_23  and  N_24
REMARK                            x       y       z     vdW  Elec       q    Type
REMARK                         _______ _______ _______ _____ _____    ______ ____
ROOT
ATOM      1  O   UNL     1       2.326   8.806  17.224  0.00  0.00    +0.000 OA
ATOM      2  C   UNL     1       2.176   8.418  18.384  0.00  0.00    +0.000 C 
ATOM      3  N   UNL     1       1.554   9.208  19.364  0.00  0.00    +0.000 N 
ATOM      4  C   UNL     1       1.042  10.517  18.963  0.00  0.00    +0.000 C 
ATOM      5  C   UNL     1       1.254  11.538  20.078  0.00  0.00    +0.000 C 
ATOM      6  C   UNL     1       0.540  11.077  21.350  0.00  0.00    +0.000 C 
ATOM      7  C   UNL     1       1.055   9.686  21.743  0.00  0.00    +0.000 C 
ATOM      8  C   UNL     1       0.963   8.682  20.595  0.00  0.00    +0.000 C 
ENDROOT
BRANCH   2   9
ATOM      9  C   UNL     1       2.646   7.038  18.725  0.00  0.00    +0.000 A 
ATOM     10  C   UNL     1       3.640   6.478  17.936  0.00  0.00    +0.000 A 
ATOM     11  C   UNL     1       4.052   5.182  18.222  0.00  0.00    +0.000 A 
ATOM     12  C   UNL     1       3.474   4.489  19.293  0.00  0.00    +0.000 A 
ATOM     13  C   UNL     1       3.862   3.178  19.602  0.00  0.00    +0.000 A 
ATOM     14  C   UNL     1       3.282   2.505  20.674  0.00  0.00    +0.000 A 
ATOM     15  C   UNL     1       2.302   3.138  21.435  0.00  0.00    +0.000 A 
ATOM     16  C   UNL     1       1.913   4.445  21.114  0.00  0.00    +0.000 A 
ATOM     17  C   UNL     1       2.484   5.145  20.063  0.00  0.00    +0.000 A 
ATOM     18  N   UNL     1       2.084   6.401  19.790  0.00  0.00    +0.000 NA
ENDBRANCH   2   9
BRANCH   6  19
ATOM     19  O   UNL     1      -0.872  10.992  21.104  0.00  0.00    +0.000 OA
BRANCH  19  20
ATOM     20  C   UNL     1      -1.650  11.992  21.661  0.00  0.00    +0.000 A 
ATOM     21  N   UNL     1      -1.295  12.433  22.893  0.00  0.00    +0.000 NA
ATOM     22  C   UNL     1      -2.039  13.406  23.444  0.00  0.00    +0.000 A 
ATOM     23  C   UNL     1      -3.143  13.956  22.829  0.00  0.00    +0.000 A 
ATOM     24  C   UNL     1      -3.480  13.504  21.552  0.00  0.00    +0.000 A 
ATOM     25  C   UNL     1      -2.727  12.512  20.898  0.00  0.00    +0.000 A 
BRANCH  25  26
ATOM     26  N   UNL     1      -2.999  12.153  19.579  0.00  0.00    +0.000 N 
ATOM     27  C   UNL     1      -4.391  12.058  19.100  0.00  0.00    +0.000 C 
ATOM     28  C   UNL     1      -4.468  11.047  17.946  0.00  0.00    +0.000 C 
ATOM     29  O   UNL     1      -3.575  11.407  16.881  0.00  0.00    +0.000 OA
ATOM     30  C   UNL     1      -2.223  11.377  17.360  0.00  0.00    +0.000 C 
ATOM     31  C   UNL     1      -1.995  12.364  18.517  0.00  0.00    +0.000 C 
ENDBRANCH  25  26
ENDBRANCH  19  20
ENDBRANCH   6  19
TORSDOF 4
ENDMDL
MODEL 5
REMARK VINA RESULT:      -7.9      2.653      9.535
REMARK  Name = 
REMARK  4 active torsions:
REMARK  status: ('A' for Active; 'I' for Inactive)
REMARK    1  A    between atoms: C_2  and  C_3
REMARK    2  A    between atoms: C_16  and  O_17
REMARK    3  A    between atoms: O_17  and  C_18
REMARK    4  A    between atoms: C_23  and  N_24
REMARK                            x       y       z     vdW  Elec       q    Type
REMARK                         _______ _______ _______ _____ _____    ______ ____
ROOT
ATOM      1  O   UNL     1       2.399   8.692  17.089  0.00  0.00    +0.000 OA
ATOM      2  C   UNL     1       2.219   8.268  18.232  0.00  0.00    +0.000 C 
ATOM      3  N   UNL     1       1.613   9.046  19.232  0.00  0.00    +0.000 N 
ATOM      4  C   UNL     1       1.157  10.386  18.874  0.00  0.00    +0.000 C 
ATOM      5  C   UNL     1       1.391  11.357  20.027  0.00  0.00    +0.000 C 
ATOM      6  C   UNL     1       0.643  10.879  21.273  0.00  0.00    +0.000 C 
ATOM      7  C   UNL     1       1.100   9.456  21.621  0.00  0.00    +0.000 C 
ATOM      8  C   UNL     1       0.986   8.499  20.437  0.00  0.00    +0.000 C 
ENDROOT
BRANCH   2   9
ATOM      9  C   UNL     1       2.631   6.859  18.528  0.00  0.00    +0.000 A 
ATOM     10  C   UNL     1       3.866   6.657  19.126  0.00  0.00    +0.000 A 
ATOM     11  C   UNL     1       4.272   5.351  19.366  0.00  0.00    +0.000 A 
ATOM     12  C   UNL     1       3.430   4.286  19.019  0.00  0.00    +0.000 A 
ATOM     13  C   UNL     1       3.815   2.956  19.242  0.00  0.00    +0.000 A 
ATOM     14  C   UNL     1       2.964   1.910  18.896  0.00  0.00    +0.000 A 
ATOM     15  C   UNL     1       1.729   2.189  18.316  0.00  0.00    +0.000 A 
ATOM     16  C   UNL     1       1.357   3.520  18.088  0.00  0.00    +0.000 A 
ATOM     17  C   UNL     1       2.175   4.583  18.436  0.00  0.00    +0.000 A 
ATOM     18  N   UNL     1       1.778   5.848  18.204  0.00  0.00    +0.000 NA
ENDBRANCH   2   9
BRANCH   6  19
ATOM     19  O   UNL     1      -0.767  10.857  21.007  0.00  0.00    +0.000 OA
BRANCH  19  20
ATOM     20  C   UNL     1      -1.508  11.891  21.552  0.00  0.00    +0.000 A 
ATOM     21  N   UNL     1      -1.130  12.340  22.775  0.00  0.00    +0.000 NA
ATOM     22  C   UNL     1      -1.838  13.346  23.314  0.00  0.00    +0.000 A 
ATOM     23  C   UNL     1      -2.927  13.922  22.696  0.00  0.00    +0.000 A 
ATOM     24  C   UNL     1      -3.288  13.461  21.429  0.00  0.00    +0.000 A 
ATOM     25  C   UNL     1      -2.572  12.434  20.787  0.00  0.00    +0.000 A 
BRANCH  25  26
ATOM     26  N   UNL     1      -2.865  12.063  19.476  0.00  0.00    +0.000 N 
ATOM     27  C   UNL     1      -4.265  11.940  19.027  0.00  0.00    +0.000 C 
ATOM     28  C   UNL     1      -4.347  10.922  17.879  0.00  0.00    +0.000 C 
ATOM     29  O   UNL     1      -3.483  11.293  16.794  0.00  0.00    +0.000 OA
ATOM     30  C   UNL     1      -2.120  11.289  17.244  0.00  0.00    +0.000 C 
ATOM     31  C   UNL     1      -1.887  12.286  18.392  0.00  0.00    +0.000 C 
ENDBRANCH  25  26
ENDBRANCH  19  20
ENDBRANCH   6  19
TORSDOF 4
ENDMDL
MODEL 6
REMARK VINA RESULT:      -7.7      2.363      8.839
REMARK  Name = 
REMARK  4 active torsions:
REMARK  status: ('A' for Active; 'I' for Inactive)
REMARK    1  A    between atoms: C_2  and  C_3
REMARK    2  A    between atoms: C_16  and  O_17
REMARK    3  A    between atoms: O_17  and  C_18
REMARK    4  A    between atoms: C_23  and  N_24
REMARK                            x       y       z     vdW  Elec       q    Type
REMARK                         _______ _______ _______ _____ _____    ______ ____
ROOT
ATOM      1  O   UNL     1       1.881   5.486  21.238  0.00  0.00    +0.000 OA
ATOM      2  C   UNL     1       2.105   6.215  20.269  0.00  0.00    +0.000 C 
ATOM      3  N   UNL     1       1.579   7.513  20.172  0.00  0.00    +0.000 N 
ATOM      4  C   UNL     1       0.771   8.009  21.283  0.00  0.00    +0.000 C 
ATOM      5  C   UNL     1      -0.382   8.864  20.766  0.00  0.00    +0.000 C 
ATOM      6  C   UNL     1       0.163  10.046  19.963  0.00  0.00    +0.000 C 
ATOM      7  C   UNL     1       1.042   9.518  18.821  0.00  0.00    +0.000 C 
ATOM      8  C   UNL     1       2.127   8.563  19.311  0.00  0.00    +0.000 C 
ENDROOT
BRANCH   2   9
ATOM      9  C   UNL     1       3.005   5.690  19.194  0.00  0.00    +0.000 A 
ATOM     10  C   UNL     1       2.417   5.079  18.097  0.00  0.00    +0.000 A 
ATOM     11  C   UNL     1       3.247   4.554  17.115  0.00  0.00    +0.000 A 
ATOM     12  C   UNL     1       4.637   4.668  17.245  0.00  0.00    +0.000 A 
ATOM     13  C   UNL     1       5.502   4.142  16.276  0.00  0.00    +0.000 A 
ATOM     14  C   UNL     1       6.881   4.268  16.418  0.00  0.00    +0.000 A 
ATOM     15  C   UNL     1       7.401   4.912  17.538  0.00  0.00    +0.000 A 
ATOM     16  C   UNL     1       6.530   5.427  18.507  0.00  0.00    +0.000 A 
ATOM     17  C   UNL     1       5.154   5.330  18.385  0.00  0.00    +0.000 A 
ATOM     18  N   UNL     1       4.351   5.841  19.337  0.00  0.00    +0.000 NA
ENDBRANCH   2   9
BRANCH   6  19
ATOM     19  O   UNL     1       0.967  10.875  20.816  0.00  0.00    +0.000 OA
BRANCH  19  20
ATOM     20  C   UNL     1       0.305  11.895  21.477  0.00  0.00    +0.000 A 
ATOM     21  N   UNL     1      -0.538  11.534  22.477  0.00  0.00    +0.000 NA
ATOM     22  C   UNL     1      -1.184  12.513  23.130  0.00  0.00    +0.000 A 
ATOM     23  C   UNL     1      -1.044  13.849  22.822  0.00  0.00    +0.000 A 
ATOM     24  C   UNL     1      -0.157  14.203  21.805  0.00  0.00    +0.000 A 
ATOM     25  C   UNL     1       0.580  13.234  21.100  0.00  0.00    +0.000 A 
BRANCH  25  26
ATOM     26  N   UNL     1       1.550  13.603  20.169  0.00  0.00    +0.000 N 
ATOM     27  C   UNL     1       1.307  13.429  18.724  0.00  0.00    +0.000 C 
ATOM     28  C   UNL     1       2.648  13.240  17.999  0.00  0.00    +0.000 C 
ATOM     29  O   UNL     1       3.532  14.344  18.248  0.00  0.00    +0.000 OA
ATOM     30  C   UNL     1       3.834  14.407  19.650  0.00  0.00    +0.000 C 
ATOM     31  C   UNL     1       2.572  14.614  20.505  0.00  0.00    +0.000 C 
ENDBRANCH  25  26
ENDBRANCH  19  20
ENDBRANCH   6  19
TORSDOF 4
ENDMDL
MODEL 7
REMARK VINA RESULT:      -7.7      3.049      9.125
REMARK  Name = 
REMARK  4 active torsions:
REMARK  status: ('A' for Active; 'I' for Inactive)
REMARK    1  A    between atoms: C_2  and  C_3
REMARK    2  A    between atoms: C_16  and  O_17
REMARK    3  A    between atoms: O_17  and  C_18
REMARK    4  A    between atoms: C_23  and  N_24
REMARK                            x       y       z     vdW  Elec       q    Type
REMARK                         _______ _______ _______ _____ _____    ______ ____
ROOT
ATOM      1  O   UNL     1       3.223   8.716  17.480  0.00  0.00    +0.000 OA
ATOM      2  C   UNL     1       2.331   8.391  18.266  0.00  0.00    +0.000 C 
ATOM      3  N   UNL     1       1.468   9.332  18.851  0.00  0.00    +0.000 N 
ATOM      4  C   UNL     1       1.629  10.734  18.473  0.00  0.00    +0.000 C 
ATOM      5  C   UNL     1       1.386  11.643  19.675  0.00  0.00    +0.000 C 
ATOM      6  C   UNL     1      -0.024  11.419  20.223  0.00  0.00    +0.000 C 
ATOM      7  C   UNL     1      -0.197   9.937  20.582  0.00  0.00    +0.000 C 
ATOM      8  C   UNL     1       0.160   9.009  19.423  0.00  0.00    +0.000 C 
ENDROOT
BRANCH   2   9
ATOM      9  C   UNL     1       2.156   6.933  18.559  0.00  0.00    +0.000 A 
ATOM     10  C   UNL     1       1.821   6.096  17.505  0.00  0.00    +0.000 A 
ATOM     11  C   UNL     1       1.617   4.749  17.777  0.00  0.00    +0.000 A 
ATOM     12  C   UNL     1       1.770   4.272  19.085  0.00  0.00    +0.000 A 
ATOM     13  C   UNL     1       1.564   2.921  19.393  0.00  0.00    +0.000 A 
ATOM     14  C   UNL     1       1.724   2.463  20.698  0.00  0.00    +0.000 A 
ATOM     15  C   UNL     1       2.081   3.359  21.703  0.00  0.00    +0.000 A 
ATOM     16  C   UNL     1       2.276   4.709  21.389  0.00  0.00    +0.000 A 
ATOM     17  C   UNL     1       2.139   5.191  20.097  0.00  0.00    +0.000 A 
ATOM     18  N   UNL     1       2.338   6.497  19.836  0.00  0.00    +0.000 NA
ENDBRANCH   2   9
BRANCH   6  19
ATOM     19  O   UNL     1      -0.989  11.765  19.218  0.00  0.00    +0.000 OA
BRANCH  19  20
ATOM     20  C   UNL     1      -2.217  12.211  19.677  0.00  0.00    +0.000 A 
ATOM     21  N   UNL     1      -2.210  13.006  20.776  0.00  0.00    +0.000 NA
ATOM     22  C   UNL     1      -3.394  13.449  21.230  0.00  0.00    +0.000 A 
ATOM     23  C   UNL     1      -4.599  13.121  20.648  0.00  0.00    +0.000 A 
ATOM     24  C   UNL     1      -4.584  12.320  19.505  0.00  0.00    +0.000 A 
ATOM     25  C   UNL     1      -3.380  11.847  18.953  0.00  0.00    +0.000 A 
BRANCH  25  26
ATOM     26  N   UNL     1      -3.366  11.148  17.747  0.00  0.00    +0.000 N 
ATOM     27  C   UNL     1      -2.920   9.742  17.700  0.00  0.00    +0.000 C 
ATOM     28  C   UNL     1      -2.354   9.431  16.306  0.00  0.00    +0.000 C 
ATOM     29  O   UNL     1      -3.322   9.704  15.281  0.00  0.00    +0.000 OA
ATOM     30  C   UNL     1      -3.643  11.103  15.286  0.00  0.00    +0.000 C 
ATOM     31  C   UNL     1      -4.241  11.555  16.630  0.00  0.00    +0.000 C 
ENDBRANCH  25  26
ENDBRANCH  19  20
ENDBRANCH   6  19
TORSDOF 4
ENDMDL
MODEL 8
REMARK VINA RESULT:      -7.6      2.356      4.188
REMARK  Name = 
REMARK  4 active torsions:
REMARK  status: ('A' for Active; 'I' for Inactive)
REMARK    1  A    between atoms: C_2  and  C_3
REMARK    2  A    between atoms: C_16  and  O_17
REMARK    3  A    between atoms: O_17  and  C_18
REMARK    4  A    between atoms: C_23  and  N_24
REMARK                            x       y       z     vdW  Elec       q    Type
REMARK                         _______ _______ _______ _____ _____    ______ ____
ROOT
ATOM      1  O   UNL     1       1.347  11.025  18.231  0.00  0.00    +0.000 OA
ATOM      2  C   UNL     1       1.129  10.189  19.111  0.00  0.00    +0.000 C 
ATOM      3  N   UNL     1       1.674   8.896  19.067  0.00  0.00    +0.000 N 
ATOM      4  C   UNL     1       2.555   8.563  17.951  0.00  0.00    +0.000 C 
ATOM      5  C   UNL     1       2.335   7.119  17.508  0.00  0.00    +0.000 C 
ATOM      6  C   UNL     1       2.606   6.168  18.676  0.00  0.00    +0.000 C 
ATOM      7  C   UNL     1       1.704   6.549  19.857  0.00  0.00    +0.000 C 
ATOM      8  C   UNL     1       1.824   8.024  20.233  0.00  0.00    +0.000 C 
ENDROOT
BRANCH   2   9
ATOM      9  C   UNL     1       0.285  10.606  20.276  0.00  0.00    +0.000 A 
ATOM     10  C   UNL     1       0.607  10.098  21.525  0.00  0.00    +0.000 A 
ATOM     11  C   UNL     1      -0.196  10.449  22.603  0.00  0.00    +0.000 A 
ATOM     12  C   UNL     1      -1.286  11.307  22.408  0.00  0.00    +0.000 A 
ATOM     13  C   UNL     1      -2.119  11.673  23.473  0.00  0.00    +0.000 A 
ATOM     14  C   UNL     1      -3.196  12.531  23.264  0.00  0.00    +0.000 A 
ATOM     15  C   UNL     1      -3.448  13.018  21.984  0.00  0.00    +0.000 A 
ATOM     16  C   UNL     1      -2.616  12.640  20.922  0.00  0.00    +0.000 A 
ATOM     17  C   UNL     1      -1.528  11.801  21.104  0.00  0.00    +0.000 A 
ATOM     18  N   UNL     1      -0.751  11.464  20.058  0.00  0.00    +0.000 NA
ENDBRANCH   2   9
BRANCH   6  19
ATOM     19  O   UNL     1       3.977   6.290  19.085  0.00  0.00    +0.000 OA
BRANCH  19  20
ATOM     20  C   UNL     1       4.920   5.743  18.233  0.00  0.00    +0.000 A 
ATOM     21  N   UNL     1       5.919   6.560  17.815  0.00  0.00    +0.000 NA
ATOM     22  C   UNL     1       6.843   6.041  16.991  0.00  0.00    +0.000 A 
ATOM     23  C   UNL     1       6.814   4.738  16.544  0.00  0.00    +0.000 A 
ATOM     24  C   UNL     1       5.791   3.906  17.003  0.00  0.00    +0.000 A 
ATOM     25  C   UNL     1       4.807   4.371  17.894  0.00  0.00    +0.000 A 
BRANCH  25  26
ATOM     26  N   UNL     1       3.861   3.504  18.438  0.00  0.00    +0.000 N 
ATOM     27  C   UNL     1       2.919   2.777  17.565  0.00  0.00    +0.000 C 
ATOM     28  C   UNL     1       1.630   2.474  18.343  0.00  0.00    +0.000 C 
ATOM     29  O   UNL     1       1.909   1.730  19.539  0.00  0.00    +0.000 OA
ATOM     30  C   UNL     1       2.734   2.517  20.410  0.00  0.00    +0.000 C 
ATOM     31  C   UNL     1       4.079   2.883  19.760  0.00  0.00    +0.000 C 
ENDBRANCH  25  26
ENDBRANCH  19  20
ENDBRANCH   6  19
TORSDOF 4
ENDMDL
MODEL 9
REMARK VINA RESULT:      -7.4      2.306      3.878
REMARK  Name = 
REMARK  4 active torsions:
REMARK  status: ('A' for Active; 'I' for Inactive)
REMARK    1  A    between atoms: C_2  and  C_3
REMARK    2  A    between atoms: C_16  and  O_17
REMARK    3  A    between atoms: O_17  and  C_18
REMARK    4  A    between atoms: C_23  and  N_24
REMARK                            x       y       z     vdW  Elec       q    Type
REMARK                         _______ _______ _______ _____ _____    ______ ____
ROOT
ATOM      1  O   UNL     1       1.388  10.900  17.977  0.00  0.00    +0.000 OA
ATOM      2  C   UNL     1       1.236  10.207  18.985  0.00  0.00    +0.000 C 
ATOM      3  N   UNL     1       1.724   8.893  19.070  0.00  0.00    +0.000 N 
ATOM      4  C   UNL     1       2.465   8.364  17.928  0.00  0.00    +0.000 C 
ATOM      5  C   UNL     1       2.145   6.886  17.720  0.00  0.00    +0.000 C 
ATOM      6  C   UNL     1       2.507   6.092  18.977  0.00  0.00    +0.000 C 
ATOM      7  C   UNL     1       1.754   6.678  20.179  0.00  0.00    +0.000 C 
ATOM      8  C   UNL     1       1.968   8.183  20.326  0.00  0.00    +0.000 C 
ENDROOT
BRANCH   2   9
ATOM      9  C   UNL     1       0.540  10.823  20.158  0.00  0.00    +0.000 A 
ATOM     10  C   UNL     1      -0.268  10.006  20.935  0.00  0.00    +0.000 A 
ATOM     11  C   UNL     1      -0.948  10.580  22.002  0.00  0.00    +0.000 A 
ATOM     12  C   UNL     1      -0.792  11.946  22.273  0.00  0.00    +0.000 A 
ATOM     13  C   UNL     1      -1.470  12.556  23.336  0.00  0.00    +0.000 A 
ATOM     14  C   UNL     1      -1.299  13.913  23.596  0.00  0.00    +0.000 A 
ATOM     15  C   UNL     1      -0.456  14.668  22.784  0.00  0.00    +0.000 A 
ATOM     16  C   UNL     1       0.211  14.052  21.717  0.00  0.00    +0.000 A 
ATOM     17  C   UNL     1       0.073  12.701  21.445  0.00  0.00    +0.000 A 
ATOM     18  N   UNL     1       0.735  12.147  20.411  0.00  0.00    +0.000 NA
ENDBRANCH   2   9
BRANCH   6  19
ATOM     19  O   UNL     1       3.917   6.198  19.222  0.00  0.00    +0.000 OA
BRANCH  19  20
ATOM     20  C   UNL     1       4.748   5.666  18.251  0.00  0.00    +0.000 A 
ATOM     21  N   UNL     1       5.730   6.471  17.773  0.00  0.00    +0.000 NA
ATOM     22  C   UNL     1       6.545   5.966  16.833  0.00  0.00    +0.000 A 
ATOM     23  C   UNL     1       6.420   4.691  16.327  0.00  0.00    +0.000 A 
ATOM     24  C   UNL     1       5.418   3.870  16.847  0.00  0.00    +0.000 A 
ATOM     25  C   UNL     1       4.548   4.319  17.857  0.00  0.00    +0.000 A 
BRANCH  25  26
ATOM     26  N   UNL     1       3.629   3.456  18.452  0.00  0.00    +0.000 N 
ATOM     27  C   UNL     1       2.613   2.763  17.636  0.00  0.00    +0.000 C 
ATOM     28  C   UNL     1       1.379   2.464  18.501  0.00  0.00    +0.000 C 
ATOM     29  O   UNL     1       1.732   1.690  19.658  0.00  0.00    +0.000 OA
ATOM     30  C   UNL     1       2.633   2.446  20.481  0.00  0.00    +0.000 C 
ATOM     31  C   UNL     1       3.933   2.803  19.741  0.00  0.00    +0.000 C 
ENDBRANCH  25  26
ENDBRANCH  19  20
ENDBRANCH   6  19
TORSDOF 4
ENDMDL
