MODEL 1
REMARK VINA RESULT:      -8.3      0.000      0.000
REMARK  Name = 
REMARK  7 active torsions:
REMARK  status: ('A' for Active; 'I' for Inactive)
REMARK    1  A    between atoms: C_1  and  O_2
REMARK    2  A    between atoms: O_2  and  C_3
REMARK    3  A    between atoms: C_6  and  C_7
REMARK    4  A    between atoms: C_10  and  N_11
REMARK    5  A    between atoms: N_14  and  C_15
REMARK    6  A    between atoms: C_18  and  N_19
REMARK    7  A    between atoms: C_30  and  N_31
REMARK                            x       y       z     vdW  Elec       q    Type
REMARK                         _______ _______ _______ _____ _____    ______ ____
ROOT
ATOM      1  C   UNL     1       2.214   7.578  19.235  0.00  0.00    +0.000 A 
ATOM      2  C   UNL     1       1.539   8.160  20.324  0.00  0.00    +0.000 A 
ATOM      3  C   UNL     1       0.880   9.387  20.208  0.00  0.00    +0.000 A 
ATOM      4  C   UNL     1       0.877  10.093  19.004  0.00  0.00    +0.000 A 
ATOM      5  C   UNL     1       1.500   9.515  17.897  0.00  0.00    +0.000 A 
ATOM      6  C   UNL     1       2.171   8.285  18.018  0.00  0.00    +0.000 A 
ENDROOT
BRANCH   1  10
ATOM      7  C   UNL     1       4.101   3.848  19.550  0.00  0.00    +0.000 A 
ATOM      8  C   UNL     1       2.978   4.184  20.275  0.00  0.00    +0.000 A 
ATOM      9  N   UNL     1       2.362   5.376  20.201  0.00  0.00    +0.000 NA
ATOM     10  C   UNL     1       2.909   6.280  19.368  0.00  0.00    +0.000 A 
ATOM     11  N   UNL     1       4.013   6.062  18.625  0.00  0.00    +0.000 NA
ATOM     12  C   UNL     1       4.599   4.844  18.695  0.00  0.00    +0.000 A 
BRANCH  12  13
ATOM     13  N   UNL     1       5.726   4.623  17.915  0.00  0.00    +0.000 N 
ATOM     14  C   UNL     1       7.004   5.258  18.249  0.00  0.00    +0.000 C 
ATOM     15  C   UNL     1       7.431   6.286  17.192  0.00  0.00    +0.000 C 
ATOM     16  O   UNL     1       7.387   5.736  15.864  0.00  0.00    +0.000 OA
ATOM     17  C   UNL     1       6.051   5.313  15.559  0.00  0.00    +0.000 C 
ATOM     18  C   UNL     1       5.575   4.208  16.514  0.00  0.00    +0.000 C 
ENDBRANCH  12  13
BRANCH   7  20
ATOM     19  C   UNL     1       4.131   1.507  19.089  0.00  0.00    +0.000 C 
ATOM     20  O   UNL     1       4.766   2.653  19.639  0.00  0.00    +0.000 OA
ENDBRANCH   7  20
ENDBRANCH   1  10
BRANCH   4  21
ATOM     21  N   UNL     1       0.265  11.366  18.869  0.00  0.00    +0.000 N 
ATOM     22  C   UNL     1      -0.301  12.062  19.927  0.00  0.00    +0.000 C 
ATOM     23  O   UNL     1      -0.249  11.707  21.102  0.00  0.00    +0.000 OA
ATOM     24  N   UNL     1      -0.951  13.213  19.515  0.00  0.00    +0.000 N 
ATOM     25  H   UNL     1       0.507  11.912  18.059  0.00  0.00    +0.000 HD
ATOM     26  H   UNL     1      -1.374  13.147  18.600  0.00  0.00    +0.000 HD
BRANCH  24  27
ATOM     27  C   UNL     1      -1.626  14.037  20.449  0.00  0.00    +0.000 A 
ATOM     28  C   UNL     1      -1.075  15.223  20.936  0.00  0.00    +0.000 A 
ATOM     29  C   UNL     1      -1.772  15.995  21.878  0.00  0.00    +0.000 A 
ATOM     30  C   UNL     1      -3.036  15.629  22.374  0.00  0.00    +0.000 A 
ATOM     31  C   UNL     1      -3.542  14.410  21.884  0.00  0.00    +0.000 A 
ATOM     32  C   UNL     1      -2.870  13.642  20.920  0.00  0.00    +0.000 A 
BRANCH  30  33
ATOM     33  N   UNL     1      -3.685  16.375  23.357  0.00  0.00    +0.000 N 
ATOM     34  C   UNL     1      -5.155  16.242  23.492  0.00  0.00    +0.000 C 
ATOM     35  C   UNL     1      -5.713  17.482  24.211  0.00  0.00    +0.000 C 
ATOM     36  O   UNL     1      -5.114  17.654  25.504  0.00  0.00    +0.000 OA
ATOM     37  C   UNL     1      -3.695  17.815  25.367  0.00  0.00    +0.000 C 
ATOM     38  C   UNL     1      -3.043  16.605  24.671  0.00  0.00    +0.000 C 
ENDBRANCH  30  33
ENDBRANCH  24  27
ENDBRANCH   4  21
TORSDOF 6
ENDMDL
MODEL 2
REMARK VINA RESULT:      -8.2      1.176      1.631
REMARK  Name = 
REMARK  7 active torsions:
REMARK  status: ('A' for Active; 'I' for Inactive)
REMARK    1  A    between atoms: C_1  and  O_2
REMARK    2  A    between atoms: O_2  and  C_3
REMARK    3  A    between atoms: C_6  and  C_7
REMARK    4  A    between atoms: C_10  and  N_11
REMARK    5  A    between atoms: N_14  and  C_15
REMARK    6  A    between atoms: C_18  and  N_19
REMARK    7  A    between atoms: C_30  and  N_31
REMARK                            x       y       z     vdW  Elec       q    Type
REMARK                         _______ _______ _______ _____ _____    ______ ____
ROOT
ATOM      1  C   UNL     1       2.271   7.356  19.311  0.00  0.00    +0.000 A 
ATOM      2  C   UNL     1       1.684   7.936  20.452  0.00  0.00    +0.000 A 
ATOM      3  C   UNL     1       1.034   9.172  20.394  0.00  0.00    +0.000 A 
ATOM      4  C   UNL     1       0.954   9.889  19.200  0.00  0.00    +0.000 A 
ATOM      5  C   UNL     1       1.488   9.314  18.045  0.00  0.00    +0.000 A 
ATOM      6  C   UNL     1       2.150   8.076  18.107  0.00  0.00    +0.000 A 
ENDROOT
BRANCH   1  10
ATOM      7  C   UNL     1       4.131   3.602  19.450  0.00  0.00    +0.000 A 
ATOM      8  C   UNL     1       3.020   3.917  20.204  0.00  0.00    +0.000 A 
ATOM      9  N   UNL     1       2.413   5.116  20.186  0.00  0.00    +0.000 NA
ATOM     10  C   UNL     1       2.956   6.049  19.383  0.00  0.00    +0.000 A 
ATOM     11  N   UNL     1       4.048   5.851  18.617  0.00  0.00    +0.000 NA
ATOM     12  C   UNL     1       4.626   4.628  18.629  0.00  0.00    +0.000 A 
BRANCH  12  13
ATOM     13  N   UNL     1       5.739   4.429  17.825  0.00  0.00    +0.000 N 
ATOM     14  C   UNL     1       7.011   5.092  18.131  0.00  0.00    +0.000 C 
ATOM     15  C   UNL     1       7.394   6.127  17.064  0.00  0.00    +0.000 C 
ATOM     16  O   UNL     1       7.333   5.575  15.738  0.00  0.00    +0.000 OA
ATOM     17  C   UNL     1       6.000   5.123  15.462  0.00  0.00    +0.000 C 
ATOM     18  C   UNL     1       5.568   4.010  16.428  0.00  0.00    +0.000 C 
ENDBRANCH  12  13
BRANCH   7  20
ATOM     19  C   UNL     1       4.078   1.254  19.029  0.00  0.00    +0.000 C 
ATOM     20  O   UNL     1       4.787   2.399  19.482  0.00  0.00    +0.000 OA
ENDBRANCH   7  20
ENDBRANCH   1  10
BRANCH   4  21
ATOM     21  N   UNL     1       0.350  11.171  19.120  0.00  0.00    +0.000 N 
ATOM     22  C   UNL     1      -0.705  11.574  19.926  0.00  0.00    +0.000 C 
ATOM     23  O   UNL     1      -1.166  10.913  20.853  0.00  0.00    +0.000 OA
ATOM     24  N   UNL     1      -1.202  12.814  19.563  0.00  0.00    +0.000 N 
ATOM     25  H   UNL     1       0.883  11.908  18.688  0.00  0.00    +0.000 HD
ATOM     26  H   UNL     1      -1.147  13.012  18.574  0.00  0.00    +0.000 HD
BRANCH  24  27
ATOM     27  C   UNL     1      -2.310  13.377  20.245  0.00  0.00    +0.000 A 
ATOM     28  C   UNL     1      -3.624  12.979  19.994  0.00  0.00    +0.000 A 
ATOM     29  C   UNL     1      -4.690  13.581  20.679  0.00  0.00    +0.000 A 
ATOM     30  C   UNL     1      -4.504  14.595  21.635  0.00  0.00    +0.000 A 
ATOM     31  C   UNL     1      -3.168  14.992  21.833  0.00  0.00    +0.000 A 
ATOM     32  C   UNL     1      -2.088  14.380  21.178  0.00  0.00    +0.000 A 
BRANCH  30  33
ATOM     33  N   UNL     1      -5.580  15.227  22.257  0.00  0.00    +0.000 N 
ATOM     34  C   UNL     1      -6.611  14.388  22.911  0.00  0.00    +0.000 C 
ATOM     35  C   UNL     1      -7.915  15.195  23.043  0.00  0.00    +0.000 C 
ATOM     36  O   UNL     1      -7.711  16.401  23.795  0.00  0.00    +0.000 OA
ATOM     37  C   UNL     1      -6.736  17.225  23.142  0.00  0.00    +0.000 C 
ATOM     38  C   UNL     1      -5.384  16.502  22.983  0.00  0.00    +0.000 C 
ENDBRANCH  30  33
ENDBRANCH  24  27
ENDBRANCH   4  21
TORSDOF 6
ENDMDL
MODEL 3
REMARK VINA RESULT:      -8.1      0.584      1.473
REMARK  Name = 
REMARK  7 active torsions:
REMARK  status: ('A' for Active; 'I' for Inactive)
REMARK    1  A    between atoms: C_1  and  O_2
REMARK    2  A    between atoms: O_2  and  C_3
REMARK    3  A    between atoms: C_6  and  C_7
REMARK    4  A    between atoms: C_10  and  N_11
REMARK    5  A    between atoms: N_14  and  C_15
REMARK    6  A    between atoms: C_18  and  N_19
REMARK    7  A    between atoms: C_30  and  N_31
REMARK                            x       y       z     vdW  Elec       q    Type
REMARK                         _______ _______ _______ _____ _____    ______ ____
ROOT
ATOM      1  C   UNL     1       2.249   7.587  19.286  0.00  0.00    +0.000 A 
ATOM      2  C   UNL     1       2.330   8.402  18.143  0.00  0.00    +0.000 A 
ATOM      3  C   UNL     1       1.650   9.622  18.061  0.00  0.00    +0.000 A 
ATOM      4  C   UNL     1       0.849  10.072  19.112  0.00  0.00    +0.000 A 
ATOM      5  C   UNL     1       0.789   9.302  20.275  0.00  0.00    +0.000 A 
ATOM      6  C   UNL     1       1.466   8.072  20.351  0.00  0.00    +0.000 A 
ENDROOT
BRANCH   1  10
ATOM      7  C   UNL     1       4.220   3.889  19.426  0.00  0.00    +0.000 A 
ATOM      8  C   UNL     1       3.040   4.137  20.096  0.00  0.00    +0.000 A 
ATOM      9  N   UNL     1       2.395   5.315  20.077  0.00  0.00    +0.000 NA
ATOM     10  C   UNL     1       2.971   6.299  19.362  0.00  0.00    +0.000 A 
ATOM     11  N   UNL     1       4.129   6.170  18.683  0.00  0.00    +0.000 NA
ATOM     12  C   UNL     1       4.746   4.965  18.694  0.00  0.00    +0.000 A 
BRANCH  12  13
ATOM     13  N   UNL     1       5.928   4.837  17.979  0.00  0.00    +0.000 N 
ATOM     14  C   UNL     1       7.091   5.670  18.302  0.00  0.00    +0.000 C 
ATOM     15  C   UNL     1       7.427   6.653  17.172  0.00  0.00    +0.000 C 
ATOM     16  O   UNL     1       7.524   5.992  15.899  0.00  0.00    +0.000 OA
ATOM     17  C   UNL     1       6.274   5.362  15.584  0.00  0.00    +0.000 C 
ATOM     18  C   UNL     1       5.905   4.288  16.618  0.00  0.00    +0.000 C 
ENDBRANCH  12  13
BRANCH   7  20
ATOM     19  C   UNL     1       4.539   1.761  20.457  0.00  0.00    +0.000 C 
ATOM     20  O   UNL     1       4.912   2.708  19.464  0.00  0.00    +0.000 OA
ENDBRANCH   7  20
ENDBRANCH   1  10
BRANCH   4  21
ATOM     21  N   UNL     1       0.103  11.277  19.038  0.00  0.00    +0.000 N 
ATOM     22  C   UNL     1      -0.280  12.012  20.150  0.00  0.00    +0.000 C 
ATOM     23  O   UNL     1       0.061  11.760  21.303  0.00  0.00    +0.000 OA
ATOM     24  N   UNL     1      -1.112  13.069  19.824  0.00  0.00    +0.000 N 
ATOM     25  H   UNL     1       0.109  11.771  18.161  0.00  0.00    +0.000 HD
ATOM     26  H   UNL     1      -1.717  12.894  19.034  0.00  0.00    +0.000 HD
BRANCH  24  27
ATOM     27  C   UNL     1      -1.641  13.912  20.833  0.00  0.00    +0.000 A 
ATOM     28  C   UNL     1      -2.884  13.680  21.425  0.00  0.00    +0.000 A 
ATOM     29  C   UNL     1      -3.376  14.555  22.405  0.00  0.00    +0.000 A 
ATOM     30  C   UNL     1      -2.666  15.688  22.838  0.00  0.00    +0.000 A 
ATOM     31  C   UNL     1      -1.434  15.905  22.193  0.00  0.00    +0.000 A 
ATOM     32  C   UNL     1      -0.914  15.024  21.232  0.00  0.00    +0.000 A 
BRANCH  30  33
ATOM     33  N   UNL     1      -3.200  16.582  23.765  0.00  0.00    +0.000 N 
ATOM     34  C   UNL     1      -2.437  17.812  24.084  0.00  0.00    +0.000 C 
ATOM     35  C   UNL     1      -2.893  18.353  25.451  0.00  0.00    +0.000 C 
ATOM     36  O   UNL     1      -4.301  18.631  25.462  0.00  0.00    +0.000 OA
ATOM     37  C   UNL     1      -5.037  17.432  25.185  0.00  0.00    +0.000 C 
ATOM     38  C   UNL     1      -4.659  16.825  23.820  0.00  0.00    +0.000 C 
ENDBRANCH  30  33
ENDBRANCH  24  27
ENDBRANCH   4  21
TORSDOF 6
ENDMDL
MODEL 4
REMARK VINA RESULT:      -8.1      0.648      1.020
REMARK  Name = 
REMARK  7 active torsions:
REMARK  status: ('A' for Active; 'I' for Inactive)
REMARK    1  A    between atoms: C_1  and  O_2
REMARK    2  A    between atoms: O_2  and  C_3
REMARK    3  A    between atoms: C_6  and  C_7
REMARK    4  A    between atoms: C_10  and  N_11
REMARK    5  A    between atoms: N_14  and  C_15
REMARK    6  A    between atoms: C_18  and  N_19
REMARK    7  A    between atoms: C_30  and  N_31
REMARK                            x       y       z     vdW  Elec       q    Type
REMARK                         _______ _______ _______ _____ _____    ______ ____
ROOT
ATOM      1  C   UNL     1       2.159   7.631  19.155  0.00  0.00    +0.000 A 
ATOM      2  C   UNL     1       1.449   8.178  20.240  0.00  0.00    +0.000 A 
ATOM      3  C   UNL     1       0.849   9.438  20.163  0.00  0.00    +0.000 A 
ATOM      4  C   UNL     1       0.943  10.212  19.006  0.00  0.00    +0.000 A 
ATOM      5  C   UNL     1       1.604   9.672  17.901  0.00  0.00    +0.000 A 
ATOM      6  C   UNL     1       2.215   8.409  17.983  0.00  0.00    +0.000 A 
ENDROOT
BRANCH   1  10
ATOM      7  C   UNL     1       3.865   3.806  19.349  0.00  0.00    +0.000 A 
ATOM      8  C   UNL     1       2.759   4.173  20.087  0.00  0.00    +0.000 A 
ATOM      9  N   UNL     1       2.200   5.395  20.051  0.00  0.00    +0.000 NA
ATOM     10  C   UNL     1       2.791   6.298  19.247  0.00  0.00    +0.000 A 
ATOM     11  N   UNL     1       3.883   6.050  18.496  0.00  0.00    +0.000 NA
ATOM     12  C   UNL     1       4.411   4.804  18.526  0.00  0.00    +0.000 A 
BRANCH  12  13
ATOM     13  N   UNL     1       5.525   4.554  17.738  0.00  0.00    +0.000 N 
ATOM     14  C   UNL     1       6.835   5.109  18.095  0.00  0.00    +0.000 C 
ATOM     15  C   UNL     1       7.316   6.152  17.077  0.00  0.00    +0.000 C 
ATOM     16  O   UNL     1       7.246   5.655  15.730  0.00  0.00    +0.000 OA
ATOM     17  C   UNL     1       5.890   5.313  15.410  0.00  0.00    +0.000 C 
ATOM     18  C   UNL     1       5.356   4.200  16.323  0.00  0.00    +0.000 C 
ENDBRANCH  12  13
BRANCH   7  20
ATOM     19  C   UNL     1       3.781   1.482  18.818  0.00  0.00    +0.000 C 
ATOM     20  O   UNL     1       4.471   2.579  19.400  0.00  0.00    +0.000 OA
ENDBRANCH   7  20
ENDBRANCH   1  10
BRANCH   4  21
ATOM     21  N   UNL     1       0.393  11.517  18.916  0.00  0.00    +0.000 N 
ATOM     22  C   UNL     1      -0.038  12.247  20.014  0.00  0.00    +0.000 C 
ATOM     23  O   UNL     1       0.096  11.892  21.182  0.00  0.00    +0.000 OA
ATOM     24  N   UNL     1      -0.657  13.431  19.652  0.00  0.00    +0.000 N 
ATOM     25  H   UNL     1       0.594  12.047  18.083  0.00  0.00    +0.000 HD
ATOM     26  H   UNL     1      -1.161  13.386  18.777  0.00  0.00    +0.000 HD
BRANCH  24  27
ATOM     27  C   UNL     1      -1.201  14.293  20.636  0.00  0.00    +0.000 A 
ATOM     28  C   UNL     1      -0.583  15.488  21.008  0.00  0.00    +0.000 A 
ATOM     29  C   UNL     1      -1.148  16.298  22.004  0.00  0.00    +0.000 A 
ATOM     30  C   UNL     1      -2.342  15.966  22.668  0.00  0.00    +0.000 A 
ATOM     31  C   UNL     1      -2.916  14.738  22.288  0.00  0.00    +0.000 A 
ATOM     32  C   UNL     1      -2.378  13.929  21.273  0.00  0.00    +0.000 A 
BRANCH  30  33
ATOM     33  N   UNL     1      -2.854  16.751  23.699  0.00  0.00    +0.000 N 
ATOM     34  C   UNL     1      -2.037  17.880  24.203  0.00  0.00    +0.000 C 
ATOM     35  C   UNL     1      -2.502  18.252  25.622  0.00  0.00    +0.000 C 
ATOM     36  O   UNL     1      -3.893  18.604  25.642  0.00  0.00    +0.000 OA
ATOM     37  C   UNL     1      -4.684  17.499  25.185  0.00  0.00    +0.000 C 
ATOM     38  C   UNL     1      -4.300  17.067  23.756  0.00  0.00    +0.000 C 
ENDBRANCH  30  33
ENDBRANCH  24  27
ENDBRANCH   4  21
TORSDOF 6
ENDMDL
MODEL 5
REMARK VINA RESULT:      -8.0      2.366      3.783
REMARK  Name = 
REMARK  7 active torsions:
REMARK  status: ('A' for Active; 'I' for Inactive)
REMARK    1  A    between atoms: C_1  and  O_2
REMARK    2  A    between atoms: O_2  and  C_3
REMARK    3  A    between atoms: C_6  and  C_7
REMARK    4  A    between atoms: C_10  and  N_11
REMARK    5  A    between atoms: N_14  and  C_15
REMARK    6  A    between atoms: C_18  and  N_19
REMARK    7  A    between atoms: C_30  and  N_31
REMARK                            x       y       z     vdW  Elec       q    Type
REMARK                         _______ _______ _______ _____ _____    ______ ____
ROOT
ATOM      1  C   UNL     1       2.529   7.996  18.207  0.00  0.00    +0.000 A 
ATOM      2  C   UNL     1       2.468   9.235  17.544  0.00  0.00    +0.000 A 
ATOM      3  C   UNL     1       1.654  10.274  18.005  0.00  0.00    +0.000 A 
ATOM      4  C   UNL     1       0.857  10.117  19.139  0.00  0.00    +0.000 A 
ATOM      5  C   UNL     1       0.935   8.912  19.840  0.00  0.00    +0.000 A 
ATOM      6  C   UNL     1       1.746   7.864  19.370  0.00  0.00    +0.000 A 
ENDROOT
BRANCH   1  10
ATOM      7  C   UNL     1       5.058   4.928  16.878  0.00  0.00    +0.000 A 
ATOM      8  C   UNL     1       5.243   6.252  16.540  0.00  0.00    +0.000 A 
ATOM      9  N   UNL     1       4.441   7.251  16.943  0.00  0.00    +0.000 NA
ATOM     10  C   UNL     1       3.392   6.903  17.711  0.00  0.00    +0.000 A 
ATOM     11  N   UNL     1       3.110   5.639  18.087  0.00  0.00    +0.000 NA
ATOM     12  C   UNL     1       3.949   4.652  17.693  0.00  0.00    +0.000 A 
BRANCH  12  13
ATOM     13  N   UNL     1       3.659   3.357  18.098  0.00  0.00    +0.000 N 
ATOM     14  C   UNL     1       2.518   2.632  17.530  0.00  0.00    +0.000 C 
ATOM     15  C   UNL     1       1.424   2.370  18.574  0.00  0.00    +0.000 C 
ATOM     16  O   UNL     1       1.957   1.769  19.767  0.00  0.00    +0.000 OA
ATOM     17  C   UNL     1       2.934   2.640  20.354  0.00  0.00    +0.000 C 
ATOM     18  C   UNL     1       4.120   2.880  19.408  0.00  0.00    +0.000 C 
ENDBRANCH  12  13
BRANCH   7  20
ATOM     19  C   UNL     1       6.504   4.044  15.198  0.00  0.00    +0.000 C 
ATOM     20  O   UNL     1       5.842   3.890  16.446  0.00  0.00    +0.000 OA
ENDBRANCH   7  20
ENDBRANCH   1  10
BRANCH   4  21
ATOM     21  N   UNL     1      -0.021  11.132  19.600  0.00  0.00    +0.000 N 
ATOM     22  C   UNL     1       0.309  12.038  20.597  0.00  0.00    +0.000 C 
ATOM     23  O   UNL     1       1.418  12.126  21.119  0.00  0.00    +0.000 OA
ATOM     24  N   UNL     1      -0.761  12.838  20.959  0.00  0.00    +0.000 N 
ATOM     25  H   UNL     1      -0.779  11.398  18.993  0.00  0.00    +0.000 HD
ATOM     26  H   UNL     1      -1.661  12.384  20.892  0.00  0.00    +0.000 HD
BRANCH  24  27
ATOM     27  C   UNL     1      -0.629  13.798  21.993  0.00  0.00    +0.000 A 
ATOM     28  C   UNL     1       0.242  14.885  21.898  0.00  0.00    +0.000 A 
ATOM     29  C   UNL     1       0.354  15.798  22.957  0.00  0.00    +0.000 A 
ATOM     30  C   UNL     1      -0.386  15.677  24.146  0.00  0.00    +0.000 A 
ATOM     31  C   UNL     1      -1.227  14.550  24.216  0.00  0.00    +0.000 A 
ATOM     32  C   UNL     1      -1.372  13.644  23.154  0.00  0.00    +0.000 A 
BRANCH  30  33
ATOM     33  N   UNL     1      -0.213  16.557  25.213  0.00  0.00    +0.000 N 
ATOM     34  C   UNL     1       0.075  17.981  24.917  0.00  0.00    +0.000 C 
ATOM     35  C   UNL     1       0.743  18.630  26.143  0.00  0.00    +0.000 C 
ATOM     36  O   UNL     1      -0.089  18.528  27.309  0.00  0.00    +0.000 OA
ATOM     37  C   UNL     1      -0.340  17.149  27.611  0.00  0.00    +0.000 C 
ATOM     38  C   UNL     1      -1.028  16.419  26.442  0.00  0.00    +0.000 C 
ENDBRANCH  30  33
ENDBRANCH  24  27
ENDBRANCH   4  21
TORSDOF 6
ENDMDL
MODEL 6
REMARK VINA RESULT:      -7.7      0.722      1.130
REMARK  Name = 
REMARK  7 active torsions:
REMARK  status: ('A' for Active; 'I' for Inactive)
REMARK    1  A    between atoms: C_1  and  O_2
REMARK    2  A    between atoms: O_2  and  C_3
REMARK    3  A    between atoms: C_6  and  C_7
REMARK    4  A    between atoms: C_10  and  N_11
REMARK    5  A    between atoms: N_14  and  C_15
REMARK    6  A    between atoms: C_18  and  N_19
REMARK    7  A    between atoms: C_30  and  N_31
REMARK                            x       y       z     vdW  Elec       q    Type
REMARK                         _______ _______ _______ _____ _____    ______ ____
ROOT
ATOM      1  C   UNL     1       2.247   7.747  19.059  0.00  0.00    +0.000 A 
ATOM      2  C   UNL     1       2.423   8.488  17.876  0.00  0.00    +0.000 A 
ATOM      3  C   UNL     1       1.857   9.757  17.714  0.00  0.00    +0.000 A 
ATOM      4  C   UNL     1       1.081  10.334  18.720  0.00  0.00    +0.000 A 
ATOM      5  C   UNL     1       0.930   9.637  19.921  0.00  0.00    +0.000 A 
ATOM      6  C   UNL     1       1.490   8.357  20.078  0.00  0.00    +0.000 A 
ENDROOT
BRANCH   1  10
ATOM      7  C   UNL     1       3.863   3.899  19.455  0.00  0.00    +0.000 A 
ATOM      8  C   UNL     1       2.794   4.345  20.203  0.00  0.00    +0.000 A 
ATOM      9  N   UNL     1       2.265   5.576  20.103  0.00  0.00    +0.000 NA
ATOM     10  C   UNL     1       2.848   6.406  19.220  0.00  0.00    +0.000 A 
ATOM     11  N   UNL     1       3.907   6.079  18.450  0.00  0.00    +0.000 NA
ATOM     12  C   UNL     1       4.404   4.824  18.547  0.00  0.00    +0.000 A 
BRANCH  12  13
ATOM     13  N   UNL     1       5.483   4.492  17.740  0.00  0.00    +0.000 N 
ATOM     14  C   UNL     1       6.847   4.870  18.121  0.00  0.00    +0.000 C 
ATOM     15  C   UNL     1       7.448   5.906  17.161  0.00  0.00    +0.000 C 
ATOM     16  O   UNL     1       7.322   5.498  15.788  0.00  0.00    +0.000 OA
ATOM     17  C   UNL     1       5.936   5.334  15.456  0.00  0.00    +0.000 C 
ATOM     18  C   UNL     1       5.275   4.241  16.308  0.00  0.00    +0.000 C 
ENDBRANCH  12  13
BRANCH   7  20
ATOM     19  C   UNL     1       4.308   1.988  20.813  0.00  0.00    +0.000 C 
ATOM     20  O   UNL     1       4.441   2.662  19.568  0.00  0.00    +0.000 OA
ENDBRANCH   7  20
ENDBRANCH   1  10
BRANCH   4  21
ATOM     21  N   UNL     1       0.448  11.594  18.565  0.00  0.00    +0.000 N 
ATOM     22  C   UNL     1      -0.138  12.293  19.610  0.00  0.00    +0.000 C 
ATOM     23  O   UNL     1      -0.090  11.952  20.790  0.00  0.00    +0.000 OA
ATOM     24  N   UNL     1      -0.803  13.428  19.180  0.00  0.00    +0.000 N 
ATOM     25  H   UNL     1       0.688  12.135  17.751  0.00  0.00    +0.000 HD
ATOM     26  H   UNL     1      -1.217  13.344  18.262  0.00  0.00    +0.000 HD
BRANCH  24  27
ATOM     27  C   UNL     1      -1.500  14.251  20.099  0.00  0.00    +0.000 A 
ATOM     28  C   UNL     1      -1.005  15.485  20.523  0.00  0.00    +0.000 A 
ATOM     29  C   UNL     1      -1.721  16.255  21.452  0.00  0.00    +0.000 A 
ATOM     30  C   UNL     1      -2.949  15.841  21.997  0.00  0.00    +0.000 A 
ATOM     31  C   UNL     1      -3.397  14.576  21.570  0.00  0.00    +0.000 A 
ATOM     32  C   UNL     1      -2.707  13.807  20.620  0.00  0.00    +0.000 A 
BRANCH  30  33
ATOM     33  N   UNL     1      -3.614  16.589  22.967  0.00  0.00    +0.000 N 
ATOM     34  C   UNL     1      -3.605  16.101  24.367  0.00  0.00    +0.000 C 
ATOM     35  C   UNL     1      -4.785  16.727  25.131  0.00  0.00    +0.000 C 
ATOM     36  O   UNL     1      -4.723  18.160  25.110  0.00  0.00    +0.000 OA
ATOM     37  C   UNL     1      -4.764  18.631  23.755  0.00  0.00    +0.000 C 
ATOM     38  C   UNL     1      -3.602  18.068  22.914  0.00  0.00    +0.000 C 
ENDBRANCH  30  33
ENDBRANCH  24  27
ENDBRANCH   4  21
TORSDOF 6
ENDMDL
MODEL 7
REMARK VINA RESULT:      -7.7      1.006      1.597
REMARK  Name = 
REMARK  7 active torsions:
REMARK  status: ('A' for Active; 'I' for Inactive)
REMARK    1  A    between atoms: C_1  and  O_2
REMARK    2  A    between atoms: O_2  and  C_3
REMARK    3  A    between atoms: C_6  and  C_7
REMARK    4  A    between atoms: C_10  and  N_11
REMARK    5  A    between atoms: N_14  and  C_15
REMARK    6  A    between atoms: C_18  and  N_19
REMARK    7  A    between atoms: C_30  and  N_31
REMARK                            x       y       z     vdW  Elec       q    Type
REMARK                         _______ _______ _______ _____ _____    ______ ____
ROOT
ATOM      1  C   UNL     1       2.209   7.298  19.308  0.00  0.00    +0.000 A 
ATOM      2  C   UNL     1       1.948   7.932  18.080  0.00  0.00    +0.000 A 
ATOM      3  C   UNL     1       1.276   9.157  18.015  0.00  0.00    +0.000 A 
ATOM      4  C   UNL     1       0.824   9.793  19.171  0.00  0.00    +0.000 A 
ATOM      5  C   UNL     1       1.112   9.206  20.405  0.00  0.00    +0.000 A 
ATOM      6  C   UNL     1       1.779   7.970  20.468  0.00  0.00    +0.000 A 
ENDROOT
BRANCH   1  10
ATOM      7  C   UNL     1       4.145   3.580  19.400  0.00  0.00    +0.000 A 
ATOM      8  C   UNL     1       2.987   3.841  20.103  0.00  0.00    +0.000 A 
ATOM      9  N   UNL     1       2.354   5.026  20.099  0.00  0.00    +0.000 NA
ATOM     10  C   UNL     1       2.920   6.003  19.366  0.00  0.00    +0.000 A 
ATOM     11  N   UNL     1       4.057   5.860  18.655  0.00  0.00    +0.000 NA
ATOM     12  C   UNL     1       4.661   4.649  18.651  0.00  0.00    +0.000 A 
BRANCH  12  13
ATOM     13  N   UNL     1       5.822   4.507  17.904  0.00  0.00    +0.000 N 
ATOM     14  C   UNL     1       7.064   5.166  18.319  0.00  0.00    +0.000 C 
ATOM     15  C   UNL     1       7.493   6.262  17.334  0.00  0.00    +0.000 C 
ATOM     16  O   UNL     1       7.516   5.782  15.978  0.00  0.00    +0.000 OA
ATOM     17  C   UNL     1       6.208   5.331  15.601  0.00  0.00    +0.000 C 
ATOM     18  C   UNL     1       5.737   4.163  16.479  0.00  0.00    +0.000 C 
ENDBRANCH  12  13
BRANCH   7  20
ATOM     19  C   UNL     1       4.998   1.757  20.681  0.00  0.00    +0.000 C 
ATOM     20  O   UNL     1       4.825   2.391  19.421  0.00  0.00    +0.000 OA
ENDBRANCH   7  20
ENDBRANCH   1  10
BRANCH   4  21
ATOM     21  N   UNL     1       0.092  11.008  19.135  0.00  0.00    +0.000 N 
ATOM     22  C   UNL     1      -0.034  11.862  20.221  0.00  0.00    +0.000 C 
ATOM     23  O   UNL     1       0.548  11.715  21.294  0.00  0.00    +0.000 OA
ATOM     24  N   UNL     1      -0.906  12.907  19.973  0.00  0.00    +0.000 N 
ATOM     25  H   UNL     1      -0.089  11.413  18.231  0.00  0.00    +0.000 HD
ATOM     26  H   UNL     1      -1.670  12.674  19.354  0.00  0.00    +0.000 HD
BRANCH  24  27
ATOM     27  C   UNL     1      -1.196  13.862  20.979  0.00  0.00    +0.000 A 
ATOM     28  C   UNL     1      -0.393  14.982  21.201  0.00  0.00    +0.000 A 
ATOM     29  C   UNL     1      -0.708  15.889  22.224  0.00  0.00    +0.000 A 
ATOM     30  C   UNL     1      -1.824  15.729  23.065  0.00  0.00    +0.000 A 
ATOM     31  C   UNL     1      -2.588  14.570  22.831  0.00  0.00    +0.000 A 
ATOM     32  C   UNL     1      -2.303  13.669  21.793  0.00  0.00    +0.000 A 
BRANCH  30  33
ATOM     33  N   UNL     1      -2.085  16.605  24.117  0.00  0.00    +0.000 N 
ATOM     34  C   UNL     1      -0.950  17.343  24.721  0.00  0.00    +0.000 C 
ATOM     35  C   UNL     1      -1.339  17.802  26.138  0.00  0.00    +0.000 C 
ATOM     36  O   UNL     1      -2.510  18.631  26.118  0.00  0.00    +0.000 OA
ATOM     37  C   UNL     1      -3.614  17.904  25.562  0.00  0.00    +0.000 C 
ATOM     38  C   UNL     1      -3.322  17.418  24.129  0.00  0.00    +0.000 C 
ENDBRANCH  30  33
ENDBRANCH  24  27
ENDBRANCH   4  21
TORSDOF 6
ENDMDL
MODEL 8
REMARK VINA RESULT:      -7.6      1.942      2.358
REMARK  Name = 
REMARK  7 active torsions:
REMARK  status: ('A' for Active; 'I' for Inactive)
REMARK    1  A    between atoms: C_1  and  O_2
REMARK    2  A    between atoms: O_2  and  C_3
REMARK    3  A    between atoms: C_6  and  C_7
REMARK    4  A    between atoms: C_10  and  N_11
REMARK    5  A    between atoms: N_14  and  C_15
REMARK    6  A    between atoms: C_18  and  N_19
REMARK    7  A    between atoms: C_30  and  N_31
REMARK                            x       y       z     vdW  Elec       q    Type
REMARK                         _______ _______ _______ _____ _____    ______ ____
ROOT
ATOM      1  C   UNL     1       2.340   7.384  19.126  0.00  0.00    +0.000 A 
ATOM      2  C   UNL     1       2.522   8.332  18.102  0.00  0.00    +0.000 A 
ATOM      3  C   UNL     1       1.971   9.615  18.184  0.00  0.00    +0.000 A 
ATOM      4  C   UNL     1       1.204  10.001  19.285  0.00  0.00    +0.000 A 
ATOM      5  C   UNL     1       1.048   9.093  20.334  0.00  0.00    +0.000 A 
ATOM      6  C   UNL     1       1.595   7.801  20.246  0.00  0.00    +0.000 A 
ENDROOT
BRANCH   1  10
ATOM      7  C   UNL     1       3.924   3.519  18.771  0.00  0.00    +0.000 A 
ATOM      8  C   UNL     1       2.753   3.791  19.447  0.00  0.00    +0.000 A 
ATOM      9  N   UNL     1       2.231   5.021  19.584  0.00  0.00    +0.000 NA
ATOM     10  C   UNL     1       2.927   6.031  19.030  0.00  0.00    +0.000 A 
ATOM     11  N   UNL     1       4.088   5.878  18.361  0.00  0.00    +0.000 NA
ATOM     12  C   UNL     1       4.580   4.626  18.211  0.00  0.00    +0.000 A 
BRANCH  12  13
ATOM     13  N   UNL     1       5.767   4.478  17.508  0.00  0.00    +0.000 N 
ATOM     14  C   UNL     1       6.962   5.238  17.888  0.00  0.00    +0.000 C 
ATOM     15  C   UNL     1       7.362   6.258  16.814  0.00  0.00    +0.000 C 
ATOM     16  O   UNL     1       7.449   5.656  15.511  0.00  0.00    +0.000 OA
ATOM     17  C   UNL     1       6.177   5.103  15.147  0.00  0.00    +0.000 C 
ATOM     18  C   UNL     1       5.741   3.998  16.120  0.00  0.00    +0.000 C 
ENDBRANCH  12  13
BRANCH   7  20
ATOM     19  C   UNL     1       4.273   1.352  19.707  0.00  0.00    +0.000 C 
ATOM     20  O   UNL     1       4.492   2.278  18.652  0.00  0.00    +0.000 OA
ENDBRANCH   7  20
ENDBRANCH   1  10
BRANCH   4  21
ATOM     21  N   UNL     1       0.586  11.275  19.372  0.00  0.00    +0.000 N 
ATOM     22  C   UNL     1       0.724  12.123  20.461  0.00  0.00    +0.000 C 
ATOM     23  O   UNL     1       1.466  11.912  21.418  0.00  0.00    +0.000 OA
ATOM     24  N   UNL     1      -0.083  13.243  20.364  0.00  0.00    +0.000 N 
ATOM     25  H   UNL     1       0.289  11.705  18.511  0.00  0.00    +0.000 HD
ATOM     26  H   UNL     1      -0.959  13.085  19.887  0.00  0.00    +0.000 HD
BRANCH  24  27
ATOM     27  C   UNL     1      -0.110  14.207  21.403  0.00  0.00    +0.000 A 
ATOM     28  C   UNL     1       0.704  15.340  21.394  0.00  0.00    +0.000 A 
ATOM     29  C   UNL     1       0.657  16.256  22.456  0.00  0.00    +0.000 A 
ATOM     30  C   UNL     1      -0.192  16.091  23.564  0.00  0.00    +0.000 A 
ATOM     31  C   UNL     1      -0.971  14.919  23.552  0.00  0.00    +0.000 A 
ATOM     32  C   UNL     1      -0.958  14.008  22.484  0.00  0.00    +0.000 A 
BRANCH  30  33
ATOM     33  N   UNL     1      -0.178  16.977  24.640  0.00  0.00    +0.000 N 
ATOM     34  C   UNL     1      -1.307  16.943  25.600  0.00  0.00    +0.000 C 
ATOM     35  C   UNL     1      -1.377  18.286  26.349  0.00  0.00    +0.000 C 
ATOM     36  O   UNL     1      -0.152  18.566  27.041  0.00  0.00    +0.000 OA
ATOM     37  C   UNL     1       0.934  18.630  26.106  0.00  0.00    +0.000 C 
ATOM     38  C   UNL     1       1.094  17.315  25.319  0.00  0.00    +0.000 C 
ENDBRANCH  30  33
ENDBRANCH  24  27
ENDBRANCH   4  21
TORSDOF 6
ENDMDL
MODEL 9
REMARK VINA RESULT:      -7.6      0.535      1.046
REMARK  Name = 
REMARK  7 active torsions:
REMARK  status: ('A' for Active; 'I' for Inactive)
REMARK    1  A    between atoms: C_1  and  O_2
REMARK    2  A    between atoms: O_2  and  C_3
REMARK    3  A    between atoms: C_6  and  C_7
REMARK    4  A    between atoms: C_10  and  N_11
REMARK    5  A    between atoms: N_14  and  C_15
REMARK    6  A    between atoms: C_18  and  N_19
REMARK    7  A    between atoms: C_30  and  N_31
REMARK                            x       y       z     vdW  Elec       q    Type
REMARK                         _______ _______ _______ _____ _____    ______ ____
ROOT
ATOM      1  C   UNL     1       2.205   7.529  19.208  0.00  0.00    +0.000 A 
ATOM      2  C   UNL     1       2.240   8.296  18.029  0.00  0.00    +0.000 A 
ATOM      3  C   UNL     1       1.601   9.538  17.943  0.00  0.00    +0.000 A 
ATOM      4  C   UNL     1       0.890  10.059  19.024  0.00  0.00    +0.000 A 
ATOM      5  C   UNL     1       0.880   9.337  20.219  0.00  0.00    +0.000 A 
ATOM      6  C   UNL     1       1.514   8.085  20.302  0.00  0.00    +0.000 A 
ENDROOT
BRANCH   1  10
ATOM      7  C   UNL     1       4.046   3.766  19.368  0.00  0.00    +0.000 A 
ATOM      8  C   UNL     1       2.905   4.074  20.078  0.00  0.00    +0.000 A 
ATOM      9  N   UNL     1       2.303   5.275  20.053  0.00  0.00    +0.000 NA
ATOM     10  C   UNL     1       2.883   6.218  19.289  0.00  0.00    +0.000 A 
ATOM     11  N   UNL     1       4.007   6.029  18.567  0.00  0.00    +0.000 NA
ATOM     12  C   UNL     1       4.579   4.802  18.586  0.00  0.00    +0.000 A 
BRANCH  12  13
ATOM     13  N   UNL     1       5.726   4.613  17.828  0.00  0.00    +0.000 N 
ATOM     14  C   UNL     1       6.981   5.279  18.189  0.00  0.00    +0.000 C 
ATOM     15  C   UNL     1       7.403   6.320  17.143  0.00  0.00    +0.000 C 
ATOM     16  O   UNL     1       7.399   5.774  15.813  0.00  0.00    +0.000 OA
ATOM     17  C   UNL     1       6.081   5.318  15.480  0.00  0.00    +0.000 C 
ATOM     18  C   UNL     1       5.614   4.199  16.423  0.00  0.00    +0.000 C 
ENDBRANCH  12  13
BRANCH   7  20
ATOM     19  C   UNL     1       4.018   1.431  18.876  0.00  0.00    +0.000 C 
ATOM     20  O   UNL     1       4.696   2.561  19.410  0.00  0.00    +0.000 OA
ENDBRANCH   7  20
ENDBRANCH   1  10
BRANCH   4  21
ATOM     21  N   UNL     1       0.185  11.288  18.950  0.00  0.00    +0.000 N 
ATOM     22  C   UNL     1      -0.247  11.994  20.064  0.00  0.00    +0.000 C 
ATOM     23  O   UNL     1       0.013  11.690  21.225  0.00  0.00    +0.000 OA
ATOM     24  N   UNL     1      -1.024  13.088  19.726  0.00  0.00    +0.000 N 
ATOM     25  H   UNL     1       0.261  11.814  18.095  0.00  0.00    +0.000 HD
ATOM     26  H   UNL     1      -1.583  12.961  18.894  0.00  0.00    +0.000 HD
BRANCH  24  27
ATOM     27  C   UNL     1      -1.593  13.910  20.732  0.00  0.00    +0.000 A 
ATOM     28  C   UNL     1      -1.590  13.552  22.080  0.00  0.00    +0.000 A 
ATOM     29  C   UNL     1      -2.185  14.388  23.037  0.00  0.00    +0.000 A 
ATOM     30  C   UNL     1      -2.802  15.606  22.703  0.00  0.00    +0.000 A 
ATOM     31  C   UNL     1      -2.814  15.914  21.330  0.00  0.00    +0.000 A 
ATOM     32  C   UNL     1      -2.198  15.103  20.364  0.00  0.00    +0.000 A 
BRANCH  30  33
ATOM     33  N   UNL     1      -3.444  16.392  23.658  0.00  0.00    +0.000 N 
ATOM     34  C   UNL     1      -4.868  16.113  23.964  0.00  0.00    +0.000 C 
ATOM     35  C   UNL     1      -5.507  17.364  24.593  0.00  0.00    +0.000 C 
ATOM     36  O   UNL     1      -4.817  17.764  25.786  0.00  0.00    +0.000 OA
ATOM     37  C   UNL     1      -3.448  18.064  25.481  0.00  0.00    +0.000 C 
ATOM     38  C   UNL     1      -2.717  16.857  24.862  0.00  0.00    +0.000 C 
ENDBRANCH  30  33
ENDBRANCH  24  27
ENDBRANCH   4  21
TORSDOF 6
ENDMDL
