MODEL 1
REMARK VINA RESULT:      -7.5      0.000      0.000
REMARK  Name = 
REMARK  9 active torsions:
REMARK  status: ('A' for Active; 'I' for Inactive)
REMARK    1  A    between atoms: C_1  and  O_2
REMARK    2  A    between atoms: O_2  and  C_3
REMARK    3  A    between atoms: C_10  and  C_11
REMARK    4  A    between atoms: C_11  and  C_12
REMARK    5  A    between atoms: C_12  and  N_13
REMARK    6  A    between atoms: N_13  and  C_14
REMARK    7  A    between atoms: N_13  and  C_15
REMARK    8  A    between atoms: C_16  and  C_17
REMARK    9  A    between atoms: C_17  and  C_18
REMARK                            x       y       z     vdW  Elec       q    Type
REMARK                         _______ _______ _______ _____ _____    ______ ____
ROOT
ATOM      1  C   UNL     1       6.612   5.385  15.751  0.00  0.00    +0.000 A 
ATOM      2  C   UNL     1       6.664   6.327  16.789  0.00  0.00    +0.000 A 
ATOM      3  C   UNL     1       5.650   6.385  17.765  0.00  0.00    +0.000 A 
ATOM      4  C   UNL     1       4.596   5.494  17.689  0.00  0.00    +0.000 A 
ATOM      5  C   UNL     1       4.569   4.544  16.664  0.00  0.00    +0.000 A 
ATOM      6  C   UNL     1       5.555   4.475  15.692  0.00  0.00    +0.000 A 
ATOM      7  C   UNL     1       3.361   3.687  16.795  0.00  0.00    +0.000 C 
ATOM      8  C   UNL     1       2.673   4.313  17.998  0.00  0.00    +0.000 C 
ATOM      9  C   UNL     1       3.382   5.350  18.501  0.00  0.00    +0.000 C 
ENDROOT
BRANCH   1  11
ATOM     10  C   UNL     1       7.083   4.572  13.569  0.00  0.00    +0.000 C 
ATOM     11  O   UNL     1       7.524   5.250  14.738  0.00  0.00    +0.000 OA
ENDBRANCH   1  11
BRANCH   8  12
ATOM     12  C   UNL     1       1.332   3.790  18.471  0.00  0.00    +0.000 C 
BRANCH  12  13
ATOM     13  C   UNL     1       1.426   2.386  19.109  0.00  0.00    +0.000 C 
BRANCH  13  14
ATOM     14  N   UNL     1       1.911   2.306  20.498  0.00  0.00    +0.000 NA
ATOM     15  C   UNL     1       3.368   2.398  20.586  0.00  0.00    +0.000 C 
ATOM     16  C   UNL     1       1.306   3.406  21.265  0.00  0.00    +0.000 C 
ENDBRANCH  13  14
ENDBRANCH  12  13
ENDBRANCH   8  12
BRANCH   9  17
ATOM     17  C   UNL     1       3.004   6.324  19.577  0.00  0.00    +0.000 C 
BRANCH  17  18
ATOM     18  C   UNL     1       2.267   7.574  19.164  0.00  0.00    +0.000 A 
ATOM     19  C   UNL     1       2.426   8.161  17.911  0.00  0.00    +0.000 A 
ATOM     20  N   UNL     1       1.890   9.363  17.581  0.00  0.00    +0.000 NA
ATOM     21  C   UNL     1       1.186   9.970  18.558  0.00  0.00    +0.000 A 
ATOM     22  C   UNL     1       1.009   9.398  19.804  0.00  0.00    +0.000 A 
ATOM     23  N   UNL     1       1.541   8.199  20.133  0.00  0.00    +0.000 NA
ENDBRANCH  17  18
ENDBRANCH   9  17
TORSDOF 6
ENDMDL
MODEL 2
REMARK VINA RESULT:      -7.5      3.057      5.697
REMARK  Name = 
REMARK  9 active torsions:
REMARK  status: ('A' for Active; 'I' for Inactive)
REMARK    1  A    between atoms: C_1  and  O_2
REMARK    2  A    between atoms: O_2  and  C_3
REMARK    3  A    between atoms: C_10  and  C_11
REMARK    4  A    between atoms: C_11  and  C_12
REMARK    5  A    between atoms: C_12  and  N_13
REMARK    6  A    between atoms: N_13  and  C_14
REMARK    7  A    between atoms: N_13  and  C_15
REMARK    8  A    between atoms: C_16  and  C_17
REMARK    9  A    between atoms: C_17  and  C_18
REMARK                            x       y       z     vdW  Elec       q    Type
REMARK                         _______ _______ _______ _____ _____    ______ ____
ROOT
ATOM      1  C   UNL     1       1.147  10.357  19.018  0.00  0.00    +0.000 A 
ATOM      2  C   UNL     1       1.784   9.904  17.853  0.00  0.00    +0.000 A 
ATOM      3  C   UNL     1       2.265   8.584  17.758  0.00  0.00    +0.000 A 
ATOM      4  C   UNL     1       2.098   7.732  18.833  0.00  0.00    +0.000 A 
ATOM      5  C   UNL     1       1.439   8.188  19.979  0.00  0.00    +0.000 A 
ATOM      6  C   UNL     1       0.964   9.484  20.093  0.00  0.00    +0.000 A 
ATOM      7  C   UNL     1       1.360   7.099  20.988  0.00  0.00    +0.000 C 
ATOM      8  C   UNL     1       2.112   5.978  20.287  0.00  0.00    +0.000 C 
ATOM      9  C   UNL     1       2.537   6.349  19.057  0.00  0.00    +0.000 C 
ENDROOT
BRANCH   1  11
ATOM     10  C   UNL     1       0.621  12.066  20.582  0.00  0.00    +0.000 C 
ATOM     11  O   UNL     1       0.662  11.620  19.233  0.00  0.00    +0.000 OA
ENDBRANCH   1  11
BRANCH   8  12
ATOM     12  C   UNL     1       2.343   4.656  20.989  0.00  0.00    +0.000 C 
BRANCH  12  13
ATOM     13  C   UNL     1       1.223   3.627  20.714  0.00  0.00    +0.000 C 
BRANCH  13  14
ATOM     14  N   UNL     1       1.571   2.451  19.897  0.00  0.00    +0.000 NA
ATOM     15  C   UNL     1       1.011   2.525  18.548  0.00  0.00    +0.000 C 
ATOM     16  C   UNL     1       3.037   2.362  19.813  0.00  0.00    +0.000 C 
ENDBRANCH  13  14
ENDBRANCH  12  13
ENDBRANCH   8  12
BRANCH   9  17
ATOM     17  C   UNL     1       3.427   5.614  18.100  0.00  0.00    +0.000 C 
BRANCH  17  18
ATOM     18  C   UNL     1       4.894   5.964  18.098  0.00  0.00    +0.000 A 
ATOM     19  C   UNL     1       5.496   6.676  17.062  0.00  0.00    +0.000 A 
ATOM     20  N   UNL     1       6.836   6.866  16.972  0.00  0.00    +0.000 NA
ATOM     21  C   UNL     1       7.567   6.308  17.958  0.00  0.00    +0.000 A 
ATOM     22  C   UNL     1       6.987   5.607  18.999  0.00  0.00    +0.000 A 
ATOM     23  N   UNL     1       5.650   5.419  19.092  0.00  0.00    +0.000 NA
ENDBRANCH  17  18
ENDBRANCH   9  17
TORSDOF 6
ENDMDL
MODEL 3
REMARK VINA RESULT:      -7.3      0.643      1.070
REMARK  Name = 
REMARK  9 active torsions:
REMARK  status: ('A' for Active; 'I' for Inactive)
REMARK    1  A    between atoms: C_1  and  O_2
REMARK    2  A    between atoms: O_2  and  C_3
REMARK    3  A    between atoms: C_10  and  C_11
REMARK    4  A    between atoms: C_11  and  C_12
REMARK    5  A    between atoms: C_12  and  N_13
REMARK    6  A    between atoms: N_13  and  C_14
REMARK    7  A    between atoms: N_13  and  C_15
REMARK    8  A    between atoms: C_16  and  C_17
REMARK    9  A    between atoms: C_17  and  C_18
REMARK                            x       y       z     vdW  Elec       q    Type
REMARK                         _______ _______ _______ _____ _____    ______ ____
ROOT
ATOM      1  C   UNL     1       6.880   5.393  15.750  0.00  0.00    +0.000 A 
ATOM      2  C   UNL     1       6.923   6.213  16.888  0.00  0.00    +0.000 A 
ATOM      3  C   UNL     1       5.890   6.179  17.845  0.00  0.00    +0.000 A 
ATOM      4  C   UNL     1       4.825   5.320  17.649  0.00  0.00    +0.000 A 
ATOM      5  C   UNL     1       4.806   4.489  16.525  0.00  0.00    +0.000 A 
ATOM      6  C   UNL     1       5.811   4.512  15.571  0.00  0.00    +0.000 A 
ATOM      7  C   UNL     1       3.583   3.643  16.537  0.00  0.00    +0.000 C 
ATOM      8  C   UNL     1       2.880   4.143  17.789  0.00  0.00    +0.000 C 
ATOM      9  C   UNL     1       3.593   5.107  18.418  0.00  0.00    +0.000 C 
ENDROOT
BRANCH   1  11
ATOM     10  C   UNL     1       7.349   4.952  13.464  0.00  0.00    +0.000 C 
ATOM     11  O   UNL     1       7.810   5.356  14.747  0.00  0.00    +0.000 OA
ENDBRANCH   1  11
BRANCH   8  12
ATOM     12  C   UNL     1       1.521   3.594  18.174  0.00  0.00    +0.000 C 
BRANCH  12  13
ATOM     13  C   UNL     1       1.614   2.291  19.001  0.00  0.00    +0.000 C 
BRANCH  13  14
ATOM     14  N   UNL     1       1.641   2.422  20.468  0.00  0.00    +0.000 NA
ATOM     15  C   UNL     1       3.004   2.473  20.997  0.00  0.00    +0.000 C 
ATOM     16  C   UNL     1       0.928   3.653  20.837  0.00  0.00    +0.000 C 
ENDBRANCH  13  14
ENDBRANCH  12  13
ENDBRANCH   8  12
BRANCH   9  17
ATOM     17  C   UNL     1       3.206   5.961  19.587  0.00  0.00    +0.000 C 
BRANCH  17  18
ATOM     18  C   UNL     1       2.554   7.291  19.299  0.00  0.00    +0.000 A 
ATOM     19  C   UNL     1       1.788   7.972  20.242  0.00  0.00    +0.000 A 
ATOM     20  N   UNL     1       1.073   9.088  19.952  0.00  0.00    +0.000 NA
ATOM     21  C   UNL     1       1.142   9.502  18.670  0.00  0.00    +0.000 A 
ATOM     22  C   UNL     1       1.904   8.845  17.723  0.00  0.00    +0.000 A 
ATOM     23  N   UNL     1       2.620   7.733  18.012  0.00  0.00    +0.000 NA
ENDBRANCH  17  18
ENDBRANCH   9  17
TORSDOF 6
ENDMDL
MODEL 4
REMARK VINA RESULT:      -7.3      2.991      6.435
REMARK  Name = 
REMARK  9 active torsions:
REMARK  status: ('A' for Active; 'I' for Inactive)
REMARK    1  A    between atoms: C_1  and  O_2
REMARK    2  A    between atoms: O_2  and  C_3
REMARK    3  A    between atoms: C_10  and  C_11
REMARK    4  A    between atoms: C_11  and  C_12
REMARK    5  A    between atoms: C_12  and  N_13
REMARK    6  A    between atoms: N_13  and  C_14
REMARK    7  A    between atoms: N_13  and  C_15
REMARK    8  A    between atoms: C_16  and  C_17
REMARK    9  A    between atoms: C_17  and  C_18
REMARK                            x       y       z     vdW  Elec       q    Type
REMARK                         _______ _______ _______ _____ _____    ______ ____
ROOT
ATOM      1  C   UNL     1       0.576   9.452  19.892  0.00  0.00    +0.000 A 
ATOM      2  C   UNL     1       0.799   8.461  20.860  0.00  0.00    +0.000 A 
ATOM      3  C   UNL     1       1.735   7.432  20.640  0.00  0.00    +0.000 A 
ATOM      4  C   UNL     1       2.440   7.413  19.451  0.00  0.00    +0.000 A 
ATOM      5  C   UNL     1       2.227   8.420  18.506  0.00  0.00    +0.000 A 
ATOM      6  C   UNL     1       1.307   9.437  18.703  0.00  0.00    +0.000 A 
ATOM      7  C   UNL     1       3.105   8.205  17.325  0.00  0.00    +0.000 C 
ATOM      8  C   UNL     1       3.805   6.908  17.698  0.00  0.00    +0.000 C 
ATOM      9  C   UNL     1       3.416   6.456  18.914  0.00  0.00    +0.000 C 
ENDROOT
BRANCH   1  11
ATOM     10  C   UNL     1      -1.269  10.600  18.933  0.00  0.00    +0.000 C 
ATOM     11  O   UNL     1      -0.321  10.483  19.986  0.00  0.00    +0.000 OA
ENDBRANCH   1  11
BRANCH   8  12
ATOM     12  C   UNL     1       4.774   6.255  16.733  0.00  0.00    +0.000 C 
BRANCH  12  13
ATOM     13  C   UNL     1       6.244   6.649  17.001  0.00  0.00    +0.000 C 
BRANCH  13  14
ATOM     14  N   UNL     1       7.282   5.667  16.642  0.00  0.00    +0.000 NA
ATOM     15  C   UNL     1       7.480   4.659  17.682  0.00  0.00    +0.000 C 
ATOM     16  C   UNL     1       6.882   5.006  15.390  0.00  0.00    +0.000 C 
ENDBRANCH  13  14
ENDBRANCH  12  13
ENDBRANCH   8  12
BRANCH   9  17
ATOM     17  C   UNL     1       3.742   5.160  19.592  0.00  0.00    +0.000 C 
BRANCH  17  18
ATOM     18  C   UNL     1       2.806   3.997  19.370  0.00  0.00    +0.000 A 
ATOM     19  C   UNL     1       2.693   3.347  18.143  0.00  0.00    +0.000 A 
ATOM     20  N   UNL     1       1.752   2.405  17.886  0.00  0.00    +0.000 NA
ATOM     21  C   UNL     1       0.911   2.134  18.905  0.00  0.00    +0.000 A 
ATOM     22  C   UNL     1       1.014   2.762  20.132  0.00  0.00    +0.000 A 
ATOM     23  N   UNL     1       1.954   3.700  20.391  0.00  0.00    +0.000 NA
ENDBRANCH  17  18
ENDBRANCH   9  17
TORSDOF 6
ENDMDL
MODEL 5
REMARK VINA RESULT:      -7.2      3.140      6.619
REMARK  Name = 
REMARK  9 active torsions:
REMARK  status: ('A' for Active; 'I' for Inactive)
REMARK    1  A    between atoms: C_1  and  O_2
REMARK    2  A    between atoms: O_2  and  C_3
REMARK    3  A    between atoms: C_10  and  C_11
REMARK    4  A    between atoms: C_11  and  C_12
REMARK    5  A    between atoms: C_12  and  N_13
REMARK    6  A    between atoms: N_13  and  C_14
REMARK    7  A    between atoms: N_13  and  C_15
REMARK    8  A    between atoms: C_16  and  C_17
REMARK    9  A    between atoms: C_17  and  C_18
REMARK                            x       y       z     vdW  Elec       q    Type
REMARK                         _______ _______ _______ _____ _____    ______ ____
ROOT
ATOM      1  C   UNL     1       0.203   9.674  20.314  0.00  0.00    +0.000 A 
ATOM      2  C   UNL     1       0.493   8.662  21.242  0.00  0.00    +0.000 A 
ATOM      3  C   UNL     1       1.437   7.659  20.948  0.00  0.00    +0.000 A 
ATOM      4  C   UNL     1       2.082   7.686  19.726  0.00  0.00    +0.000 A 
ATOM      5  C   UNL     1       1.804   8.714  18.821  0.00  0.00    +0.000 A 
ATOM      6  C   UNL     1       0.875   9.706  19.091  0.00  0.00    +0.000 A 
ATOM      7  C   UNL     1       2.627   8.549  17.593  0.00  0.00    +0.000 C 
ATOM      8  C   UNL     1       3.369   7.257  17.896  0.00  0.00    +0.000 C 
ATOM      9  C   UNL     1       3.049   6.765  19.116  0.00  0.00    +0.000 C 
ENDROOT
BRANCH   1  11
ATOM     10  C   UNL     1      -0.815  11.237  21.785  0.00  0.00    +0.000 C 
ATOM     11  O   UNL     1      -0.708  10.683  20.480  0.00  0.00    +0.000 OA
ENDBRANCH   1  11
BRANCH   8  12
ATOM     12  C   UNL     1       4.302   6.651  16.867  0.00  0.00    +0.000 C 
BRANCH  12  13
ATOM     13  C   UNL     1       5.793   6.835  17.227  0.00  0.00    +0.000 C 
BRANCH  13  14
ATOM     14  N   UNL     1       6.495   5.679  17.813  0.00  0.00    +0.000 NA
ATOM     15  C   UNL     1       7.034   4.780  16.793  0.00  0.00    +0.000 C 
ATOM     16  C   UNL     1       7.593   6.180  18.653  0.00  0.00    +0.000 C 
ENDBRANCH  13  14
ENDBRANCH  12  13
ENDBRANCH   8  12
BRANCH   9  17
ATOM     17  C   UNL     1       3.433   5.458  19.741  0.00  0.00    +0.000 C 
BRANCH  17  18
ATOM     18  C   UNL     1       2.598   4.247  19.404  0.00  0.00    +0.000 A 
ATOM     19  C   UNL     1       2.646   3.623  18.160  0.00  0.00    +0.000 A 
ATOM     20  N   UNL     1       1.796   2.633  17.792  0.00  0.00    +0.000 NA
ATOM     21  C   UNL     1       0.877   2.286  18.716  0.00  0.00    +0.000 A 
ATOM     22  C   UNL     1       0.819   2.887  19.959  0.00  0.00    +0.000 A 
ATOM     23  N   UNL     1       1.669   3.873  20.329  0.00  0.00    +0.000 NA
ENDBRANCH  17  18
ENDBRANCH   9  17
TORSDOF 6
ENDMDL
MODEL 6
REMARK VINA RESULT:      -7.2      3.018      5.766
REMARK  Name = 
REMARK  9 active torsions:
REMARK  status: ('A' for Active; 'I' for Inactive)
REMARK    1  A    between atoms: C_1  and  O_2
REMARK    2  A    between atoms: O_2  and  C_3
REMARK    3  A    between atoms: C_10  and  C_11
REMARK    4  A    between atoms: C_11  and  C_12
REMARK    5  A    between atoms: C_12  and  N_13
REMARK    6  A    between atoms: N_13  and  C_14
REMARK    7  A    between atoms: N_13  and  C_15
REMARK    8  A    between atoms: C_16  and  C_17
REMARK    9  A    between atoms: C_17  and  C_18
REMARK                            x       y       z     vdW  Elec       q    Type
REMARK                         _______ _______ _______ _____ _____    ______ ____
ROOT
ATOM      1  C   UNL     1       1.352  10.424  19.082  0.00  0.00    +0.000 A 
ATOM      2  C   UNL     1       1.894   9.966  17.871  0.00  0.00    +0.000 A 
ATOM      3  C   UNL     1       2.305   8.628  17.722  0.00  0.00    +0.000 A 
ATOM      4  C   UNL     1       2.163   7.762  18.790  0.00  0.00    +0.000 A 
ATOM      5  C   UNL     1       1.599   8.223  19.982  0.00  0.00    +0.000 A 
ATOM      6  C   UNL     1       1.194   9.538  20.149  0.00  0.00    +0.000 A 
ATOM      7  C   UNL     1       1.529   7.117  20.975  0.00  0.00    +0.000 C 
ATOM      8  C   UNL     1       2.183   5.979  20.208  0.00  0.00    +0.000 C 
ATOM      9  C   UNL     1       2.549   6.356  18.960  0.00  0.00    +0.000 C 
ENDROOT
BRANCH   1  11
ATOM     10  C   UNL     1      -0.138  12.201  18.570  0.00  0.00    +0.000 C 
ATOM     11  O   UNL     1       0.941  11.702  19.350  0.00  0.00    +0.000 OA
ENDBRANCH   1  11
BRANCH   8  12
ATOM     12  C   UNL     1       2.394   4.632  20.869  0.00  0.00    +0.000 C 
BRANCH  12  13
ATOM     13  C   UNL     1       1.208   3.665  20.652  0.00  0.00    +0.000 C 
BRANCH  13  14
ATOM     14  N   UNL     1       1.466   2.445  19.868  0.00  0.00    +0.000 NA
ATOM     15  C   UNL     1       0.777   2.457  18.577  0.00  0.00    +0.000 C 
ATOM     16  C   UNL     1       2.915   2.333  19.646  0.00  0.00    +0.000 C 
ENDBRANCH  13  14
ENDBRANCH  12  13
ENDBRANCH   8  12
BRANCH   9  17
ATOM     17  C   UNL     1       3.343   5.601  17.937  0.00  0.00    +0.000 C 
BRANCH  17  18
ATOM     18  C   UNL     1       4.835   5.500  18.141  0.00  0.00    +0.000 A 
ATOM     19  C   UNL     1       5.413   5.357  19.400  0.00  0.00    +0.000 A 
ATOM     20  N   UNL     1       6.751   5.418  19.614  0.00  0.00    +0.000 NA
ATOM     21  C   UNL     1       7.503   5.638  18.515  0.00  0.00    +0.000 A 
ATOM     22  C   UNL     1       6.948   5.773  17.257  0.00  0.00    +0.000 A 
ATOM     23  N   UNL     1       5.614   5.709  17.042  0.00  0.00    +0.000 NA
ENDBRANCH  17  18
ENDBRANCH   9  17
TORSDOF 6
ENDMDL
MODEL 7
REMARK VINA RESULT:      -7.2      3.121      5.689
REMARK  Name = 
REMARK  9 active torsions:
REMARK  status: ('A' for Active; 'I' for Inactive)
REMARK    1  A    between atoms: C_1  and  O_2
REMARK    2  A    between atoms: O_2  and  C_3
REMARK    3  A    between atoms: C_10  and  C_11
REMARK    4  A    between atoms: C_11  and  C_12
REMARK    5  A    between atoms: C_12  and  N_13
REMARK    6  A    between atoms: N_13  and  C_14
REMARK    7  A    between atoms: N_13  and  C_15
REMARK    8  A    between atoms: C_16  and  C_17
REMARK    9  A    between atoms: C_17  and  C_18
REMARK                            x       y       z     vdW  Elec       q    Type
REMARK                         _______ _______ _______ _____ _____    ______ ____
ROOT
ATOM      1  C   UNL     1       1.066   9.453  19.668  0.00  0.00    +0.000 A 
ATOM      2  C   UNL     1       1.746   9.392  18.443  0.00  0.00    +0.000 A 
ATOM      3  C   UNL     1       2.450   8.233  18.063  0.00  0.00    +0.000 A 
ATOM      4  C   UNL     1       2.461   7.147  18.917  0.00  0.00    +0.000 A 
ATOM      5  C   UNL     1       1.758   7.210  20.123  0.00  0.00    +0.000 A 
ATOM      6  C   UNL     1       1.064   8.344  20.516  0.00  0.00    +0.000 A 
ATOM      7  C   UNL     1       1.895   5.927  20.861  0.00  0.00    +0.000 C 
ATOM      8  C   UNL     1       2.817   5.143  19.941  0.00  0.00    +0.000 C 
ATOM      9  C   UNL     1       3.142   5.849  18.832  0.00  0.00    +0.000 C 
ENDROOT
BRANCH   1  11
ATOM     10  C   UNL     1       0.175  11.616  19.257  0.00  0.00    +0.000 C 
ATOM     11  O   UNL     1       0.370  10.529  20.152  0.00  0.00    +0.000 OA
ENDBRANCH   1  11
BRANCH   8  12
ATOM     12  C   UNL     1       3.294   3.759  20.332  0.00  0.00    +0.000 C 
BRANCH  12  13
ATOM     13  C   UNL     1       2.133   2.759  20.532  0.00  0.00    +0.000 C 
BRANCH  13  14
ATOM     14  N   UNL     1       1.775   1.902  19.389  0.00  0.00    +0.000 NA
ATOM     15  C   UNL     1       0.634   2.425  18.637  0.00  0.00    +0.000 C 
ATOM     16  C   UNL     1       2.942   1.804  18.499  0.00  0.00    +0.000 C 
ENDBRANCH  13  14
ENDBRANCH  12  13
ENDBRANCH   8  12
BRANCH   9  17
ATOM     17  C   UNL     1       4.126   5.516  17.751  0.00  0.00    +0.000 C 
BRANCH  17  18
ATOM     18  C   UNL     1       5.581   5.822  18.009  0.00  0.00    +0.000 A 
ATOM     19  C   UNL     1       6.298   5.239  19.052  0.00  0.00    +0.000 A 
ATOM     20  N   UNL     1       7.557   5.616  19.389  0.00  0.00    +0.000 NA
ATOM     21  C   UNL     1       8.081   6.613  18.646  0.00  0.00    +0.000 A 
ATOM     22  C   UNL     1       7.388   7.197  17.602  0.00  0.00    +0.000 A 
ATOM     23  N   UNL     1       6.133   6.820  17.263  0.00  0.00    +0.000 NA
ENDBRANCH  17  18
ENDBRANCH   9  17
TORSDOF 6
ENDMDL
MODEL 8
REMARK VINA RESULT:      -7.2      3.263      6.605
REMARK  Name = 
REMARK  9 active torsions:
REMARK  status: ('A' for Active; 'I' for Inactive)
REMARK    1  A    between atoms: C_1  and  O_2
REMARK    2  A    between atoms: O_2  and  C_3
REMARK    3  A    between atoms: C_10  and  C_11
REMARK    4  A    between atoms: C_11  and  C_12
REMARK    5  A    between atoms: C_12  and  N_13
REMARK    6  A    between atoms: N_13  and  C_14
REMARK    7  A    between atoms: N_13  and  C_15
REMARK    8  A    between atoms: C_16  and  C_17
REMARK    9  A    between atoms: C_17  and  C_18
REMARK                            x       y       z     vdW  Elec       q    Type
REMARK                         _______ _______ _______ _____ _____    ______ ____
ROOT
ATOM      1  C   UNL     1       0.169   9.806  20.183  0.00  0.00    +0.000 A 
ATOM      2  C   UNL     1       0.402   8.847  21.180  0.00  0.00    +0.000 A 
ATOM      3  C   UNL     1       1.315   7.795  20.974  0.00  0.00    +0.000 A 
ATOM      4  C   UNL     1       1.989   7.721  19.770  0.00  0.00    +0.000 A 
ATOM      5  C   UNL     1       1.768   8.697  18.794  0.00  0.00    +0.000 A 
ATOM      6  C   UNL     1       0.869   9.735  18.977  0.00  0.00    +0.000 A 
ATOM      7  C   UNL     1       2.612   8.425  17.600  0.00  0.00    +0.000 C 
ATOM      8  C   UNL     1       3.301   7.130  18.003  0.00  0.00    +0.000 C 
ATOM      9  C   UNL     1       2.936   6.729  19.244  0.00  0.00    +0.000 C 
ENDROOT
BRANCH   1  11
ATOM     10  C   UNL     1      -0.962  11.564  19.056  0.00  0.00    +0.000 C 
ATOM     11  O   UNL     1      -0.708  10.854  20.261  0.00  0.00    +0.000 OA
ENDBRANCH   1  11
BRANCH   8  12
ATOM     12  C   UNL     1       4.234   6.427  17.039  0.00  0.00    +0.000 C 
BRANCH  12  13
ATOM     13  C   UNL     1       5.722   6.578  17.427  0.00  0.00    +0.000 C 
BRANCH  13  14
ATOM     14  N   UNL     1       6.409   5.385  17.950  0.00  0.00    +0.000 NA
ATOM     15  C   UNL     1       7.093   4.630  16.899  0.00  0.00    +0.000 C 
ATOM     16  C   UNL     1       7.389   5.817  18.957  0.00  0.00    +0.000 C 
ENDBRANCH  13  14
ENDBRANCH  12  13
ENDBRANCH   8  12
BRANCH   9  17
ATOM     17  C   UNL     1       3.258   5.453  19.961  0.00  0.00    +0.000 C 
BRANCH  17  18
ATOM     18  C   UNL     1       2.652   4.178  19.429  0.00  0.00    +0.000 A 
ATOM     19  C   UNL     1       1.286   3.912  19.491  0.00  0.00    +0.000 A 
ATOM     20  N   UNL     1       0.747   2.712  19.158  0.00  0.00    +0.000 NA
ATOM     21  C   UNL     1       1.629   1.771  18.763  0.00  0.00    +0.000 A 
ATOM     22  C   UNL     1       2.987   2.020  18.686  0.00  0.00    +0.000 A 
ATOM     23  N   UNL     1       3.525   3.217  19.015  0.00  0.00    +0.000 NA
ENDBRANCH  17  18
ENDBRANCH   9  17
TORSDOF 6
ENDMDL
MODEL 9
REMARK VINA RESULT:      -7.1      3.136      5.751
REMARK  Name = 
REMARK  9 active torsions:
REMARK  status: ('A' for Active; 'I' for Inactive)
REMARK    1  A    between atoms: C_1  and  O_2
REMARK    2  A    between atoms: O_2  and  C_3
REMARK    3  A    between atoms: C_10  and  C_11
REMARK    4  A    between atoms: C_11  and  C_12
REMARK    5  A    between atoms: C_12  and  N_13
REMARK    6  A    between atoms: N_13  and  C_14
REMARK    7  A    between atoms: N_13  and  C_15
REMARK    8  A    between atoms: C_16  and  C_17
REMARK    9  A    between atoms: C_17  and  C_18
REMARK                            x       y       z     vdW  Elec       q    Type
REMARK                         _______ _______ _______ _____ _____    ______ ____
ROOT
ATOM      1  C   UNL     1       1.240  10.179  19.118  0.00  0.00    +0.000 A 
ATOM      2  C   UNL     1       1.918   9.867  17.930  0.00  0.00    +0.000 A 
ATOM      3  C   UNL     1       2.470   8.589  17.725  0.00  0.00    +0.000 A 
ATOM      4  C   UNL     1       2.332   7.634  18.715  0.00  0.00    +0.000 A 
ATOM      5  C   UNL     1       1.633   7.948  19.883  0.00  0.00    +0.000 A 
ATOM      6  C   UNL     1       1.087   9.203  20.105  0.00  0.00    +0.000 A 
ATOM      7  C   UNL     1       1.596   6.768  20.788  0.00  0.00    +0.000 C 
ATOM      8  C   UNL     1       2.417   5.758  20.004  0.00  0.00    +0.000 C 
ATOM      9  C   UNL     1       2.841   6.261  18.820  0.00  0.00    +0.000 C 
ENDROOT
BRANCH   1  11
ATOM     10  C   UNL     1       0.310  11.581  20.795  0.00  0.00    +0.000 C 
ATOM     11  O   UNL     1       0.685  11.389  19.437  0.00  0.00    +0.000 OA
ENDBRANCH   1  11
BRANCH   8  12
ATOM     12  C   UNL     1       2.708   4.390  20.587  0.00  0.00    +0.000 C 
BRANCH  12  13
ATOM     13  C   UNL     1       2.556   3.252  19.552  0.00  0.00    +0.000 C 
BRANCH  13  14
ATOM     14  N   UNL     1       3.779   2.531  19.156  0.00  0.00    +0.000 NA
ATOM     15  C   UNL     1       4.512   2.005  20.308  0.00  0.00    +0.000 C 
ATOM     16  C   UNL     1       3.396   1.420  18.272  0.00  0.00    +0.000 C 
ENDBRANCH  13  14
ENDBRANCH  12  13
ENDBRANCH   8  12
BRANCH   9  17
ATOM     17  C   UNL     1       3.784   5.664  17.819  0.00  0.00    +0.000 C 
BRANCH  17  18
ATOM     18  C   UNL     1       5.263   5.857  18.047  0.00  0.00    +0.000 A 
ATOM     19  C   UNL     1       5.942   5.270  19.112  0.00  0.00    +0.000 A 
ATOM     20  N   UNL     1       7.233   5.555  19.416  0.00  0.00    +0.000 NA
ATOM     21  C   UNL     1       7.829   6.463  18.617  0.00  0.00    +0.000 A 
ATOM     22  C   UNL     1       7.174   7.049  17.550  0.00  0.00    +0.000 A 
ATOM     23  N   UNL     1       5.887   6.764  17.244  0.00  0.00    +0.000 NA
ENDBRANCH  17  18
ENDBRANCH   9  17
TORSDOF 6
ENDMDL
