MODEL 1
REMARK VINA RESULT:      -8.9      0.000      0.000
REMARK  Name = 
REMARK  8 active torsions:
REMARK  status: ('A' for Active; 'I' for Inactive)
REMARK    1  A    between atoms: C_1  and  C_2
REMARK    2  A    between atoms: C_4  and  C_5
REMARK    3  A    between atoms: C_7  and  C_8
REMARK    4  A    between atoms: C_13  and  N_14
REMARK    5  A    between atoms: N_14  and  C_15
REMARK    6  A    between atoms: C_15  and  C_16
REMARK    7  A    between atoms: C_27  and  C_28
REMARK    8  A    between atoms: C_28  and  C_29
REMARK                            x       y       z     vdW  Elec       q    Type
REMARK                         _______ _______ _______ _____ _____    ______ ____
ROOT
ATOM      1  C   UNL     1      -0.458  10.861  22.403  0.00  0.00    +0.000 C 
ATOM      2  O   UNL     1      -0.150  10.473  23.528  0.00  0.00    +0.000 OA
ATOM      3  N   UNL     1      -0.469  10.014  21.272  0.00  0.00    +0.000 N 
ATOM      4  C   UNL     1      -0.309   8.567  21.479  0.00  0.00    +0.000 C 
ATOM      5  C   UNL     1       1.022   7.997  20.954  0.00  0.00    +0.000 C 
ATOM      6  C   UNL     1       1.321   8.497  19.533  0.00  0.00    +0.000 C 
ATOM      7  C   UNL     1       1.286  10.027  19.603  0.00  0.00    +0.000 C 
ATOM      8  C   UNL     1      -0.122  10.523  19.925  0.00  0.00    +0.000 C 
ENDROOT
BRANCH   1  15
ATOM      9  C   UNL     1      -4.085  14.337  22.440  0.00  0.00    +0.000 C 
ATOM     10  C   UNL     1      -2.634  13.985  22.292  0.00  0.00    +0.000 A 
ATOM     11  C   UNL     1      -1.694  14.952  21.924  0.00  0.00    +0.000 A 
ATOM     12  C   UNL     1      -0.341  14.617  21.769  0.00  0.00    +0.000 A 
ATOM     13  C   UNL     1       0.667  15.690  21.471  0.00  0.00    +0.000 C 
ATOM     14  C   UNL     1       0.059  13.276  21.914  0.00  0.00    +0.000 A 
ATOM     15  C   UNL     1      -0.881  12.290  22.246  0.00  0.00    +0.000 A 
ATOM     16  C   UNL     1      -2.208  12.666  22.485  0.00  0.00    +0.000 A 
ENDBRANCH   1  15
BRANCH   6  17
ATOM     17  N   UNL     1       2.618   8.071  18.982  0.00  0.00    +0.000 NA
ATOM     18  H   UNL     1       3.033   8.852  18.470  0.00  0.00    +0.000 HD
BRANCH  17  19
ATOM     19  C   UNL     1       2.500   6.948  18.052  0.00  0.00    +0.000 C 
BRANCH  19  20
ATOM     20  C   UNL     1       3.328   5.765  18.505  0.00  0.00    +0.000 A 
ATOM     21  C   UNL     1       4.664   5.712  18.084  0.00  0.00    +0.000 A 
ATOM     22  C   UNL     1       5.463   4.681  18.531  0.00  0.00    +0.000 A 
ATOM     23  N   UNL     1       5.040   3.702  19.351  0.00  0.00    +0.000 NA
ATOM     24  C   UNL     1       3.754   3.717  19.736  0.00  0.00    +0.000 A 
ATOM     25  C   UNL     1       3.325   2.703  20.578  0.00  0.00    +0.000 A 
ATOM     26  C   UNL     1       2.007   2.620  21.026  0.00  0.00    +0.000 A 
ATOM     27  C   UNL     1       1.086   3.574  20.622  0.00  0.00    +0.000 A 
ATOM     28  C   UNL     1       1.493   4.616  19.784  0.00  0.00    +0.000 A 
ATOM     29  C   UNL     1       2.834   4.719  19.332  0.00  0.00    +0.000 A 
ENDBRANCH  19  20
ENDBRANCH  17  19
ENDBRANCH   6  17
BRANCH   8  30
ATOM     30  C   UNL     1      -1.183  10.196  18.855  0.00  0.00    +0.000 C 
BRANCH  30  31
ATOM     31  C   UNL     1      -1.932  11.351  18.120  0.00  0.00    +0.000 C 
ATOM     32  C   UNL     1      -2.500  10.988  16.750  0.00  0.00    +0.000 C 
ATOM     33  C   UNL     1      -3.856  10.308  16.788  0.00  0.00    +0.000 C 
ATOM     34  C   UNL     1      -4.900  11.078  17.580  0.00  0.00    +0.000 C 
ATOM     35  C   UNL     1      -4.427  11.851  18.811  0.00  0.00    +0.000 C 
ATOM     36  C   UNL     1      -2.937  12.174  18.937  0.00  0.00    +0.000 C 
ENDBRANCH  30  31
ENDBRANCH   8  30
TORSDOF 6
ENDMDL
MODEL 2
REMARK VINA RESULT:      -8.8      0.240      1.460
REMARK  Name = 
REMARK  8 active torsions:
REMARK  status: ('A' for Active; 'I' for Inactive)
REMARK    1  A    between atoms: C_1  and  C_2
REMARK    2  A    between atoms: C_4  and  C_5
REMARK    3  A    between atoms: C_7  and  C_8
REMARK    4  A    between atoms: C_13  and  N_14
REMARK    5  A    between atoms: N_14  and  C_15
REMARK    6  A    between atoms: C_15  and  C_16
REMARK    7  A    between atoms: C_27  and  C_28
REMARK    8  A    between atoms: C_28  and  C_29
REMARK                            x       y       z     vdW  Elec       q    Type
REMARK                         _______ _______ _______ _____ _____    ______ ____
ROOT
ATOM      1  C   UNL     1      -0.510  10.744  22.437  0.00  0.00    +0.000 C 
ATOM      2  O   UNL     1      -0.183  10.344  23.553  0.00  0.00    +0.000 OA
ATOM      3  N   UNL     1      -0.503   9.917  21.291  0.00  0.00    +0.000 N 
ATOM      4  C   UNL     1      -0.297   8.472  21.470  0.00  0.00    +0.000 C 
ATOM      5  C   UNL     1       1.047   7.954  20.925  0.00  0.00    +0.000 C 
ATOM      6  C   UNL     1       1.320   8.489  19.512  0.00  0.00    +0.000 C 
ATOM      7  C   UNL     1       1.238  10.016  19.611  0.00  0.00    +0.000 C 
ATOM      8  C   UNL     1      -0.182  10.462  19.951  0.00  0.00    +0.000 C 
ENDROOT
BRANCH   1  15
ATOM      9  C   UNL     1       0.545  15.645  22.104  0.00  0.00    +0.000 C 
ATOM     10  C   UNL     1      -0.469  14.539  22.118  0.00  0.00    +0.000 A 
ATOM     11  C   UNL     1      -1.838  14.820  22.104  0.00  0.00    +0.000 A 
ATOM     12  C   UNL     1      -2.785  13.786  22.135  0.00  0.00    +0.000 A 
ATOM     13  C   UNL     1      -4.248  14.105  22.019  0.00  0.00    +0.000 C 
ATOM     14  C   UNL     1      -2.349  12.454  22.256  0.00  0.00    +0.000 A 
ATOM     15  C   UNL     1      -0.978  12.162  22.309  0.00  0.00    +0.000 A 
ATOM     16  C   UNL     1      -0.053  13.204  22.184  0.00  0.00    +0.000 A 
ENDBRANCH   1  15
BRANCH   6  17
ATOM     17  N   UNL     1       2.626   8.114  18.944  0.00  0.00    +0.000 NA
ATOM     18  H   UNL     1       3.007   8.912  18.433  0.00  0.00    +0.000 HD
BRANCH  17  19
ATOM     19  C   UNL     1       2.538   6.992  18.009  0.00  0.00    +0.000 C 
BRANCH  19  20
ATOM     20  C   UNL     1       3.353   5.809  18.487  0.00  0.00    +0.000 A 
ATOM     21  C   UNL     1       4.709   5.774  18.136  0.00  0.00    +0.000 A 
ATOM     22  C   UNL     1       5.492   4.743  18.607  0.00  0.00    +0.000 A 
ATOM     23  N   UNL     1       5.037   3.747  19.389  0.00  0.00    +0.000 NA
ATOM     24  C   UNL     1       3.732   3.745  19.706  0.00  0.00    +0.000 A 
ATOM     25  C   UNL     1       3.269   2.714  20.509  0.00  0.00    +0.000 A 
ATOM     26  C   UNL     1       1.930   2.613  20.886  0.00  0.00    +0.000 A 
ATOM     27  C   UNL     1       1.023   3.566  20.448  0.00  0.00    +0.000 A 
ATOM     28  C   UNL     1       1.464   4.624  19.650  0.00  0.00    +0.000 A 
ATOM     29  C   UNL     1       2.825   4.745  19.270  0.00  0.00    +0.000 A 
ENDBRANCH  19  20
ENDBRANCH  17  19
ENDBRANCH   6  17
BRANCH   8  30
ATOM     30  C   UNL     1      -1.240  10.122  18.882  0.00  0.00    +0.000 C 
BRANCH  30  31
ATOM     31  C   UNL     1      -1.906  11.264  18.053  0.00  0.00    +0.000 C 
ATOM     32  C   UNL     1      -2.308  10.883  16.630  0.00  0.00    +0.000 C 
ATOM     33  C   UNL     1      -3.655  10.192  16.517  0.00  0.00    +0.000 C 
ATOM     34  C   UNL     1      -4.790  10.960  17.175  0.00  0.00    +0.000 C 
ATOM     35  C   UNL     1      -4.469  11.749  18.445  0.00  0.00    +0.000 C 
ATOM     36  C   UNL     1      -3.006  12.086  18.740  0.00  0.00    +0.000 C 
ENDBRANCH  30  31
ENDBRANCH   8  30
TORSDOF 6
ENDMDL
MODEL 3
REMARK VINA RESULT:      -8.8      1.007      1.058
REMARK  Name = 
REMARK  8 active torsions:
REMARK  status: ('A' for Active; 'I' for Inactive)
REMARK    1  A    between atoms: C_1  and  C_2
REMARK    2  A    between atoms: C_4  and  C_5
REMARK    3  A    between atoms: C_7  and  C_8
REMARK    4  A    between atoms: C_13  and  N_14
REMARK    5  A    between atoms: N_14  and  C_15
REMARK    6  A    between atoms: C_15  and  C_16
REMARK    7  A    between atoms: C_27  and  C_28
REMARK    8  A    between atoms: C_28  and  C_29
REMARK                            x       y       z     vdW  Elec       q    Type
REMARK                         _______ _______ _______ _____ _____    ______ ____
ROOT
ATOM      1  C   UNL     1      -0.019  10.138  22.410  0.00  0.00    +0.000 C 
ATOM      2  O   UNL     1       0.503   9.685  23.428  0.00  0.00    +0.000 OA
ATOM      3  N   UNL     1      -0.045   9.439  21.183  0.00  0.00    +0.000 N 
ATOM      4  C   UNL     1       0.382   8.032  21.168  0.00  0.00    +0.000 C 
ATOM      5  C   UNL     1       1.704   7.781  20.418  0.00  0.00    +0.000 C 
ATOM      6  C   UNL     1       1.715   8.488  19.054  0.00  0.00    +0.000 C 
ATOM      7  C   UNL     1       1.433   9.967  19.339  0.00  0.00    +0.000 C 
ATOM      8  C   UNL     1       0.021  10.155  19.888  0.00  0.00    +0.000 C 
ENDROOT
BRANCH   1  15
ATOM      9  C   UNL     1      -3.942  12.923  23.859  0.00  0.00    +0.000 C 
ATOM     10  C   UNL     1      -2.582  12.833  23.231  0.00  0.00    +0.000 A 
ATOM     11  C   UNL     1      -1.982  13.956  22.655  0.00  0.00    +0.000 A 
ATOM     12  C   UNL     1      -0.718  13.867  22.053  0.00  0.00    +0.000 A 
ATOM     13  C   UNL     1      -0.048  15.105  21.529  0.00  0.00    +0.000 C 
ATOM     14  C   UNL     1      -0.083  12.615  21.962  0.00  0.00    +0.000 A 
ATOM     15  C   UNL     1      -0.693  11.473  22.503  0.00  0.00    +0.000 A 
ATOM     16  C   UNL     1      -1.911  11.606  23.180  0.00  0.00    +0.000 A 
ENDBRANCH   1  15
BRANCH   6  17
ATOM     17  N   UNL     1       2.975   8.375  18.303  0.00  0.00    +0.000 NA
ATOM     18  H   UNL     1       3.116   9.229  17.760  0.00  0.00    +0.000 HD
BRANCH  17  19
ATOM     19  C   UNL     1       2.979   7.251  17.365  0.00  0.00    +0.000 C 
BRANCH  19  20
ATOM     20  C   UNL     1       3.755   6.074  17.916  0.00  0.00    +0.000 A 
ATOM     21  C   UNL     1       5.131   6.244  18.119  0.00  0.00    +0.000 A 
ATOM     22  C   UNL     1       5.854   5.213  18.677  0.00  0.00    +0.000 A 
ATOM     23  N   UNL     1       5.324   4.031  19.041  0.00  0.00    +0.000 NA
ATOM     24  C   UNL     1       4.014   3.837  18.821  0.00  0.00    +0.000 A 
ATOM     25  C   UNL     1       3.475   2.616  19.195  0.00  0.00    +0.000 A 
ATOM     26  C   UNL     1       2.128   2.309  19.000  0.00  0.00    +0.000 A 
ATOM     27  C   UNL     1       1.293   3.246  18.411  0.00  0.00    +0.000 A 
ATOM     28  C   UNL     1       1.805   4.491  18.036  0.00  0.00    +0.000 A 
ATOM     29  C   UNL     1       3.169   4.819  18.241  0.00  0.00    +0.000 A 
ENDBRANCH  19  20
ENDBRANCH  17  19
ENDBRANCH   6  17
BRANCH   8  30
ATOM     30  C   UNL     1      -1.108   9.765  18.913  0.00  0.00    +0.000 C 
BRANCH  30  31
ATOM     31  C   UNL     1      -1.810  10.860  18.052  0.00  0.00    +0.000 C 
ATOM     32  C   UNL     1      -2.698  10.332  16.928  0.00  0.00    +0.000 C 
ATOM     33  C   UNL     1      -4.104   9.955  17.358  0.00  0.00    +0.000 C 
ATOM     34  C   UNL     1      -4.832  11.065  18.099  0.00  0.00    +0.000 C 
ATOM     35  C   UNL     1      -4.002  11.975  19.005  0.00  0.00    +0.000 C 
ATOM     36  C   UNL     1      -2.487  12.019  18.797  0.00  0.00    +0.000 C 
ENDBRANCH  30  31
ENDBRANCH   8  30
TORSDOF 6
ENDMDL
MODEL 4
REMARK VINA RESULT:      -8.7      1.153      2.799
REMARK  Name = 
REMARK  8 active torsions:
REMARK  status: ('A' for Active; 'I' for Inactive)
REMARK    1  A    between atoms: C_1  and  C_2
REMARK    2  A    between atoms: C_4  and  C_5
REMARK    3  A    between atoms: C_7  and  C_8
REMARK    4  A    between atoms: C_13  and  N_14
REMARK    5  A    between atoms: N_14  and  C_15
REMARK    6  A    between atoms: C_15  and  C_16
REMARK    7  A    between atoms: C_27  and  C_28
REMARK    8  A    between atoms: C_28  and  C_29
REMARK                            x       y       z     vdW  Elec       q    Type
REMARK                         _______ _______ _______ _____ _____    ______ ____
ROOT
ATOM      1  C   UNL     1      -0.484  10.531  22.627  0.00  0.00    +0.000 C 
ATOM      2  O   UNL     1      -0.029  10.017  23.646  0.00  0.00    +0.000 OA
ATOM      3  N   UNL     1      -0.480   9.885  21.370  0.00  0.00    +0.000 N 
ATOM      4  C   UNL     1      -0.107   8.463  21.315  0.00  0.00    +0.000 C 
ATOM      5  C   UNL     1       1.237   8.189  20.616  0.00  0.00    +0.000 C 
ATOM      6  C   UNL     1       1.340   8.950  19.285  0.00  0.00    +0.000 C 
ATOM      7  C   UNL     1       1.103  10.426  19.620  0.00  0.00    +0.000 C 
ATOM      8  C   UNL     1      -0.325  10.650  20.112  0.00  0.00    +0.000 C 
ENDROOT
BRANCH   1  15
ATOM      9  C   UNL     1      -0.090  15.530  22.308  0.00  0.00    +0.000 C 
ATOM     10  C   UNL     1      -0.930  14.313  22.563  0.00  0.00    +0.000 A 
ATOM     11  C   UNL     1      -2.255  14.433  22.993  0.00  0.00    +0.000 A 
ATOM     12  C   UNL     1      -3.034  13.295  23.248  0.00  0.00    +0.000 A 
ATOM     13  C   UNL     1      -4.483  13.444  23.612  0.00  0.00    +0.000 C 
ATOM     14  C   UNL     1      -2.449  12.019  23.139  0.00  0.00    +0.000 A 
ATOM     15  C   UNL     1      -1.110  11.888  22.745  0.00  0.00    +0.000 A 
ATOM     16  C   UNL     1      -0.382  13.035  22.408  0.00  0.00    +0.000 A 
ENDBRANCH   1  15
BRANCH   6  17
ATOM     17  N   UNL     1       2.629   8.816  18.588  0.00  0.00    +0.000 NA
ATOM     18  H   UNL     1       2.881   9.718  18.180  0.00  0.00    +0.000 HD
BRANCH  17  19
ATOM     19  C   UNL     1       2.588   7.836  17.501  0.00  0.00    +0.000 C 
BRANCH  19  20
ATOM     20  C   UNL     1       3.217   6.524  17.916  0.00  0.00    +0.000 A 
ATOM     21  C   UNL     1       2.368   5.535  18.431  0.00  0.00    +0.000 A 
ATOM     22  C   UNL     1       2.899   4.306  18.760  0.00  0.00    +0.000 A 
ATOM     23  N   UNL     1       4.199   3.987  18.625  0.00  0.00    +0.000 NA
ATOM     24  C   UNL     1       5.033   4.934  18.166  0.00  0.00    +0.000 A 
ATOM     25  C   UNL     1       6.372   4.599  18.033  0.00  0.00    +0.000 A 
ATOM     26  C   UNL     1       7.322   5.512  17.577  0.00  0.00    +0.000 A 
ATOM     27  C   UNL     1       6.929   6.800  17.246  0.00  0.00    +0.000 A 
ATOM     28  C   UNL     1       5.584   7.162  17.357  0.00  0.00    +0.000 A 
ATOM     29  C   UNL     1       4.606   6.239  17.807  0.00  0.00    +0.000 A 
ENDBRANCH  19  20
ENDBRANCH  17  19
ENDBRANCH   6  17
BRANCH   8  30
ATOM     30  C   UNL     1      -1.422  10.346  19.071  0.00  0.00    +0.000 C 
BRANCH  30  31
ATOM     31  C   UNL     1      -2.248  11.511  18.444  0.00  0.00    +0.000 C 
ATOM     32  C   UNL     1      -3.284  11.088  17.406  0.00  0.00    +0.000 C 
ATOM     33  C   UNL     1      -4.611  10.633  17.987  0.00  0.00    +0.000 C 
ATOM     34  C   UNL     1      -5.233  11.639  18.942  0.00  0.00    +0.000 C 
ATOM     35  C   UNL     1      -4.289  12.464  19.816  0.00  0.00    +0.000 C 
ATOM     36  C   UNL     1      -2.820  12.566  19.401  0.00  0.00    +0.000 C 
ENDBRANCH  30  31
ENDBRANCH   8  30
TORSDOF 6
ENDMDL
MODEL 5
REMARK VINA RESULT:      -8.6      1.826      2.920
REMARK  Name = 
REMARK  8 active torsions:
REMARK  status: ('A' for Active; 'I' for Inactive)
REMARK    1  A    between atoms: C_1  and  C_2
REMARK    2  A    between atoms: C_4  and  C_5
REMARK    3  A    between atoms: C_7  and  C_8
REMARK    4  A    between atoms: C_13  and  N_14
REMARK    5  A    between atoms: N_14  and  C_15
REMARK    6  A    between atoms: C_15  and  C_16
REMARK    7  A    between atoms: C_27  and  C_28
REMARK    8  A    between atoms: C_28  and  C_29
REMARK                            x       y       z     vdW  Elec       q    Type
REMARK                         _______ _______ _______ _____ _____    ______ ____
ROOT
ATOM      1  C   UNL     1       0.166  12.879  21.538  0.00  0.00    +0.000 C 
ATOM      2  O   UNL     1       0.311  13.196  22.717  0.00  0.00    +0.000 OA
ATOM      3  N   UNL     1      -0.305  11.610  21.133  0.00  0.00    +0.000 N 
ATOM      4  C   UNL     1      -0.840  10.702  22.159  0.00  0.00    +0.000 C 
ATOM      5  C   UNL     1       0.032   9.459  22.418  0.00  0.00    +0.000 C 
ATOM      6  C   UNL     1       0.458   8.790  21.103  0.00  0.00    +0.000 C 
ATOM      7  C   UNL     1       1.156   9.878  20.279  0.00  0.00    +0.000 C 
ATOM      8  C   UNL     1       0.171  10.975  19.883  0.00  0.00    +0.000 C 
ENDROOT
BRANCH   1  15
ATOM      9  C   UNL     1      -1.224  16.957  18.953  0.00  0.00    +0.000 C 
ATOM     10  C   UNL     1      -0.195  15.909  19.257  0.00  0.00    +0.000 A 
ATOM     11  C   UNL     1       0.991  15.831  18.521  0.00  0.00    +0.000 A 
ATOM     12  C   UNL     1       1.944  14.839  18.796  0.00  0.00    +0.000 A 
ATOM     13  C   UNL     1       3.254  14.835  18.061  0.00  0.00    +0.000 C 
ATOM     14  C   UNL     1       1.667  13.867  19.774  0.00  0.00    +0.000 A 
ATOM     15  C   UNL     1       0.464  13.912  20.493  0.00  0.00    +0.000 A 
ATOM     16  C   UNL     1      -0.429  14.966  20.264  0.00  0.00    +0.000 A 
ENDBRANCH   1  15
BRANCH   6  17
ATOM     17  N   UNL     1       1.367   7.642  21.252  0.00  0.00    +0.000 NA
ATOM     18  H   UNL     1       2.035   7.844  21.998  0.00  0.00    +0.000 HD
BRANCH  17  19
ATOM     19  C   UNL     1       2.133   7.363  20.037  0.00  0.00    +0.000 C 
BRANCH  19  20
ATOM     20  C   UNL     1       2.227   5.875  19.773  0.00  0.00    +0.000 A 
ATOM     21  C   UNL     1       1.495   5.022  20.611  0.00  0.00    +0.000 A 
ATOM     22  C   UNL     1       1.509   3.668  20.358  0.00  0.00    +0.000 A 
ATOM     23  N   UNL     1       2.193   3.096  19.350  0.00  0.00    +0.000 NA
ATOM     24  C   UNL     1       2.928   3.894  18.558  0.00  0.00    +0.000 A 
ATOM     25  C   UNL     1       3.633   3.298  17.524  0.00  0.00    +0.000 A 
ATOM     26  C   UNL     1       4.435   4.036  16.653  0.00  0.00    +0.000 A 
ATOM     27  C   UNL     1       4.541   5.408  16.818  0.00  0.00    +0.000 A 
ATOM     28  C   UNL     1       3.831   6.038  17.843  0.00  0.00    +0.000 A 
ATOM     29  C   UNL     1       3.002   5.301  18.728  0.00  0.00    +0.000 A 
ENDBRANCH  19  20
ENDBRANCH  17  19
ENDBRANCH   6  17
BRANCH   8  30
ATOM     30  C   UNL     1      -0.972  10.513  18.956  0.00  0.00    +0.000 C 
BRANCH  30  31
ATOM     31  C   UNL     1      -1.831  11.567  18.192  0.00  0.00    +0.000 C 
ATOM     32  C   UNL     1      -2.347  11.118  16.827  0.00  0.00    +0.000 C 
ATOM     33  C   UNL     1      -3.625  10.300  16.872  0.00  0.00    +0.000 C 
ATOM     34  C   UNL     1      -4.751  10.973  17.641  0.00  0.00    +0.000 C 
ATOM     35  C   UNL     1      -4.371  11.818  18.858  0.00  0.00    +0.000 C 
ATOM     36  C   UNL     1      -2.924  12.298  18.985  0.00  0.00    +0.000 C 
ENDBRANCH  30  31
ENDBRANCH   8  30
TORSDOF 6
ENDMDL
MODEL 6
REMARK VINA RESULT:      -8.5      1.662      3.014
REMARK  Name = 
REMARK  8 active torsions:
REMARK  status: ('A' for Active; 'I' for Inactive)
REMARK    1  A    between atoms: C_1  and  C_2
REMARK    2  A    between atoms: C_4  and  C_5
REMARK    3  A    between atoms: C_7  and  C_8
REMARK    4  A    between atoms: C_13  and  N_14
REMARK    5  A    between atoms: N_14  and  C_15
REMARK    6  A    between atoms: C_15  and  C_16
REMARK    7  A    between atoms: C_27  and  C_28
REMARK    8  A    between atoms: C_28  and  C_29
REMARK                            x       y       z     vdW  Elec       q    Type
REMARK                         _______ _______ _______ _____ _____    ______ ____
ROOT
ATOM      1  C   UNL     1      -0.187  12.865  21.849  0.00  0.00    +0.000 C 
ATOM      2  O   UNL     1      -0.054  13.128  23.043  0.00  0.00    +0.000 OA
ATOM      3  N   UNL     1      -0.530  11.578  21.378  0.00  0.00    +0.000 N 
ATOM      4  C   UNL     1      -0.947  10.562  22.356  0.00  0.00    +0.000 C 
ATOM      5  C   UNL     1       0.055   9.405  22.532  0.00  0.00    +0.000 C 
ATOM      6  C   UNL     1       0.524   8.861  21.174  0.00  0.00    +0.000 C 
ATOM      7  C   UNL     1       1.088  10.061  20.406  0.00  0.00    +0.000 C 
ATOM      8  C   UNL     1      -0.013  11.068  20.087  0.00  0.00    +0.000 C 
ENDROOT
BRANCH   1  15
ATOM      9  C   UNL     1       2.581  15.185  18.356  0.00  0.00    +0.000 C 
ATOM     10  C   UNL     1       1.308  15.092  19.145  0.00  0.00    +0.000 A 
ATOM     11  C   UNL     1       0.323  16.078  19.037  0.00  0.00    +0.000 A 
ATOM     12  C   UNL     1      -0.859  15.999  19.788  0.00  0.00    +0.000 A 
ATOM     13  C   UNL     1      -1.946  17.014  19.583  0.00  0.00    +0.000 C 
ATOM     14  C   UNL     1      -1.018  14.955  20.717  0.00  0.00    +0.000 A 
ATOM     15  C   UNL     1      -0.020  13.981  20.862  0.00  0.00    +0.000 A 
ATOM     16  C   UNL     1       1.108  14.030  20.034  0.00  0.00    +0.000 A 
ENDBRANCH   1  15
BRANCH   6  17
ATOM     17  N   UNL     1       1.551   7.809  21.245  0.00  0.00    +0.000 NA
ATOM     18  H   UNL     1       2.310   8.127  21.851  0.00  0.00    +0.000 HD
BRANCH  17  19
ATOM     19  C   UNL     1       2.132   7.494  19.940  0.00  0.00    +0.000 C 
BRANCH  19  20
ATOM     20  C   UNL     1       2.261   5.999  19.739  0.00  0.00    +0.000 A 
ATOM     21  C   UNL     1       1.560   5.165  20.621  0.00  0.00    +0.000 A 
ATOM     22  C   UNL     1       1.607   3.802  20.426  0.00  0.00    +0.000 A 
ATOM     23  N   UNL     1       2.295   3.204  19.437  0.00  0.00    +0.000 NA
ATOM     24  C   UNL     1       3.001   3.986  18.603  0.00  0.00    +0.000 A 
ATOM     25  C   UNL     1       3.711   3.363  17.588  0.00  0.00    +0.000 A 
ATOM     26  C   UNL     1       4.486   4.082  16.678  0.00  0.00    +0.000 A 
ATOM     27  C   UNL     1       4.558   5.462  16.782  0.00  0.00    +0.000 A 
ATOM     28  C   UNL     1       3.843   6.118  17.787  0.00  0.00    +0.000 A 
ATOM     29  C   UNL     1       3.041   5.400  18.711  0.00  0.00    +0.000 A 
ENDBRANCH  19  20
ENDBRANCH  17  19
ENDBRANCH   6  17
BRANCH   8  30
ATOM     30  C   UNL     1      -1.120  10.540  19.150  0.00  0.00    +0.000 C 
BRANCH  30  31
ATOM     31  C   UNL     1      -1.942  11.536  18.274  0.00  0.00    +0.000 C 
ATOM     32  C   UNL     1      -2.342  11.012  16.898  0.00  0.00    +0.000 C 
ATOM     33  C   UNL     1      -3.601  10.165  16.885  0.00  0.00    +0.000 C 
ATOM     34  C   UNL     1      -4.797  10.843  17.535  0.00  0.00    +0.000 C 
ATOM     35  C   UNL     1      -4.529  11.751  18.736  0.00  0.00    +0.000 C 
ATOM     36  C   UNL     1      -3.107  12.273  18.948  0.00  0.00    +0.000 C 
ENDBRANCH  30  31
ENDBRANCH   8  30
TORSDOF 6
ENDMDL
MODEL 7
REMARK VINA RESULT:      -8.3      1.690      2.235
REMARK  Name = 
REMARK  8 active torsions:
REMARK  status: ('A' for Active; 'I' for Inactive)
REMARK    1  A    between atoms: C_1  and  C_2
REMARK    2  A    between atoms: C_4  and  C_5
REMARK    3  A    between atoms: C_7  and  C_8
REMARK    4  A    between atoms: C_13  and  N_14
REMARK    5  A    between atoms: N_14  and  C_15
REMARK    6  A    between atoms: C_15  and  C_16
REMARK    7  A    between atoms: C_27  and  C_28
REMARK    8  A    between atoms: C_28  and  C_29
REMARK                            x       y       z     vdW  Elec       q    Type
REMARK                         _______ _______ _______ _____ _____    ______ ____
ROOT
ATOM      1  C   UNL     1      -0.301  12.878  21.912  0.00  0.00    +0.000 C 
ATOM      2  O   UNL     1      -0.216  13.113  23.116  0.00  0.00    +0.000 OA
ATOM      3  N   UNL     1      -0.536  11.585  21.394  0.00  0.00    +0.000 N 
ATOM      4  C   UNL     1      -0.899  10.510  22.330  0.00  0.00    +0.000 C 
ATOM      5  C   UNL     1       0.182   9.426  22.497  0.00  0.00    +0.000 C 
ATOM      6  C   UNL     1       0.721   8.961  21.136  0.00  0.00    +0.000 C 
ATOM      7  C   UNL     1       1.213  10.223  20.419  0.00  0.00    +0.000 C 
ATOM      8  C   UNL     1       0.047  11.156  20.101  0.00  0.00    +0.000 C 
ENDROOT
BRANCH   1  15
ATOM      9  C   UNL     1      -2.310  16.996  19.850  0.00  0.00    +0.000 C 
ATOM     10  C   UNL     1      -1.154  16.050  19.982  0.00  0.00    +0.000 A 
ATOM     11  C   UNL     1      -0.022  16.181  19.172  0.00  0.00    +0.000 A 
ATOM     12  C   UNL     1       1.051  15.286  19.285  0.00  0.00    +0.000 A 
ATOM     13  C   UNL     1       2.297  15.504  18.477  0.00  0.00    +0.000 C 
ATOM     14  C   UNL     1       0.953  14.198  20.173  0.00  0.00    +0.000 A 
ATOM     15  C   UNL     1      -0.194  14.034  20.964  0.00  0.00    +0.000 A 
ATOM     16  C   UNL     1      -1.210  14.994  20.899  0.00  0.00    +0.000 A 
ENDBRANCH   1  15
BRANCH   6  17
ATOM     17  N   UNL     1       1.822   7.986  21.201  0.00  0.00    +0.000 NA
ATOM     18  H   UNL     1       2.545   8.258  20.533  0.00  0.00    +0.000 HD
BRANCH  17  19
ATOM     19  C   UNL     1       1.398   6.627  20.865  0.00  0.00    +0.000 C 
BRANCH  19  20
ATOM     20  C   UNL     1       2.119   6.110  19.638  0.00  0.00    +0.000 A 
ATOM     21  C   UNL     1       2.972   6.998  18.968  0.00  0.00    +0.000 A 
ATOM     22  C   UNL     1       3.691   6.541  17.885  0.00  0.00    +0.000 A 
ATOM     23  N   UNL     1       3.624   5.283  17.413  0.00  0.00    +0.000 NA
ATOM     24  C   UNL     1       2.785   4.428  18.020  0.00  0.00    +0.000 A 
ATOM     25  C   UNL     1       2.719   3.134  17.527  0.00  0.00    +0.000 A 
ATOM     26  C   UNL     1       1.872   2.174  18.078  0.00  0.00    +0.000 A 
ATOM     27  C   UNL     1       1.063   2.512  19.152  0.00  0.00    +0.000 A 
ATOM     28  C   UNL     1       1.118   3.804  19.679  0.00  0.00    +0.000 A 
ATOM     29  C   UNL     1       1.985   4.787  19.136  0.00  0.00    +0.000 A 
ENDBRANCH  19  20
ENDBRANCH  17  19
ENDBRANCH   6  17
BRANCH   8  30
ATOM     30  C   UNL     1      -0.995  10.579  19.121  0.00  0.00    +0.000 C 
BRANCH  30  31
ATOM     31  C   UNL     1      -1.873  11.539  18.261  0.00  0.00    +0.000 C 
ATOM     32  C   UNL     1      -2.381  10.951  16.947  0.00  0.00    +0.000 C 
ATOM     33  C   UNL     1      -3.644  10.119  17.072  0.00  0.00    +0.000 C 
ATOM     34  C   UNL     1      -4.781  10.842  17.776  0.00  0.00    +0.000 C 
ATOM     35  C   UNL     1      -4.417  11.806  18.905  0.00  0.00    +0.000 C 
ATOM     36  C   UNL     1      -2.978  12.322  18.983  0.00  0.00    +0.000 C 
ENDBRANCH  30  31
ENDBRANCH   8  30
TORSDOF 6
ENDMDL
MODEL 8
REMARK VINA RESULT:      -8.2      1.638      2.638
REMARK  Name = 
REMARK  8 active torsions:
REMARK  status: ('A' for Active; 'I' for Inactive)
REMARK    1  A    between atoms: C_1  and  C_2
REMARK    2  A    between atoms: C_4  and  C_5
REMARK    3  A    between atoms: C_7  and  C_8
REMARK    4  A    between atoms: C_13  and  N_14
REMARK    5  A    between atoms: N_14  and  C_15
REMARK    6  A    between atoms: C_15  and  C_16
REMARK    7  A    between atoms: C_27  and  C_28
REMARK    8  A    between atoms: C_28  and  C_29
REMARK                            x       y       z     vdW  Elec       q    Type
REMARK                         _______ _______ _______ _____ _____    ______ ____
ROOT
ATOM      1  C   UNL     1      -0.443  13.104  22.131  0.00  0.00    +0.000 C 
ATOM      2  O   UNL     1      -0.320  13.352  23.329  0.00  0.00    +0.000 OA
ATOM      3  N   UNL     1      -0.679  11.802  21.634  0.00  0.00    +0.000 N 
ATOM      4  C   UNL     1      -0.998  10.734  22.593  0.00  0.00    +0.000 C 
ATOM      5  C   UNL     1       0.101   9.664  22.735  0.00  0.00    +0.000 C 
ATOM      6  C   UNL     1       0.600   9.191  21.361  0.00  0.00    +0.000 C 
ATOM      7  C   UNL     1       1.052  10.450  20.615  0.00  0.00    +0.000 C 
ATOM      8  C   UNL     1      -0.135  11.367  20.328  0.00  0.00    +0.000 C 
ENDROOT
BRANCH   1  15
ATOM      9  C   UNL     1       2.093  15.744  18.689  0.00  0.00    +0.000 C 
ATOM     10  C   UNL     1       0.835  15.517  19.475  0.00  0.00    +0.000 A 
ATOM     11  C   UNL     1      -0.238  16.409  19.387  0.00  0.00    +0.000 A 
ATOM     12  C   UNL     1      -1.406  16.204  20.136  0.00  0.00    +0.000 A 
ATOM     13  C   UNL     1      -2.584  17.118  19.951  0.00  0.00    +0.000 C 
ATOM     14  C   UNL     1      -1.467  15.130  21.042  0.00  0.00    +0.000 A 
ATOM     15  C   UNL     1      -0.381  14.251  21.168  0.00  0.00    +0.000 A 
ATOM     16  C   UNL     1       0.735  14.422  20.342  0.00  0.00    +0.000 A 
ENDBRANCH   1  15
BRANCH   6  17
ATOM     17  N   UNL     1       1.714   8.229  21.400  0.00  0.00    +0.000 NA
ATOM     18  H   UNL     1       2.396   8.484  20.683  0.00  0.00    +0.000 HD
BRANCH  17  19
ATOM     19  C   UNL     1       1.288   6.855  21.135  0.00  0.00    +0.000 C 
BRANCH  19  20
ATOM     20  C   UNL     1       1.944   6.303  19.888  0.00  0.00    +0.000 A 
ATOM     21  C   UNL     1       2.730   7.180  19.129  0.00  0.00    +0.000 A 
ATOM     22  C   UNL     1       3.392   6.693  18.022  0.00  0.00    +0.000 A 
ATOM     23  N   UNL     1       3.330   5.414  17.609  0.00  0.00    +0.000 NA
ATOM     24  C   UNL     1       2.554   4.567  18.305  0.00  0.00    +0.000 A 
ATOM     25  C   UNL     1       2.491   3.252  17.871  0.00  0.00    +0.000 A 
ATOM     26  C   UNL     1       1.706   2.296  18.515  0.00  0.00    +0.000 A 
ATOM     27  C   UNL     1       0.956   2.662  19.623  0.00  0.00    +0.000 A 
ATOM     28  C   UNL     1       1.010   3.977  20.091  0.00  0.00    +0.000 A 
ATOM     29  C   UNL     1       1.815   4.955  19.453  0.00  0.00    +0.000 A 
ENDBRANCH  19  20
ENDBRANCH  17  19
ENDBRANCH   6  17
BRANCH   8  30
ATOM     30  C   UNL     1      -1.201  10.767  19.389  0.00  0.00    +0.000 C 
BRANCH  30  31
ATOM     31  C   UNL     1      -2.067  11.704  18.490  0.00  0.00    +0.000 C 
ATOM     32  C   UNL     1      -2.426  11.138  17.119  0.00  0.00    +0.000 C 
ATOM     33  C   UNL     1      -3.638  10.225  17.109  0.00  0.00    +0.000 C 
ATOM     34  C   UNL     1      -4.874  10.849  17.738  0.00  0.00    +0.000 C 
ATOM     35  C   UNL     1      -4.666  11.788  18.926  0.00  0.00    +0.000 C 
ATOM     36  C   UNL     1      -3.276  12.389  19.142  0.00  0.00    +0.000 C 
ENDBRANCH  30  31
ENDBRANCH   8  30
TORSDOF 6
ENDMDL
MODEL 9
REMARK VINA RESULT:      -8.2      1.570      1.721
REMARK  Name = 
REMARK  8 active torsions:
REMARK  status: ('A' for Active; 'I' for Inactive)
REMARK    1  A    between atoms: C_1  and  C_2
REMARK    2  A    between atoms: C_4  and  C_5
REMARK    3  A    between atoms: C_7  and  C_8
REMARK    4  A    between atoms: C_13  and  N_14
REMARK    5  A    between atoms: N_14  and  C_15
REMARK    6  A    between atoms: C_15  and  C_16
REMARK    7  A    between atoms: C_27  and  C_28
REMARK    8  A    between atoms: C_28  and  C_29
REMARK                            x       y       z     vdW  Elec       q    Type
REMARK                         _______ _______ _______ _____ _____    ______ ____
ROOT
ATOM      1  C   UNL     1       0.637  11.125  20.977  0.00  0.00    +0.000 C 
ATOM      2  O   UNL     1       1.127  11.005  22.097  0.00  0.00    +0.000 OA
ATOM      3  N   UNL     1       0.459  10.038  20.092  0.00  0.00    +0.000 N 
ATOM      4  C   UNL     1       0.675   8.676  20.605  0.00  0.00    +0.000 C 
ATOM      5  C   UNL     1       1.914   7.971  20.021  0.00  0.00    +0.000 C 
ATOM      6  C   UNL     1       1.973   8.119  18.493  0.00  0.00    +0.000 C 
ATOM      7  C   UNL     1       1.923   9.624  18.208  0.00  0.00    +0.000 C 
ATOM      8  C   UNL     1       0.577  10.211  18.626  0.00  0.00    +0.000 C 
ENDROOT
BRANCH   1  15
ATOM      9  C   UNL     1      -2.932  14.662  20.944  0.00  0.00    +0.000 C 
ATOM     10  C   UNL     1      -1.549  14.218  20.566  0.00  0.00    +0.000 A 
ATOM     11  C   UNL     1      -0.733  15.016  19.760  0.00  0.00    +0.000 A 
ATOM     12  C   UNL     1       0.552  14.591  19.394  0.00  0.00    +0.000 A 
ATOM     13  C   UNL     1       1.450  15.506  18.611  0.00  0.00    +0.000 C 
ATOM     14  C   UNL     1       0.994  13.313  19.782  0.00  0.00    +0.000 A 
ATOM     15  C   UNL     1       0.169  12.487  20.559  0.00  0.00    +0.000 A 
ATOM     16  C   UNL     1      -1.072  12.972  20.989  0.00  0.00    +0.000 A 
ENDBRANCH   1  15
BRANCH   6  17
ATOM     17  N   UNL     1       3.172   7.549  17.857  0.00  0.00    +0.000 NA
ATOM     18  H   UNL     1       2.894   7.062  17.003  0.00  0.00    +0.000 HD
BRANCH  17  19
ATOM     19  C   UNL     1       3.864   6.584  18.712  0.00  0.00    +0.000 C 
BRANCH  19  20
ATOM     20  C   UNL     1       3.447   5.164  18.392  0.00  0.00    +0.000 A 
ATOM     21  C   UNL     1       3.735   4.679  17.109  0.00  0.00    +0.000 A 
ATOM     22  C   UNL     1       3.425   3.371  16.807  0.00  0.00    +0.000 A 
ATOM     23  N   UNL     1       2.849   2.514  17.670  0.00  0.00    +0.000 NA
ATOM     24  C   UNL     1       2.534   2.972  18.892  0.00  0.00    +0.000 A 
ATOM     25  C   UNL     1       1.937   2.085  19.775  0.00  0.00    +0.000 A 
ATOM     26  C   UNL     1       1.560   2.464  21.063  0.00  0.00    +0.000 A 
ATOM     27  C   UNL     1       1.780   3.765  21.485  0.00  0.00    +0.000 A 
ATOM     28  C   UNL     1       2.392   4.678  20.622  0.00  0.00    +0.000 A 
ATOM     29  C   UNL     1       2.792   4.302  19.314  0.00  0.00    +0.000 A 
ENDBRANCH  19  20
ENDBRANCH  17  19
ENDBRANCH   6  17
BRANCH   8  30
ATOM     30  C   UNL     1      -0.637   9.665  17.846  0.00  0.00    +0.000 C 
BRANCH  30  31
ATOM     31  C   UNL     1      -1.597  10.649  17.108  0.00  0.00    +0.000 C 
ATOM     32  C   UNL     1      -2.717   9.986  16.310  0.00  0.00    +0.000 C 
ATOM     33  C   UNL     1      -3.940   9.612  17.128  0.00  0.00    +0.000 C 
ATOM     34  C   UNL     1      -4.509  10.767  17.935  0.00  0.00    +0.000 C 
ATOM     35  C   UNL     1      -3.522  11.786  18.506  0.00  0.00    +0.000 C 
ATOM     36  C   UNL     1      -2.119  11.855  17.902  0.00  0.00    +0.000 C 
ENDBRANCH  30  31
ENDBRANCH   8  30
TORSDOF 6
ENDMDL
