MODEL 1
REMARK VINA RESULT:      -6.5      0.000      0.000
REMARK  Name = 
REMARK  11 active torsions:
REMARK  status: ('A' for Active; 'I' for Inactive)
REMARK    1  A    between atoms: C_1  and  C_2
REMARK    2  A    between atoms: C_2  and  C_3
REMARK    3  A    between atoms: C_2  and  N_4
REMARK    4  A    between atoms: N_4  and  C_5
REMARK    5  A    between atoms: N_4  and  C_16
REMARK    6  A    between atoms: C_5  and  O_6
REMARK    7  A    between atoms: O_6  and  C_7
REMARK    8  A    between atoms: C_7  and  C_9
REMARK    9  A    between atoms: C_12  and  N_13
REMARK   10  A    between atoms: C_16  and  C_17
REMARK   11  A    between atoms: C_16  and  C_18
REMARK                            x       y       z     vdW  Elec       q    Type
REMARK                         _______ _______ _______ _____ _____    ______ ____
ROOT
ATOM      1  C   UNL     1       3.052   7.418  17.835  0.00  0.00    +0.000 C 
ATOM      2  O   UNL     1       2.395   8.256  17.239  0.00  0.00    +0.000 OA
ENDROOT
BRANCH   1   3
ATOM      3  C   UNL     1       2.414   6.309  18.588  0.00  0.00    +0.000 A 
ATOM      4  C   UNL     1       2.024   5.172  17.872  0.00  0.00    +0.000 A 
ATOM      5  C   UNL     1       1.502   4.066  18.545  0.00  0.00    +0.000 A 
ATOM      6  C   UNL     1       1.390   4.068  19.937  0.00  0.00    +0.000 A 
ATOM      7  C   UNL     1       1.709   5.237  20.636  0.00  0.00    +0.000 A 
ATOM      8  C   UNL     1       2.241   6.350  19.972  0.00  0.00    +0.000 A 
BRANCH   6   9
ATOM      9  N   UNL     1       0.754   3.011  20.590  0.00  0.00    +0.000 N 
ATOM     10  H   UNL     1       0.642   2.179  20.018  0.00  0.00    +0.000 HD
ATOM     11  H   UNL     1       1.145   2.795  21.505  0.00  0.00    +0.000 HD
ENDBRANCH   6   9
ENDBRANCH   1   3
BRANCH   1  12
ATOM     12  O   UNL     1       4.390   7.232  17.785  0.00  0.00    +0.000 OA
BRANCH  12  13
ATOM     13  C   UNL     1       4.872   6.699  16.544  0.00  0.00    +0.000 C 
BRANCH  13  14
ATOM     14  N   UNL     1       6.302   6.316  16.527  0.00  0.00    +0.000 NA
BRANCH  14  16
ATOM     15  C   UNL     1       5.210   4.054  16.257  0.00  0.00    +0.000 C 
ATOM     16  C   UNL     1       6.476   4.919  16.022  0.00  0.00    +0.000 C 
ATOM     17  C   UNL     1       6.766   4.781  14.516  0.00  0.00    +0.000 C 
ENDBRANCH  14  16
BRANCH  14  18
ATOM     18  C   UNL     1       6.949   6.678  17.826  0.00  0.00    +0.000 C 
ATOM     19  C   UNL     1       7.818   5.581  18.464  0.00  0.00    +0.000 C 
ATOM     20  C   UNL     1       7.931   7.871  17.689  0.00  0.00    +0.000 C 
ENDBRANCH  14  18
ENDBRANCH  13  14
ENDBRANCH  12  13
ENDBRANCH   1  12
TORSDOF 7
ENDMDL
MODEL 2
REMARK VINA RESULT:      -6.5      1.151      1.212
REMARK  Name = 
REMARK  11 active torsions:
REMARK  status: ('A' for Active; 'I' for Inactive)
REMARK    1  A    between atoms: C_1  and  C_2
REMARK    2  A    between atoms: C_2  and  C_3
REMARK    3  A    between atoms: C_2  and  N_4
REMARK    4  A    between atoms: N_4  and  C_5
REMARK    5  A    between atoms: N_4  and  C_16
REMARK    6  A    between atoms: C_5  and  O_6
REMARK    7  A    between atoms: O_6  and  C_7
REMARK    8  A    between atoms: C_7  and  C_9
REMARK    9  A    between atoms: C_12  and  N_13
REMARK   10  A    between atoms: C_16  and  C_17
REMARK   11  A    between atoms: C_16  and  C_18
REMARK                            x       y       z     vdW  Elec       q    Type
REMARK                         _______ _______ _______ _____ _____    ______ ____
ROOT
ATOM      1  C   UNL     1       3.003   7.079  18.020  0.00  0.00    +0.000 C 
ATOM      2  O   UNL     1       2.043   7.825  17.916  0.00  0.00    +0.000 OA
ENDROOT
BRANCH   1   3
ATOM      3  C   UNL     1       2.849   5.641  18.354  0.00  0.00    +0.000 A 
ATOM      4  C   UNL     1       1.827   4.928  17.716  0.00  0.00    +0.000 A 
ATOM      5  C   UNL     1       1.695   3.555  17.927  0.00  0.00    +0.000 A 
ATOM      6  C   UNL     1       2.595   2.872  18.748  0.00  0.00    +0.000 A 
ATOM      7  C   UNL     1       3.563   3.605  19.441  0.00  0.00    +0.000 A 
ATOM      8  C   UNL     1       3.710   4.982  19.231  0.00  0.00    +0.000 A 
BRANCH   6   9
ATOM      9  N   UNL     1       2.383   1.526  19.051  0.00  0.00    +0.000 N 
ATOM     10  H   UNL     1       2.376   1.321  20.046  0.00  0.00    +0.000 HD
ATOM     11  H   UNL     1       1.585   1.114  18.571  0.00  0.00    +0.000 HD
ENDBRANCH   6   9
ENDBRANCH   1   3
BRANCH   1  12
ATOM     12  O   UNL     1       4.290   7.343  17.699  0.00  0.00    +0.000 OA
BRANCH  12  13
ATOM     13  C   UNL     1       4.750   6.698  16.504  0.00  0.00    +0.000 C 
BRANCH  13  14
ATOM     14  N   UNL     1       6.195   6.378  16.468  0.00  0.00    +0.000 NA
BRANCH  14  16
ATOM     15  C   UNL     1       5.107   4.175  15.880  0.00  0.00    +0.000 C 
ATOM     16  C   UNL     1       6.423   4.992  15.955  0.00  0.00    +0.000 C 
ATOM     17  C   UNL     1       7.024   4.891  14.540  0.00  0.00    +0.000 C 
ENDBRANCH  14  16
BRANCH  14  18
ATOM     18  C   UNL     1       6.841   6.762  17.761  0.00  0.00    +0.000 C 
ATOM     19  C   UNL     1       7.678   5.662  18.439  0.00  0.00    +0.000 C 
ATOM     20  C   UNL     1       7.854   7.925  17.598  0.00  0.00    +0.000 C 
ENDBRANCH  14  18
ENDBRANCH  13  14
ENDBRANCH  12  13
ENDBRANCH   1  12
TORSDOF 7
ENDMDL
MODEL 3
REMARK VINA RESULT:      -6.4      1.037      1.416
REMARK  Name = 
REMARK  11 active torsions:
REMARK  status: ('A' for Active; 'I' for Inactive)
REMARK    1  A    between atoms: C_1  and  C_2
REMARK    2  A    between atoms: C_2  and  C_3
REMARK    3  A    between atoms: C_2  and  N_4
REMARK    4  A    between atoms: N_4  and  C_5
REMARK    5  A    between atoms: N_4  and  C_16
REMARK    6  A    between atoms: C_5  and  O_6
REMARK    7  A    between atoms: O_6  and  C_7
REMARK    8  A    between atoms: C_7  and  C_9
REMARK    9  A    between atoms: C_12  and  N_13
REMARK   10  A    between atoms: C_16  and  C_17
REMARK   11  A    between atoms: C_16  and  C_18
REMARK                            x       y       z     vdW  Elec       q    Type
REMARK                         _______ _______ _______ _____ _____    ______ ____
ROOT
ATOM      1  C   UNL     1       2.971   6.987  18.069  0.00  0.00    +0.000 C 
ATOM      2  O   UNL     1       2.073   7.801  17.927  0.00  0.00    +0.000 OA
ENDROOT
BRANCH   1   3
ATOM      3  C   UNL     1       2.696   5.550  18.326  0.00  0.00    +0.000 A 
ATOM      4  C   UNL     1       3.468   4.901  19.296  0.00  0.00    +0.000 A 
ATOM      5  C   UNL     1       3.193   3.577  19.639  0.00  0.00    +0.000 A 
ATOM      6  C   UNL     1       2.129   2.895  19.045  0.00  0.00    +0.000 A 
ATOM      7  C   UNL     1       1.413   3.526  18.022  0.00  0.00    +0.000 A 
ATOM      8  C   UNL     1       1.676   4.857  17.675  0.00  0.00    +0.000 A 
BRANCH   6   9
ATOM      9  N   UNL     1       1.937   1.536  19.301  0.00  0.00    +0.000 N 
ATOM     10  H   UNL     1       1.445   1.041  18.563  0.00  0.00    +0.000 HD
ATOM     11  H   UNL     1       2.780   1.047  19.593  0.00  0.00    +0.000 HD
ENDBRANCH   6   9
ENDBRANCH   1   3
BRANCH   1  12
ATOM     12  O   UNL     1       4.293   7.173  17.856  0.00  0.00    +0.000 OA
BRANCH  12  13
ATOM     13  C   UNL     1       4.760   6.721  16.578  0.00  0.00    +0.000 C 
BRANCH  13  14
ATOM     14  N   UNL     1       6.200   6.383  16.509  0.00  0.00    +0.000 NA
BRANCH  14  16
ATOM     15  C   UNL     1       5.075   4.185  15.975  0.00  0.00    +0.000 C 
ATOM     16  C   UNL     1       6.399   4.992  15.996  0.00  0.00    +0.000 C 
ATOM     17  C   UNL     1       6.945   4.879  14.560  0.00  0.00    +0.000 C 
ENDBRANCH  14  16
BRANCH  14  18
ATOM     18  C   UNL     1       6.882   6.764  17.784  0.00  0.00    +0.000 C 
ATOM     19  C   UNL     1       7.744   5.666  18.432  0.00  0.00    +0.000 C 
ATOM     20  C   UNL     1       7.883   7.934  17.597  0.00  0.00    +0.000 C 
ENDBRANCH  14  18
ENDBRANCH  13  14
ENDBRANCH  12  13
ENDBRANCH   1  12
TORSDOF 7
ENDMDL
MODEL 4
REMARK VINA RESULT:      -6.3      2.201      5.878
REMARK  Name = 
REMARK  11 active torsions:
REMARK  status: ('A' for Active; 'I' for Inactive)
REMARK    1  A    between atoms: C_1  and  C_2
REMARK    2  A    between atoms: C_2  and  C_3
REMARK    3  A    between atoms: C_2  and  N_4
REMARK    4  A    between atoms: N_4  and  C_5
REMARK    5  A    between atoms: N_4  and  C_16
REMARK    6  A    between atoms: C_5  and  O_6
REMARK    7  A    between atoms: O_6  and  C_7
REMARK    8  A    between atoms: C_7  and  C_9
REMARK    9  A    between atoms: C_12  and  N_13
REMARK   10  A    between atoms: C_16  and  C_17
REMARK   11  A    between atoms: C_16  and  C_18
REMARK                            x       y       z     vdW  Elec       q    Type
REMARK                         _______ _______ _______ _____ _____    ______ ____
ROOT
ATOM      1  C   UNL     1       5.630   4.119  15.757  0.00  0.00    +0.000 C 
ATOM      2  O   UNL     1       6.114   3.487  14.832  0.00  0.00    +0.000 OA
ENDROOT
BRANCH   1   3
ATOM      3  C   UNL     1       6.453   5.002  16.621  0.00  0.00    +0.000 A 
ATOM      4  C   UNL     1       6.302   6.386  16.473  0.00  0.00    +0.000 A 
ATOM      5  C   UNL     1       6.985   7.259  17.321  0.00  0.00    +0.000 A 
ATOM      6  C   UNL     1       7.801   6.767  18.341  0.00  0.00    +0.000 A 
ATOM      7  C   UNL     1       8.007   5.386  18.431  0.00  0.00    +0.000 A 
ATOM      8  C   UNL     1       7.320   4.500  17.591  0.00  0.00    +0.000 A 
BRANCH   6   9
ATOM      9  N   UNL     1       8.576   7.643  19.104  0.00  0.00    +0.000 N 
ATOM     10  H   UNL     1       9.462   7.893  18.674  0.00  0.00    +0.000 HD
ATOM     11  H   UNL     1       8.069   8.461  19.436  0.00  0.00    +0.000 HD
ENDBRANCH   6   9
ENDBRANCH   1   3
BRANCH   1  12
ATOM     12  O   UNL     1       4.320   4.278  16.050  0.00  0.00    +0.000 OA
BRANCH  12  13
ATOM     13  C   UNL     1       3.931   3.771  17.334  0.00  0.00    +0.000 C 
BRANCH  13  14
ATOM     14  N   UNL     1       2.659   4.306  17.872  0.00  0.00    +0.000 NA
BRANCH  14  16
ATOM     15  C   UNL     1       4.270   5.338  19.522  0.00  0.00    +0.000 C 
ATOM     16  C   UNL     1       2.909   5.461  18.788  0.00  0.00    +0.000 C 
ATOM     17  C   UNL     1       2.952   6.849  18.121  0.00  0.00    +0.000 C 
ENDBRANCH  14  16
BRANCH  14  18
ATOM     18  C   UNL     1       1.800   3.188  18.371  0.00  0.00    +0.000 C 
ATOM     19  C   UNL     1       2.548   1.906  18.778  0.00  0.00    +0.000 C 
ATOM     20  C   UNL     1       1.021   3.565  19.658  0.00  0.00    +0.000 C 
ENDBRANCH  14  18
ENDBRANCH  13  14
ENDBRANCH  12  13
ENDBRANCH   1  12
TORSDOF 7
ENDMDL
MODEL 5
REMARK VINA RESULT:      -6.2      2.186      6.139
REMARK  Name = 
REMARK  11 active torsions:
REMARK  status: ('A' for Active; 'I' for Inactive)
REMARK    1  A    between atoms: C_1  and  C_2
REMARK    2  A    between atoms: C_2  and  C_3
REMARK    3  A    between atoms: C_2  and  N_4
REMARK    4  A    between atoms: N_4  and  C_5
REMARK    5  A    between atoms: N_4  and  C_16
REMARK    6  A    between atoms: C_5  and  O_6
REMARK    7  A    between atoms: O_6  and  C_7
REMARK    8  A    between atoms: C_7  and  C_9
REMARK    9  A    between atoms: C_12  and  N_13
REMARK   10  A    between atoms: C_16  and  C_17
REMARK   11  A    between atoms: C_16  and  C_18
REMARK                            x       y       z     vdW  Elec       q    Type
REMARK                         _______ _______ _______ _____ _____    ______ ____
ROOT
ATOM      1  C   UNL     1       5.923   5.417  19.183  0.00  0.00    +0.000 C 
ATOM      2  O   UNL     1       6.855   5.309  19.963  0.00  0.00    +0.000 OA
ENDROOT
BRANCH   1   3
ATOM      3  C   UNL     1       6.106   5.290  17.715  0.00  0.00    +0.000 A 
ATOM      4  C   UNL     1       7.163   4.496  17.256  0.00  0.00    +0.000 A 
ATOM      5  C   UNL     1       7.326   4.271  15.888  0.00  0.00    +0.000 A 
ATOM      6  C   UNL     1       6.424   4.807  14.967  0.00  0.00    +0.000 A 
ATOM      7  C   UNL     1       5.418   5.662  15.429  0.00  0.00    +0.000 A 
ATOM      8  C   UNL     1       5.240   5.888  16.800  0.00  0.00    +0.000 A 
BRANCH   6   9
ATOM      9  N   UNL     1       6.663   4.682  13.597  0.00  0.00    +0.000 N 
ATOM     10  H   UNL     1       7.530   4.202  13.371  0.00  0.00    +0.000 HD
ATOM     11  H   UNL     1       5.874   4.312  13.071  0.00  0.00    +0.000 HD
ENDBRANCH   6   9
ENDBRANCH   1   3
BRANCH   1  12
ATOM     12  O   UNL     1       4.605   5.487  19.479  0.00  0.00    +0.000 OA
BRANCH  12  13
ATOM     13  C   UNL     1       3.945   4.217  19.560  0.00  0.00    +0.000 C 
BRANCH  13  14
ATOM     14  N   UNL     1       2.519   4.213  19.159  0.00  0.00    +0.000 NA
BRANCH  14  16
ATOM     15  C   UNL     1       2.164   3.633  21.592  0.00  0.00    +0.000 C 
ATOM     16  C   UNL     1       1.628   4.388  20.347  0.00  0.00    +0.000 C 
ATOM     17  C   UNL     1       1.429   5.837  20.828  0.00  0.00    +0.000 C 
ENDBRANCH  14  16
BRANCH  14  18
ATOM     18  C   UNL     1       2.245   3.065  18.240  0.00  0.00    +0.000 C 
ATOM     19  C   UNL     1       3.312   1.956  18.225  0.00  0.00    +0.000 C 
ATOM     20  C   UNL     1       0.948   2.301  18.612  0.00  0.00    +0.000 C 
ENDBRANCH  14  18
ENDBRANCH  13  14
ENDBRANCH  12  13
ENDBRANCH   1  12
TORSDOF 7
ENDMDL
MODEL 6
REMARK VINA RESULT:      -6.2      2.111      5.971
REMARK  Name = 
REMARK  11 active torsions:
REMARK  status: ('A' for Active; 'I' for Inactive)
REMARK    1  A    between atoms: C_1  and  C_2
REMARK    2  A    between atoms: C_2  and  C_3
REMARK    3  A    between atoms: C_2  and  N_4
REMARK    4  A    between atoms: N_4  and  C_5
REMARK    5  A    between atoms: N_4  and  C_16
REMARK    6  A    between atoms: C_5  and  O_6
REMARK    7  A    between atoms: O_6  and  C_7
REMARK    8  A    between atoms: C_7  and  C_9
REMARK    9  A    between atoms: C_12  and  N_13
REMARK   10  A    between atoms: C_16  and  C_17
REMARK   11  A    between atoms: C_16  and  C_18
REMARK                            x       y       z     vdW  Elec       q    Type
REMARK                         _______ _______ _______ _____ _____    ______ ____
ROOT
ATOM      1  C   UNL     1       5.205   4.109  19.069  0.00  0.00    +0.000 C 
ATOM      2  O   UNL     1       5.077   2.965  19.473  0.00  0.00    +0.000 OA
ENDROOT
BRANCH   1   3
ATOM      3  C   UNL     1       5.686   4.409  17.697  0.00  0.00    +0.000 A 
ATOM      4  C   UNL     1       7.035   4.745  17.537  0.00  0.00    +0.000 A 
ATOM      5  C   UNL     1       7.560   4.949  16.259  0.00  0.00    +0.000 A 
ATOM      6  C   UNL     1       6.756   4.793  15.128  0.00  0.00    +0.000 A 
ATOM      7  C   UNL     1       5.393   4.534  15.302  0.00  0.00    +0.000 A 
ATOM      8  C   UNL     1       4.858   4.319  16.579  0.00  0.00    +0.000 A 
BRANCH   6   9
ATOM      9  N   UNL     1       7.254   5.119  13.865  0.00  0.00    +0.000 N 
ATOM     10  H   UNL     1       6.815   5.933  13.445  0.00  0.00    +0.000 HD
ATOM     11  H   UNL     1       8.270   5.167  13.820  0.00  0.00    +0.000 HD
ENDBRANCH   6   9
ENDBRANCH   1   3
BRANCH   1  12
ATOM     12  O   UNL     1       4.793   5.247  19.673  0.00  0.00    +0.000 OA
BRANCH  12  13
ATOM     13  C   UNL     1       3.391   5.291  19.968  0.00  0.00    +0.000 C 
BRANCH  13  14
ATOM     14  N   UNL     1       2.497   5.428  18.796  0.00  0.00    +0.000 NA
BRANCH  14  16
ATOM     15  C   UNL     1       2.002   7.646  19.898  0.00  0.00    +0.000 C 
ATOM     16  C   UNL     1       2.129   6.859  18.568  0.00  0.00    +0.000 C 
ATOM     17  C   UNL     1       3.123   7.680  17.725  0.00  0.00    +0.000 C 
ENDBRANCH  14  16
BRANCH  14  18
ATOM     18  C   UNL     1       1.391   4.423  18.870  0.00  0.00    +0.000 C 
ATOM     19  C   UNL     1       1.677   3.069  18.197  0.00  0.00    +0.000 C 
ATOM     20  C   UNL     1       1.046   4.026  20.329  0.00  0.00    +0.000 C 
ENDBRANCH  14  18
ENDBRANCH  13  14
ENDBRANCH  12  13
ENDBRANCH   1  12
TORSDOF 7
ENDMDL
MODEL 7
REMARK VINA RESULT:      -6.2      0.729      1.467
REMARK  Name = 
REMARK  11 active torsions:
REMARK  status: ('A' for Active; 'I' for Inactive)
REMARK    1  A    between atoms: C_1  and  C_2
REMARK    2  A    between atoms: C_2  and  C_3
REMARK    3  A    between atoms: C_2  and  N_4
REMARK    4  A    between atoms: N_4  and  C_5
REMARK    5  A    between atoms: N_4  and  C_16
REMARK    6  A    between atoms: C_5  and  O_6
REMARK    7  A    between atoms: O_6  and  C_7
REMARK    8  A    between atoms: C_7  and  C_9
REMARK    9  A    between atoms: C_12  and  N_13
REMARK   10  A    between atoms: C_16  and  C_17
REMARK   11  A    between atoms: C_16  and  C_18
REMARK                            x       y       z     vdW  Elec       q    Type
REMARK                         _______ _______ _______ _____ _____    ______ ____
ROOT
ATOM      1  C   UNL     1       2.968   7.507  17.840  0.00  0.00    +0.000 C 
ATOM      2  O   UNL     1       2.225   8.292  17.275  0.00  0.00    +0.000 OA
ENDROOT
BRANCH   1   3
ATOM      3  C   UNL     1       2.454   6.306  18.545  0.00  0.00    +0.000 A 
ATOM      4  C   UNL     1       2.316   6.374  19.936  0.00  0.00    +0.000 A 
ATOM      5  C   UNL     1       1.754   5.305  20.637  0.00  0.00    +0.000 A 
ATOM      6  C   UNL     1       1.297   4.173  19.960  0.00  0.00    +0.000 A 
ATOM      7  C   UNL     1       1.510   4.082  18.581  0.00  0.00    +0.000 A 
ATOM      8  C   UNL     1       2.065   5.151  17.866  0.00  0.00    +0.000 A 
BRANCH   6   9
ATOM      9  N   UNL     1       0.851   3.061  20.676  0.00  0.00    +0.000 N 
ATOM     10  H   UNL     1       1.127   2.170  20.273  0.00  0.00    +0.000 HD
ATOM     11  H   UNL     1       1.049   3.105  21.674  0.00  0.00    +0.000 HD
ENDBRANCH   6   9
ENDBRANCH   1   3
BRANCH   1  12
ATOM     12  O   UNL     1       4.319   7.470  17.791  0.00  0.00    +0.000 OA
BRANCH  12  13
ATOM     13  C   UNL     1       4.854   6.673  16.726  0.00  0.00    +0.000 C 
BRANCH  13  14
ATOM     14  N   UNL     1       6.112   5.956  17.036  0.00  0.00    +0.000 NA
BRANCH  14  16
ATOM     15  C   UNL     1       4.865   4.211  15.700  0.00  0.00    +0.000 C 
ATOM     16  C   UNL     1       6.241   4.719  16.206  0.00  0.00    +0.000 C 
ATOM     17  C   UNL     1       7.097   4.852  14.932  0.00  0.00    +0.000 C 
ENDBRANCH  14  16
BRANCH  14  18
ATOM     18  C   UNL     1       6.281   5.829  18.516  0.00  0.00    +0.000 C 
ATOM     19  C   UNL     1       5.654   4.576  19.152  0.00  0.00    +0.000 C 
ATOM     20  C   UNL     1       7.771   5.729  18.938  0.00  0.00    +0.000 C 
ENDBRANCH  14  18
ENDBRANCH  13  14
ENDBRANCH  12  13
ENDBRANCH   1  12
TORSDOF 7
ENDMDL
MODEL 8
REMARK VINA RESULT:      -6.2      2.288      6.086
REMARK  Name = 
REMARK  11 active torsions:
REMARK  status: ('A' for Active; 'I' for Inactive)
REMARK    1  A    between atoms: C_1  and  C_2
REMARK    2  A    between atoms: C_2  and  C_3
REMARK    3  A    between atoms: C_2  and  N_4
REMARK    4  A    between atoms: N_4  and  C_5
REMARK    5  A    between atoms: N_4  and  C_16
REMARK    6  A    between atoms: C_5  and  O_6
REMARK    7  A    between atoms: O_6  and  C_7
REMARK    8  A    between atoms: C_7  and  C_9
REMARK    9  A    between atoms: C_12  and  N_13
REMARK   10  A    between atoms: C_16  and  C_17
REMARK   11  A    between atoms: C_16  and  C_18
REMARK                            x       y       z     vdW  Elec       q    Type
REMARK                         _______ _______ _______ _____ _____    ______ ____
ROOT
ATOM      1  C   UNL     1       4.675   4.907  19.228  0.00  0.00    +0.000 C 
ATOM      2  O   UNL     1       4.006   5.798  19.726  0.00  0.00    +0.000 OA
ENDROOT
BRANCH   1   3
ATOM      3  C   UNL     1       5.384   5.084  17.936  0.00  0.00    +0.000 A 
ATOM      4  C   UNL     1       6.669   4.542  17.816  0.00  0.00    +0.000 A 
ATOM      5  C   UNL     1       7.344   4.603  16.596  0.00  0.00    +0.000 A 
ATOM      6  C   UNL     1       6.737   5.175  15.476  0.00  0.00    +0.000 A 
ATOM      7  C   UNL     1       5.486   5.782  15.625  0.00  0.00    +0.000 A 
ATOM      8  C   UNL     1       4.796   5.721  16.843  0.00  0.00    +0.000 A 
BRANCH   6   9
ATOM      9  N   UNL     1       7.463   5.343  14.296  0.00  0.00    +0.000 N 
ATOM     10  H   UNL     1       7.335   4.594  13.621  0.00  0.00    +0.000 HD
ATOM     11  H   UNL     1       7.355   6.262  13.870  0.00  0.00    +0.000 HD
ENDBRANCH   6   9
ENDBRANCH   1   3
BRANCH   1  12
ATOM     12  O   UNL     1       5.030   3.730  19.792  0.00  0.00    +0.000 OA
BRANCH  12  13
ATOM     13  C   UNL     1       3.930   2.883  20.146  0.00  0.00    +0.000 C 
BRANCH  13  14
ATOM     14  N   UNL     1       2.689   3.088  19.363  0.00  0.00    +0.000 NA
BRANCH  14  16
ATOM     15  C   UNL     1       1.804   2.631  21.685  0.00  0.00    +0.000 C 
ATOM     16  C   UNL     1       1.496   3.167  20.262  0.00  0.00    +0.000 C 
ATOM     17  C   UNL     1       0.923   4.578  20.494  0.00  0.00    +0.000 C 
ENDBRANCH  14  16
BRANCH  14  18
ATOM     18  C   UNL     1       2.640   2.132  18.215  0.00  0.00    +0.000 C 
ATOM     19  C   UNL     1       2.719   2.769  16.816  0.00  0.00    +0.000 C 
ATOM     20  C   UNL     1       3.830   1.138  18.217  0.00  0.00    +0.000 C 
ENDBRANCH  14  18
ENDBRANCH  13  14
ENDBRANCH  12  13
ENDBRANCH   1  12
TORSDOF 7
ENDMDL
MODEL 9
REMARK VINA RESULT:      -6.1      2.316      6.216
REMARK  Name = 
REMARK  11 active torsions:
REMARK  status: ('A' for Active; 'I' for Inactive)
REMARK    1  A    between atoms: C_1  and  C_2
REMARK    2  A    between atoms: C_2  and  C_3
REMARK    3  A    between atoms: C_2  and  N_4
REMARK    4  A    between atoms: N_4  and  C_5
REMARK    5  A    between atoms: N_4  and  C_16
REMARK    6  A    between atoms: C_5  and  O_6
REMARK    7  A    between atoms: O_6  and  C_7
REMARK    8  A    between atoms: C_7  and  C_9
REMARK    9  A    between atoms: C_12  and  N_13
REMARK   10  A    between atoms: C_16  and  C_17
REMARK   11  A    between atoms: C_16  and  C_18
REMARK                            x       y       z     vdW  Elec       q    Type
REMARK                         _______ _______ _______ _____ _____    ______ ____
ROOT
ATOM      1  C   UNL     1       5.909   4.565  19.007  0.00  0.00    +0.000 C 
ATOM      2  O   UNL     1       6.550   5.344  19.693  0.00  0.00    +0.000 OA
ENDROOT
BRANCH   1   3
ATOM      3  C   UNL     1       6.042   4.525  17.528  0.00  0.00    +0.000 A 
ATOM      4  C   UNL     1       7.235   4.995  16.968  0.00  0.00    +0.000 A 
ATOM      5  C   UNL     1       7.448   4.898  15.591  0.00  0.00    +0.000 A 
ATOM      6  C   UNL     1       6.491   4.306  14.765  0.00  0.00    +0.000 A 
ATOM      7  C   UNL     1       5.271   3.911  15.323  0.00  0.00    +0.000 A 
ATOM      8  C   UNL     1       5.050   3.997  16.703  0.00  0.00    +0.000 A 
BRANCH   6   9
ATOM      9  N   UNL     1       6.656   4.324  13.378  0.00  0.00    +0.000 N 
ATOM     10  H   UNL     1       6.940   3.432  12.984  0.00  0.00    +0.000 HD
ATOM     11  H   UNL     1       5.872   4.733  12.874  0.00  0.00    +0.000 HD
ENDBRANCH   6   9
ENDBRANCH   1   3
BRANCH   1  12
ATOM     12  O   UNL     1       5.141   3.535  19.428  0.00  0.00    +0.000 OA
BRANCH  12  13
ATOM     13  C   UNL     1       3.922   3.926  20.075  0.00  0.00    +0.000 C 
BRANCH  13  14
ATOM     14  N   UNL     1       2.692   3.768  19.265  0.00  0.00    +0.000 NA
BRANCH  14  16
ATOM     15  C   UNL     1       1.983   5.861  20.490  0.00  0.00    +0.000 C 
ATOM     16  C   UNL     1       1.952   5.064  19.160  0.00  0.00    +0.000 C 
ATOM     17  C   UNL     1       2.477   6.052  18.103  0.00  0.00    +0.000 C 
ENDBRANCH  14  16
BRANCH  14  18
ATOM     18  C   UNL     1       1.933   2.560  19.711  0.00  0.00    +0.000 C 
ATOM     19  C   UNL     1       1.475   2.567  21.180  0.00  0.00    +0.000 C 
ATOM     20  C   UNL     1       0.606   2.369  18.930  0.00  0.00    +0.000 C 
ENDBRANCH  14  18
ENDBRANCH  13  14
ENDBRANCH  12  13
ENDBRANCH   1  12
TORSDOF 7
ENDMDL
