MODEL 1
REMARK VINA RESULT:      -7.5      0.000      0.000
REMARK  Name = 
REMARK  9 active torsions:
REMARK  status: ('A' for Active; 'I' for Inactive)
REMARK    1  A    between atoms: C_1  and  O_2
REMARK    2  A    between atoms: O_2  and  C_3
REMARK    3  A    between atoms: C_7  and  C_8
REMARK    4  A    between atoms: N_10  and  C_11
REMARK    5  A    between atoms: C_13  and  C_14
REMARK    6  A    between atoms: C_14  and  C_15
REMARK    7  A    between atoms: C_15  and  C_16
REMARK    8  A    between atoms: C_15  and  C_17
REMARK    9  A    between atoms: N_19  and  C_20
REMARK                            x       y       z     vdW  Elec       q    Type
REMARK                         _______ _______ _______ _____ _____    ______ ____
ROOT
ATOM      1  C   UNL     1       4.261   4.252  17.920  0.00  0.00    +0.000 C 
ATOM      2  O   UNL     1       5.095   3.389  18.139  0.00  0.00    +0.000 OA
ATOM      3  N   UNL     1       4.388   5.157  16.804  0.00  0.00    +0.000 N 
ATOM      4  H   UNL     1       3.785   5.967  16.750  0.00  0.00    +0.000 HD
ENDROOT
BRANCH   1   9
ATOM      5  C   UNL     1       1.817   5.839  20.334  0.00  0.00    +0.000 A 
ATOM      6  C   UNL     1       0.965   4.749  20.556  0.00  0.00    +0.000 A 
ATOM      7  C   UNL     1       1.183   3.528  19.923  0.00  0.00    +0.000 A 
ATOM      8  C   UNL     1       2.268   3.385  19.067  0.00  0.00    +0.000 A 
ATOM      9  C   UNL     1       3.136   4.466  18.852  0.00  0.00    +0.000 A 
ATOM     10  C   UNL     1       2.907   5.701  19.472  0.00  0.00    +0.000 A 
BRANCH   5  12
ATOM     11  C   UNL     1       1.556   8.213  20.348  0.00  0.00    +0.000 C 
ATOM     12  O   UNL     1       1.468   6.965  21.022  0.00  0.00    +0.000 OA
ENDBRANCH   5  12
ENDBRANCH   1   9
BRANCH   3  13
ATOM     13  C   UNL     1       5.369   4.992  15.827  0.00  0.00    +0.000 A 
ATOM     14  C   UNL     1       5.243   4.351  14.615  0.00  0.00    +0.000 A 
ATOM     15  C   UNL     1       6.475   4.539  13.950  0.00  0.00    +0.000 A 
ATOM     16  N   UNL     1       7.339   5.221  14.708  0.00  0.00    +0.000 NA
ATOM     17  N   UNL     1       6.665   5.453  15.849  0.00  0.00    +0.000 N 
ATOM     18  C   UNL     1       7.364   6.077  16.947  0.00  0.00    +0.000 C 
BRANCH  15  19
ATOM     19  C   UNL     1       6.833   4.101  12.567  0.00  0.00    +0.000 C 
BRANCH  19  20
ATOM     20  C   UNL     1       6.096   2.819  12.130  0.00  0.00    +0.000 C 
ATOM     21  C   UNL     1       4.757   3.124  11.453  0.00  0.00    +0.000 C 
ATOM     22  C   UNL     1       6.978   2.000  11.187  0.00  0.00    +0.000 C 
ENDBRANCH  19  20
ENDBRANCH  15  19
ENDBRANCH   3  13
TORSDOF 5
ENDMDL
MODEL 2
REMARK VINA RESULT:      -7.5      1.407      2.131
REMARK  Name = 
REMARK  9 active torsions:
REMARK  status: ('A' for Active; 'I' for Inactive)
REMARK    1  A    between atoms: C_1  and  O_2
REMARK    2  A    between atoms: O_2  and  C_3
REMARK    3  A    between atoms: C_7  and  C_8
REMARK    4  A    between atoms: N_10  and  C_11
REMARK    5  A    between atoms: C_13  and  C_14
REMARK    6  A    between atoms: C_14  and  C_15
REMARK    7  A    between atoms: C_15  and  C_16
REMARK    8  A    between atoms: C_15  and  C_17
REMARK    9  A    between atoms: N_19  and  C_20
REMARK                            x       y       z     vdW  Elec       q    Type
REMARK                         _______ _______ _______ _____ _____    ______ ____
ROOT
ATOM      1  C   UNL     1       3.859   5.791  17.443  0.00  0.00    +0.000 C 
ATOM      2  O   UNL     1       3.914   6.831  16.807  0.00  0.00    +0.000 OA
ATOM      3  N   UNL     1       4.580   4.614  17.026  0.00  0.00    +0.000 N 
ATOM      4  H   UNL     1       4.378   3.726  17.465  0.00  0.00    +0.000 HD
ENDROOT
BRANCH   1   9
ATOM      5  C   UNL     1       1.591   4.399  20.134  0.00  0.00    +0.000 A 
ATOM      6  C   UNL     1       1.339   5.571  20.857  0.00  0.00    +0.000 A 
ATOM      7  C   UNL     1       1.905   6.785  20.477  0.00  0.00    +0.000 A 
ATOM      8  C   UNL     1       2.723   6.837  19.356  0.00  0.00    +0.000 A 
ATOM      9  C   UNL     1       2.969   5.671  18.615  0.00  0.00    +0.000 A 
ATOM     10  C   UNL     1       2.416   4.445  19.008  0.00  0.00    +0.000 A 
BRANCH   5  12
ATOM     11  C   UNL     1       1.519   2.687  21.798  0.00  0.00    +0.000 C 
ATOM     12  O   UNL     1       0.970   3.292  20.636  0.00  0.00    +0.000 OA
ENDBRANCH   5  12
ENDBRANCH   1   9
BRANCH   3  13
ATOM     13  C   UNL     1       5.503   4.645  15.981  0.00  0.00    +0.000 A 
ATOM     14  C   UNL     1       5.415   4.000  14.768  0.00  0.00    +0.000 A 
ATOM     15  C   UNL     1       6.538   4.423  14.024  0.00  0.00    +0.000 A 
ATOM     16  N   UNL     1       7.309   5.252  14.733  0.00  0.00    +0.000 NA
ATOM     17  N   UNL     1       6.686   5.344  15.922  0.00  0.00    +0.000 N 
ATOM     18  C   UNL     1       7.331   6.083  16.982  0.00  0.00    +0.000 C 
BRANCH  15  19
ATOM     19  C   UNL     1       6.873   4.069  12.611  0.00  0.00    +0.000 C 
BRANCH  19  20
ATOM     20  C   UNL     1       6.112   2.828  12.102  0.00  0.00    +0.000 C 
ATOM     21  C   UNL     1       4.803   3.200  11.401  0.00  0.00    +0.000 C 
ATOM     22  C   UNL     1       6.997   2.021  11.152  0.00  0.00    +0.000 C 
ENDBRANCH  19  20
ENDBRANCH  15  19
ENDBRANCH   3  13
TORSDOF 5
ENDMDL
MODEL 3
REMARK VINA RESULT:      -7.4      2.205      7.605
REMARK  Name = 
REMARK  9 active torsions:
REMARK  status: ('A' for Active; 'I' for Inactive)
REMARK    1  A    between atoms: C_1  and  O_2
REMARK    2  A    between atoms: O_2  and  C_3
REMARK    3  A    between atoms: C_7  and  C_8
REMARK    4  A    between atoms: N_10  and  C_11
REMARK    5  A    between atoms: C_13  and  C_14
REMARK    6  A    between atoms: C_14  and  C_15
REMARK    7  A    between atoms: C_15  and  C_16
REMARK    8  A    between atoms: C_15  and  C_17
REMARK    9  A    between atoms: N_19  and  C_20
REMARK                            x       y       z     vdW  Elec       q    Type
REMARK                         _______ _______ _______ _____ _____    ______ ____
ROOT
ATOM      1  C   UNL     1       5.473   5.234  15.627  0.00  0.00    +0.000 C 
ATOM      2  O   UNL     1       5.539   6.421  15.898  0.00  0.00    +0.000 OA
ATOM      3  N   UNL     1       4.986   4.269  16.582  0.00  0.00    +0.000 N 
ATOM      4  H   UNL     1       5.109   3.282  16.398  0.00  0.00    +0.000 HD
ENDROOT
BRANCH   1   9
ATOM      5  C   UNL     1       5.774   3.433  12.312  0.00  0.00    +0.000 A 
ATOM      6  C   UNL     1       7.048   3.867  11.923  0.00  0.00    +0.000 A 
ATOM      7  C   UNL     1       7.785   4.735  12.725  0.00  0.00    +0.000 A 
ATOM      8  C   UNL     1       7.254   5.168  13.934  0.00  0.00    +0.000 A 
ATOM      9  C   UNL     1       5.986   4.725  14.339  0.00  0.00    +0.000 A 
ATOM     10  C   UNL     1       5.234   3.868  13.524  0.00  0.00    +0.000 A 
BRANCH   5  12
ATOM     11  C   UNL     1       3.907   2.959  10.899  0.00  0.00    +0.000 C 
ATOM     12  O   UNL     1       5.178   2.591  11.417  0.00  0.00    +0.000 OA
ENDBRANCH   5  12
ENDBRANCH   1   9
BRANCH   3  13
ATOM     13  C   UNL     1       4.412   4.654  17.792  0.00  0.00    +0.000 A 
ATOM     14  C   UNL     1       3.072   4.692  18.108  0.00  0.00    +0.000 A 
ATOM     15  C   UNL     1       3.008   5.049  19.473  0.00  0.00    +0.000 A 
ATOM     16  N   UNL     1       4.226   5.262  19.980  0.00  0.00    +0.000 NA
ATOM     17  N   UNL     1       5.056   5.053  18.941  0.00  0.00    +0.000 N 
ATOM     18  C   UNL     1       6.463   5.321  19.119  0.00  0.00    +0.000 C 
BRANCH  15  19
ATOM     19  C   UNL     1       1.784   5.159  20.324  0.00  0.00    +0.000 C 
BRANCH  19  20
ATOM     20  C   UNL     1       1.255   3.790  20.798  0.00  0.00    +0.000 C 
ATOM     21  C   UNL     1       0.851   2.889  19.628  0.00  0.00    +0.000 C 
ATOM     22  C   UNL     1       2.308   3.086  21.653  0.00  0.00    +0.000 C 
ENDBRANCH  19  20
ENDBRANCH  15  19
ENDBRANCH   3  13
TORSDOF 5
ENDMDL
MODEL 4
REMARK VINA RESULT:      -7.4      1.352      1.552
REMARK  Name = 
REMARK  9 active torsions:
REMARK  status: ('A' for Active; 'I' for Inactive)
REMARK    1  A    between atoms: C_1  and  O_2
REMARK    2  A    between atoms: O_2  and  C_3
REMARK    3  A    between atoms: C_7  and  C_8
REMARK    4  A    between atoms: N_10  and  C_11
REMARK    5  A    between atoms: C_13  and  C_14
REMARK    6  A    between atoms: C_14  and  C_15
REMARK    7  A    between atoms: C_15  and  C_16
REMARK    8  A    between atoms: C_15  and  C_17
REMARK    9  A    between atoms: N_19  and  C_20
REMARK                            x       y       z     vdW  Elec       q    Type
REMARK                         _______ _______ _______ _____ _____    ______ ____
ROOT
ATOM      1  C   UNL     1       4.069   6.094  17.586  0.00  0.00    +0.000 C 
ATOM      2  O   UNL     1       4.451   7.074  16.968  0.00  0.00    +0.000 OA
ATOM      3  N   UNL     1       4.406   4.758  17.163  0.00  0.00    +0.000 N 
ATOM      4  H   UNL     1       3.934   3.969  17.584  0.00  0.00    +0.000 HD
ENDROOT
BRANCH   1   9
ATOM      5  C   UNL     1       1.689   7.525  20.157  0.00  0.00    +0.000 A 
ATOM      6  C   UNL     1       1.443   6.373  20.915  0.00  0.00    +0.000 A 
ATOM      7  C   UNL     1       2.035   5.157  20.585  0.00  0.00    +0.000 A 
ATOM      8  C   UNL     1       2.894   5.088  19.495  0.00  0.00    +0.000 A 
ATOM      9  C   UNL     1       3.160   6.240  18.740  0.00  0.00    +0.000 A 
ATOM     10  C   UNL     1       2.548   7.459  19.058  0.00  0.00    +0.000 A 
BRANCH   5  12
ATOM     11  C   UNL     1       1.121   8.954  21.985  0.00  0.00    +0.000 C 
ATOM     12  O   UNL     1       1.030   8.634  20.603  0.00  0.00    +0.000 OA
ENDBRANCH   5  12
ENDBRANCH   1   9
BRANCH   3  13
ATOM     13  C   UNL     1       5.316   4.516  16.134  0.00  0.00    +0.000 A 
ATOM     14  C   UNL     1       5.034   4.198  14.825  0.00  0.00    +0.000 A 
ATOM     15  C   UNL     1       6.280   4.151  14.162  0.00  0.00    +0.000 A 
ATOM     16  N   UNL     1       7.290   4.385  15.005  0.00  0.00    +0.000 NA
ATOM     17  N   UNL     1       6.690   4.568  16.196  0.00  0.00    +0.000 N 
ATOM     18  C   UNL     1       7.518   4.727  17.367  0.00  0.00    +0.000 C 
BRANCH  15  19
ATOM     19  C   UNL     1       6.523   3.917  12.706  0.00  0.00    +0.000 C 
BRANCH  19  20
ATOM     20  C   UNL     1       5.668   2.771  12.128  0.00  0.00    +0.000 C 
ATOM     21  C   UNL     1       4.461   3.290  11.342  0.00  0.00    +0.000 C 
ATOM     22  C   UNL     1       6.523   1.875  11.232  0.00  0.00    +0.000 C 
ENDBRANCH  19  20
ENDBRANCH  15  19
ENDBRANCH   3  13
TORSDOF 5
ENDMDL
MODEL 5
REMARK VINA RESULT:      -7.3      2.286      7.799
REMARK  Name = 
REMARK  9 active torsions:
REMARK  status: ('A' for Active; 'I' for Inactive)
REMARK    1  A    between atoms: C_1  and  O_2
REMARK    2  A    between atoms: O_2  and  C_3
REMARK    3  A    between atoms: C_7  and  C_8
REMARK    4  A    between atoms: N_10  and  C_11
REMARK    5  A    between atoms: C_13  and  C_14
REMARK    6  A    between atoms: C_14  and  C_15
REMARK    7  A    between atoms: C_15  and  C_16
REMARK    8  A    between atoms: C_15  and  C_17
REMARK    9  A    between atoms: N_19  and  C_20
REMARK                            x       y       z     vdW  Elec       q    Type
REMARK                         _______ _______ _______ _____ _____    ______ ____
ROOT
ATOM      1  C   UNL     1       5.666   5.042  15.438  0.00  0.00    +0.000 C 
ATOM      2  O   UNL     1       5.459   6.228  15.630  0.00  0.00    +0.000 OA
ATOM      3  N   UNL     1       5.535   4.072  16.497  0.00  0.00    +0.000 N 
ATOM      4  H   UNL     1       5.883   3.133  16.357  0.00  0.00    +0.000 HD
ENDROOT
BRANCH   1   9
ATOM      5  C   UNL     1       6.031   3.142  12.185  0.00  0.00    +0.000 A 
ATOM      6  C   UNL     1       7.159   3.786  11.662  0.00  0.00    +0.000 A 
ATOM      7  C   UNL     1       7.778   4.823  12.355  0.00  0.00    +0.000 A 
ATOM      8  C   UNL     1       7.277   5.216  13.590  0.00  0.00    +0.000 A 
ATOM      9  C   UNL     1       6.157   4.566  14.129  0.00  0.00    +0.000 A 
ATOM     10  C   UNL     1       5.521   3.536  13.424  0.00  0.00    +0.000 A 
BRANCH   5  12
ATOM     11  C   UNL     1       6.384   1.053  11.081  0.00  0.00    +0.000 C 
ATOM     12  O   UNL     1       5.536   2.152  11.385  0.00  0.00    +0.000 OA
ENDBRANCH   5  12
ENDBRANCH   1   9
BRANCH   3  13
ATOM     13  C   UNL     1       5.008   4.407  17.743  0.00  0.00    +0.000 A 
ATOM     14  C   UNL     1       3.730   4.175  18.201  0.00  0.00    +0.000 A 
ATOM     15  C   UNL     1       3.718   4.605  19.546  0.00  0.00    +0.000 A 
ATOM     16  N   UNL     1       4.900   5.114  19.906  0.00  0.00    +0.000 NA
ATOM     17  N   UNL     1       5.652   5.018  18.795  0.00  0.00    +0.000 N 
ATOM     18  C   UNL     1       6.974   5.598  18.806  0.00  0.00    +0.000 C 
BRANCH  15  19
ATOM     19  C   UNL     1       2.588   4.504  20.519  0.00  0.00    +0.000 C 
BRANCH  19  20
ATOM     20  C   UNL     1       1.916   3.116  20.522  0.00  0.00    +0.000 C 
ATOM     21  C   UNL     1       1.599   2.631  21.940  0.00  0.00    +0.000 C 
ATOM     22  C   UNL     1       0.636   3.148  19.688  0.00  0.00    +0.000 C 
ENDBRANCH  19  20
ENDBRANCH  15  19
ENDBRANCH   3  13
TORSDOF 5
ENDMDL
MODEL 6
REMARK VINA RESULT:      -7.1      1.334      2.026
REMARK  Name = 
REMARK  9 active torsions:
REMARK  status: ('A' for Active; 'I' for Inactive)
REMARK    1  A    between atoms: C_1  and  O_2
REMARK    2  A    between atoms: O_2  and  C_3
REMARK    3  A    between atoms: C_7  and  C_8
REMARK    4  A    between atoms: N_10  and  C_11
REMARK    5  A    between atoms: C_13  and  C_14
REMARK    6  A    between atoms: C_14  and  C_15
REMARK    7  A    between atoms: C_15  and  C_16
REMARK    8  A    between atoms: C_15  and  C_17
REMARK    9  A    between atoms: N_19  and  C_20
REMARK                            x       y       z     vdW  Elec       q    Type
REMARK                         _______ _______ _______ _____ _____    ______ ____
ROOT
ATOM      1  C   UNL     1       4.921   4.461  18.144  0.00  0.00    +0.000 C 
ATOM      2  O   UNL     1       6.030   4.033  18.418  0.00  0.00    +0.000 OA
ATOM      3  N   UNL     1       4.611   4.965  16.829  0.00  0.00    +0.000 N 
ATOM      4  H   UNL     1       3.750   5.474  16.682  0.00  0.00    +0.000 HD
ENDROOT
BRANCH   1   9
ATOM      5  C   UNL     1       2.706   3.765  21.133  0.00  0.00    +0.000 A 
ATOM      6  C   UNL     1       1.905   4.913  21.104  0.00  0.00    +0.000 A 
ATOM      7  C   UNL     1       2.092   5.894  20.133  0.00  0.00    +0.000 A 
ATOM      8  C   UNL     1       3.081   5.726  19.172  0.00  0.00    +0.000 A 
ATOM      9  C   UNL     1       3.878   4.571  19.184  0.00  0.00    +0.000 A 
ATOM     10  C   UNL     1       3.704   3.593  20.172  0.00  0.00    +0.000 A 
BRANCH   5  12
ATOM     11  C   UNL     1       1.113   2.308  22.155  0.00  0.00    +0.000 C 
ATOM     12  O   UNL     1       2.403   2.903  22.147  0.00  0.00    +0.000 OA
ENDBRANCH   5  12
ENDBRANCH   1   9
BRANCH   3  13
ATOM     13  C   UNL     1       5.499   4.837  15.762  0.00  0.00    +0.000 A 
ATOM     14  C   UNL     1       5.371   4.021  14.660  0.00  0.00    +0.000 A 
ATOM     15  C   UNL     1       6.469   4.324  13.826  0.00  0.00    +0.000 A 
ATOM     16  N   UNL     1       7.264   5.245  14.380  0.00  0.00    +0.000 NA
ATOM     17  N   UNL     1       6.680   5.515  15.562  0.00  0.00    +0.000 N 
ATOM     18  C   UNL     1       7.359   6.398  16.480  0.00  0.00    +0.000 C 
BRANCH  15  19
ATOM     19  C   UNL     1       6.758   3.765  12.470  0.00  0.00    +0.000 C 
BRANCH  19  20
ATOM     20  C   UNL     1       5.768   2.660  12.050  0.00  0.00    +0.000 C 
ATOM     21  C   UNL     1       4.520   3.231  11.369  0.00  0.00    +0.000 C 
ATOM     22  C   UNL     1       6.456   1.663  11.117  0.00  0.00    +0.000 C 
ENDBRANCH  19  20
ENDBRANCH  15  19
ENDBRANCH   3  13
TORSDOF 5
ENDMDL
MODEL 7
REMARK VINA RESULT:      -6.9      2.232      7.577
REMARK  Name = 
REMARK  9 active torsions:
REMARK  status: ('A' for Active; 'I' for Inactive)
REMARK    1  A    between atoms: C_1  and  O_2
REMARK    2  A    between atoms: O_2  and  C_3
REMARK    3  A    between atoms: C_7  and  C_8
REMARK    4  A    between atoms: N_10  and  C_11
REMARK    5  A    between atoms: C_13  and  C_14
REMARK    6  A    between atoms: C_14  and  C_15
REMARK    7  A    between atoms: C_15  and  C_16
REMARK    8  A    between atoms: C_15  and  C_17
REMARK    9  A    between atoms: N_19  and  C_20
REMARK                            x       y       z     vdW  Elec       q    Type
REMARK                         _______ _______ _______ _____ _____    ______ ____
ROOT
ATOM      1  C   UNL     1       5.337   4.665  15.835  0.00  0.00    +0.000 C 
ATOM      2  O   UNL     1       4.874   5.754  16.134  0.00  0.00    +0.000 OA
ATOM      3  N   UNL     1       5.463   3.608  16.808  0.00  0.00    +0.000 N 
ATOM      4  H   UNL     1       6.008   2.786  16.581  0.00  0.00    +0.000 HD
ENDROOT
BRANCH   1   9
ATOM      5  C   UNL     1       5.754   3.475  12.267  0.00  0.00    +0.000 A 
ATOM      6  C   UNL     1       6.986   4.068  11.965  0.00  0.00    +0.000 A 
ATOM      7  C   UNL     1       7.658   4.845  12.905  0.00  0.00    +0.000 A 
ATOM      8  C   UNL     1       7.104   5.025  14.166  0.00  0.00    +0.000 A 
ATOM      9  C   UNL     1       5.878   4.422  14.484  0.00  0.00    +0.000 A 
ATOM     10  C   UNL     1       5.191   3.656  13.532  0.00  0.00    +0.000 A 
BRANCH   5  12
ATOM     11  C   UNL     1       3.860   2.979  10.900  0.00  0.00    +0.000 C 
ATOM     12  O   UNL     1       5.220   2.751  11.241  0.00  0.00    +0.000 OA
ENDBRANCH   5  12
ENDBRANCH   1   9
BRANCH   3  13
ATOM     13  C   UNL     1       4.916   3.711  18.086  0.00  0.00    +0.000 A 
ATOM     14  C   UNL     1       3.791   3.080  18.568  0.00  0.00    +0.000 A 
ATOM     15  C   UNL     1       3.711   3.427  19.934  0.00  0.00    +0.000 A 
ATOM     16  N   UNL     1       4.698   4.255  20.287  0.00  0.00    +0.000 NA
ATOM     17  N   UNL     1       5.392   4.442  19.150  0.00  0.00    +0.000 N 
ATOM     18  C   UNL     1       6.475   5.397  19.153  0.00  0.00    +0.000 C 
BRANCH  15  19
ATOM     19  C   UNL     1       2.709   2.943  20.934  0.00  0.00    +0.000 C 
BRANCH  19  20
ATOM     20  C   UNL     1       1.322   3.594  20.761  0.00  0.00    +0.000 C 
ATOM     21  C   UNL     1       1.415   5.110  20.563  0.00  0.00    +0.000 C 
ATOM     22  C   UNL     1       0.587   2.962  19.578  0.00  0.00    +0.000 C 
ENDBRANCH  19  20
ENDBRANCH  15  19
ENDBRANCH   3  13
TORSDOF 5
ENDMDL
MODEL 8
REMARK VINA RESULT:      -6.9      2.089      3.016
REMARK  Name = 
REMARK  9 active torsions:
REMARK  status: ('A' for Active; 'I' for Inactive)
REMARK    1  A    between atoms: C_1  and  O_2
REMARK    2  A    between atoms: O_2  and  C_3
REMARK    3  A    between atoms: C_7  and  C_8
REMARK    4  A    between atoms: N_10  and  C_11
REMARK    5  A    between atoms: C_13  and  C_14
REMARK    6  A    between atoms: C_14  and  C_15
REMARK    7  A    between atoms: C_15  and  C_16
REMARK    8  A    between atoms: C_15  and  C_17
REMARK    9  A    between atoms: N_19  and  C_20
REMARK                            x       y       z     vdW  Elec       q    Type
REMARK                         _______ _______ _______ _____ _____    ______ ____
ROOT
ATOM      1  C   UNL     1       3.380   6.654  18.281  0.00  0.00    +0.000 C 
ATOM      2  O   UNL     1       3.349   5.473  18.583  0.00  0.00    +0.000 OA
ATOM      3  N   UNL     1       4.386   7.179  17.392  0.00  0.00    +0.000 N 
ATOM      4  H   UNL     1       4.497   8.180  17.301  0.00  0.00    +0.000 HD
ENDROOT
BRANCH   1   9
ATOM      5  C   UNL     1       1.002   9.549  18.819  0.00  0.00    +0.000 A 
ATOM      6  C   UNL     1       0.662   9.327  20.160  0.00  0.00    +0.000 A 
ATOM      7  C   UNL     1       1.192   8.250  20.865  0.00  0.00    +0.000 A 
ATOM      8  C   UNL     1       2.082   7.390  20.234  0.00  0.00    +0.000 A 
ATOM      9  C   UNL     1       2.442   7.614  18.897  0.00  0.00    +0.000 A 
ATOM     10  C   UNL     1       1.893   8.685  18.179  0.00  0.00    +0.000 A 
BRANCH   5  12
ATOM     11  C   UNL     1      -1.012  10.768  18.414  0.00  0.00    +0.000 C 
ATOM     12  O   UNL     1       0.395  10.640  18.266  0.00  0.00    +0.000 OA
ENDBRANCH   5  12
ENDBRANCH   1   9
BRANCH   3  13
ATOM     13  C   UNL     1       5.268   6.348  16.702  0.00  0.00    +0.000 A 
ATOM     14  C   UNL     1       4.949   5.304  15.863  0.00  0.00    +0.000 A 
ATOM     15  C   UNL     1       6.177   4.844  15.337  0.00  0.00    +0.000 A 
ATOM     16  N   UNL     1       7.210   5.526  15.841  0.00  0.00    +0.000 NA
ATOM     17  N   UNL     1       6.642   6.403  16.689  0.00  0.00    +0.000 N 
ATOM     18  C   UNL     1       7.502   7.228  17.503  0.00  0.00    +0.000 C 
BRANCH  15  19
ATOM     19  C   UNL     1       6.380   3.768  14.319  0.00  0.00    +0.000 C 
BRANCH  19  20
ATOM     20  C   UNL     1       6.071   4.233  12.881  0.00  0.00    +0.000 C 
ATOM     21  C   UNL     1       7.332   4.314  12.016  0.00  0.00    +0.000 C 
ATOM     22  C   UNL     1       5.056   3.292  12.230  0.00  0.00    +0.000 C 
ENDBRANCH  19  20
ENDBRANCH  15  19
ENDBRANCH   3  13
TORSDOF 5
ENDMDL
MODEL 9
REMARK VINA RESULT:      -6.9      1.926      2.824
REMARK  Name = 
REMARK  9 active torsions:
REMARK  status: ('A' for Active; 'I' for Inactive)
REMARK    1  A    between atoms: C_1  and  O_2
REMARK    2  A    between atoms: O_2  and  C_3
REMARK    3  A    between atoms: C_7  and  C_8
REMARK    4  A    between atoms: N_10  and  C_11
REMARK    5  A    between atoms: C_13  and  C_14
REMARK    6  A    between atoms: C_14  and  C_15
REMARK    7  A    between atoms: C_15  and  C_16
REMARK    8  A    between atoms: C_15  and  C_17
REMARK    9  A    between atoms: N_19  and  C_20
REMARK                            x       y       z     vdW  Elec       q    Type
REMARK                         _______ _______ _______ _____ _____    ______ ____
ROOT
ATOM      1  C   UNL     1       3.933   3.697  17.609  0.00  0.00    +0.000 C 
ATOM      2  O   UNL     1       3.130   3.914  16.716  0.00  0.00    +0.000 OA
ATOM      3  N   UNL     1       5.354   3.700  17.361  0.00  0.00    +0.000 N 
ATOM      4  H   UNL     1       5.982   3.345  18.069  0.00  0.00    +0.000 HD
ENDROOT
BRANCH   1   9
ATOM      5  C   UNL     1       3.741   2.190  21.074  0.00  0.00    +0.000 A 
ATOM      6  C   UNL     1       2.516   2.722  21.495  0.00  0.00    +0.000 A 
ATOM      7  C   UNL     1       1.777   3.562  20.665  0.00  0.00    +0.000 A 
ATOM      8  C   UNL     1       2.256   3.866  19.397  0.00  0.00    +0.000 A 
ATOM      9  C   UNL     1       3.474   3.323  18.961  0.00  0.00    +0.000 A 
ATOM     10  C   UNL     1       4.228   2.495  19.802  0.00  0.00    +0.000 A 
BRANCH   5  12
ATOM     11  C   UNL     1       5.517   0.686  21.613  0.00  0.00    +0.000 C 
ATOM     12  O   UNL     1       4.346   1.392  22.002  0.00  0.00    +0.000 OA
ENDBRANCH   5  12
ENDBRANCH   1   9
BRANCH   3  13
ATOM     13  C   UNL     1       5.890   4.113  16.142  0.00  0.00    +0.000 A 
ATOM     14  C   UNL     1       5.870   3.432  14.946  0.00  0.00    +0.000 A 
ATOM     15  C   UNL     1       6.447   4.303  13.996  0.00  0.00    +0.000 A 
ATOM     16  N   UNL     1       6.844   5.447  14.561  0.00  0.00    +0.000 NA
ATOM     17  N   UNL     1       6.531   5.298  15.861  0.00  0.00    +0.000 N 
ATOM     18  C   UNL     1       6.941   6.324  16.790  0.00  0.00    +0.000 C 
BRANCH  15  19
ATOM     19  C   UNL     1       6.598   4.070  12.527  0.00  0.00    +0.000 C 
BRANCH  19  20
ATOM     20  C   UNL     1       5.845   2.818  12.035  0.00  0.00    +0.000 C 
ATOM     21  C   UNL     1       4.551   3.174  11.298  0.00  0.00    +0.000 C 
ATOM     22  C   UNL     1       6.747   1.986  11.122  0.00  0.00    +0.000 C 
ENDBRANCH  19  20
ENDBRANCH  15  19
ENDBRANCH   3  13
TORSDOF 5
ENDMDL
