MODEL 1
REMARK VINA RESULT:      -8.0      0.000      0.000
REMARK  Name = 
REMARK  7 active torsions:
REMARK  status: ('A' for Active; 'I' for Inactive)
REMARK    1  A    between atoms: C_1  and  C_2
REMARK    2  A    between atoms: C_2  and  C_4
REMARK    3  A    between atoms: C_8  and  C_9
REMARK    4  A    between atoms: C_9  and  C_10
REMARK    5  A    between atoms: C_9  and  C_15
REMARK    6  A    between atoms: C_10  and  C_11
REMARK    7  A    between atoms: C_20  and  C_21
REMARK                            x       y       z     vdW  Elec       q    Type
REMARK                         _______ _______ _______ _____ _____    ______ ____
ROOT
ATOM      1  C   UNL     1       1.129  10.716  19.195  0.00  0.00    +0.000 A 
ATOM      2  C   UNL     1       1.864  10.441  18.045  0.00  0.00    +0.000 A 
ATOM      3  C   UNL     1       2.392   9.169  17.831  0.00  0.00    +0.000 A 
ATOM      4  C   UNL     1       2.177   8.132  18.764  0.00  0.00    +0.000 A 
ATOM      5  C   UNL     1       2.532   6.732  18.815  0.00  0.00    +0.000 A 
ATOM      6  C   UNL     1       1.993   6.225  20.010  0.00  0.00    +0.000 A 
ATOM      7  N   UNL     1       1.396   7.291  20.659  0.00  0.00    +0.000 N 
ATOM      8  C   UNL     1       1.452   8.441  19.911  0.00  0.00    +0.000 A 
ATOM      9  C   UNL     1       0.915   9.712  20.159  0.00  0.00    +0.000 A 
ATOM     10  H   UNL     1       0.946   7.230  21.560  0.00  0.00    +0.000 HD
ENDROOT
BRANCH   6  11
ATOM     11  C   UNL     1       1.924   4.863  20.581  0.00  0.00    +0.000 A 
ATOM     12  C   UNL     1       3.004   4.284  21.259  0.00  0.00    +0.000 A 
ATOM     13  C   UNL     1       2.982   2.940  21.650  0.00  0.00    +0.000 A 
ATOM     14  C   UNL     1       1.849   2.167  21.428  0.00  0.00    +0.000 A 
ATOM     15  C   UNL     1       0.729   2.746  20.843  0.00  0.00    +0.000 A 
ATOM     16  C   UNL     1       0.768   4.079  20.418  0.00  0.00    +0.000 A 
ENDBRANCH   6  11
BRANCH   1  18
ATOM     17  C   UNL     1       0.960  13.200  18.508  0.00  0.00    +0.000 C 
ATOM     18  C   UNL     1       0.544  12.072  19.421  0.00  0.00    +0.000 C 
ATOM     19  O   UNL     1      -0.257  12.254  20.336  0.00  0.00    +0.000 OA
ENDBRANCH   1  18
BRANCH   5  20
ATOM     20  C   UNL     1       3.308   5.964  17.744  0.00  0.00    +0.000 C 
BRANCH  20  21
ATOM     21  C   UNL     1       3.103   4.451  17.732  0.00  0.00    +0.000 A 
ATOM     22  C   UNL     1       1.985   3.697  17.417  0.00  0.00    +0.000 A 
ATOM     23  C   UNL     1       2.191   2.297  17.586  0.00  0.00    +0.000 A 
ATOM     24  C   UNL     1       3.457   2.014  18.038  0.00  0.00    +0.000 A 
ATOM     25  S   UNL     1       4.388   3.425  18.266  0.00  0.00    +0.000 S 
ENDBRANCH  20  21
BRANCH  20  26
ATOM     26  C   UNL     1       4.763   6.418  17.581  0.00  0.00    +0.000 C 
BRANCH  26  27
ATOM     27  C   UNL     1       5.366   6.362  16.196  0.00  0.00    +0.000 C 
ATOM     28  F   UNL     1       5.251   5.181  15.572  0.00  0.00    +0.000 F 
ATOM     29  F   UNL     1       4.759   7.279  15.399  0.00  0.00    +0.000 F 
ATOM     30  F   UNL     1       6.678   6.688  16.227  0.00  0.00    +0.000 F 
ENDBRANCH  26  27
ENDBRANCH  20  26
ENDBRANCH   5  20
TORSDOF 6
ENDMDL
MODEL 2
REMARK VINA RESULT:      -8.0      4.282      8.423
REMARK  Name = 
REMARK  7 active torsions:
REMARK  status: ('A' for Active; 'I' for Inactive)
REMARK    1  A    between atoms: C_1  and  C_2
REMARK    2  A    between atoms: C_2  and  C_4
REMARK    3  A    between atoms: C_8  and  C_9
REMARK    4  A    between atoms: C_9  and  C_10
REMARK    5  A    between atoms: C_9  and  C_15
REMARK    6  A    between atoms: C_10  and  C_11
REMARK    7  A    between atoms: C_20  and  C_21
REMARK                            x       y       z     vdW  Elec       q    Type
REMARK                         _______ _______ _______ _____ _____    ______ ____
ROOT
ATOM      1  C   UNL     1       2.337   7.262  19.325  0.00  0.00    +0.000 A 
ATOM      2  C   UNL     1       2.153   7.929  18.117  0.00  0.00    +0.000 A 
ATOM      3  C   UNL     1       1.422   9.116  18.071  0.00  0.00    +0.000 A 
ATOM      4  C   UNL     1       0.873   9.671  19.245  0.00  0.00    +0.000 A 
ATOM      5  C   UNL     1       0.131  10.876  19.540  0.00  0.00    +0.000 A 
ATOM      6  C   UNL     1      -0.105  10.874  20.925  0.00  0.00    +0.000 A 
ATOM      7  N   UNL     1       0.426   9.695  21.415  0.00  0.00    +0.000 N 
ATOM      8  C   UNL     1       1.061   8.974  20.434  0.00  0.00    +0.000 A 
ATOM      9  C   UNL     1       1.783   7.774  20.513  0.00  0.00    +0.000 A 
ATOM     10  H   UNL     1       0.382   9.408  22.382  0.00  0.00    +0.000 HD
ENDROOT
BRANCH   6  11
ATOM     11  C   UNL     1      -0.713  11.863  21.841  0.00  0.00    +0.000 A 
ATOM     12  C   UNL     1      -1.921  11.619  22.506  0.00  0.00    +0.000 A 
ATOM     13  C   UNL     1      -2.564  12.622  23.240  0.00  0.00    +0.000 A 
ATOM     14  C   UNL     1      -1.975  13.874  23.376  0.00  0.00    +0.000 A 
ATOM     15  C   UNL     1      -0.730  14.111  22.804  0.00  0.00    +0.000 A 
ATOM     16  C   UNL     1      -0.108  13.117  22.039  0.00  0.00    +0.000 A 
ENDBRANCH   6  11
BRANCH   1  18
ATOM     17  C   UNL     1       2.679   4.899  20.311  0.00  0.00    +0.000 C 
ATOM     18  C   UNL     1       3.135   6.000  19.384  0.00  0.00    +0.000 C 
ATOM     19  O   UNL     1       4.142   5.873  18.689  0.00  0.00    +0.000 OA
ENDBRANCH   1  18
BRANCH   5  20
ATOM     20  C   UNL     1      -0.272  11.950  18.529  0.00  0.00    +0.000 C 
BRANCH  20  21
ATOM     21  C   UNL     1       0.437  13.296  18.671  0.00  0.00    +0.000 A 
ATOM     22  C   UNL     1      -0.077  14.580  18.745  0.00  0.00    +0.000 A 
ATOM     23  C   UNL     1       0.935  15.580  18.819  0.00  0.00    +0.000 A 
ATOM     24  C   UNL     1       2.198  15.040  18.788  0.00  0.00    +0.000 A 
ATOM     25  S   UNL     1       2.165  13.340  18.660  0.00  0.00    +0.000 S 
ENDBRANCH  20  21
BRANCH  20  26
ATOM     26  C   UNL     1      -1.783  12.042  18.282  0.00  0.00    +0.000 C 
BRANCH  26  27
ATOM     27  C   UNL     1      -2.429  10.947  17.464  0.00  0.00    +0.000 C 
ATOM     28  F   UNL     1      -1.590  10.245  16.689  0.00  0.00    +0.000 F 
ATOM     29  F   UNL     1      -3.027  10.053  18.292  0.00  0.00    +0.000 F 
ATOM     30  F   UNL     1      -3.403  11.448  16.671  0.00  0.00    +0.000 F 
ENDBRANCH  26  27
ENDBRANCH  20  26
ENDBRANCH   5  20
TORSDOF 6
ENDMDL
MODEL 3
REMARK VINA RESULT:      -7.9      4.244      8.323
REMARK  Name = 
REMARK  7 active torsions:
REMARK  status: ('A' for Active; 'I' for Inactive)
REMARK    1  A    between atoms: C_1  and  C_2
REMARK    2  A    between atoms: C_2  and  C_4
REMARK    3  A    between atoms: C_8  and  C_9
REMARK    4  A    between atoms: C_9  and  C_10
REMARK    5  A    between atoms: C_9  and  C_15
REMARK    6  A    between atoms: C_10  and  C_11
REMARK    7  A    between atoms: C_20  and  C_21
REMARK                            x       y       z     vdW  Elec       q    Type
REMARK                         _______ _______ _______ _____ _____    ______ ____
ROOT
ATOM      1  C   UNL     1       2.363   7.261  19.340  0.00  0.00    +0.000 A 
ATOM      2  C   UNL     1       2.236   7.925  18.123  0.00  0.00    +0.000 A 
ATOM      3  C   UNL     1       1.518   9.117  18.039  0.00  0.00    +0.000 A 
ATOM      4  C   UNL     1       0.923   9.682  19.187  0.00  0.00    +0.000 A 
ATOM      5  C   UNL     1       0.179  10.894  19.444  0.00  0.00    +0.000 A 
ATOM      6  C   UNL     1      -0.115  10.901  20.817  0.00  0.00    +0.000 A 
ATOM      7  N   UNL     1       0.384   9.720  21.335  0.00  0.00    +0.000 N 
ATOM      8  C   UNL     1       1.054   8.989  20.386  0.00  0.00    +0.000 A 
ATOM      9  C   UNL     1       1.762   7.784  20.500  0.00  0.00    +0.000 A 
ATOM     10  H   UNL     1       0.296   9.438  22.301  0.00  0.00    +0.000 HD
ENDROOT
BRANCH   6  11
ATOM     11  C   UNL     1      -0.754  11.899  21.702  0.00  0.00    +0.000 A 
ATOM     12  C   UNL     1      -0.180  13.153  21.949  0.00  0.00    +0.000 A 
ATOM     13  C   UNL     1      -0.711  14.020  22.910  0.00  0.00    +0.000 A 
ATOM     14  C   UNL     1      -1.869  13.676  23.598  0.00  0.00    +0.000 A 
ATOM     15  C   UNL     1      -2.511  12.479  23.301  0.00  0.00    +0.000 A 
ATOM     16  C   UNL     1      -1.956  11.597  22.366  0.00  0.00    +0.000 A 
ENDBRANCH   6  11
BRANCH   1  18
ATOM     17  C   UNL     1       4.160   5.683  18.363  0.00  0.00    +0.000 C 
ATOM     18  C   UNL     1       3.147   5.993  19.439  0.00  0.00    +0.000 C 
ATOM     19  O   UNL     1       2.962   5.226  20.382  0.00  0.00    +0.000 OA
ENDBRANCH   1  18
BRANCH   5  20
ATOM     20  C   UNL     1      -0.171  11.967  18.411  0.00  0.00    +0.000 C 
BRANCH  20  21
ATOM     21  C   UNL     1       0.545  13.306  18.575  0.00  0.00    +0.000 A 
ATOM     22  C   UNL     1       0.037  14.585  18.728  0.00  0.00    +0.000 A 
ATOM     23  C   UNL     1       1.052  15.583  18.795  0.00  0.00    +0.000 A 
ATOM     24  C   UNL     1       2.312  15.046  18.679  0.00  0.00    +0.000 A 
ATOM     25  S   UNL     1       2.271  13.352  18.481  0.00  0.00    +0.000 S 
ENDBRANCH  20  21
BRANCH  20  26
ATOM     26  C   UNL     1      -1.669  12.072  18.103  0.00  0.00    +0.000 C 
BRANCH  26  27
ATOM     27  C   UNL     1      -2.332  10.895  17.425  0.00  0.00    +0.000 C 
ATOM     28  F   UNL     1      -1.511  10.118  16.702  0.00  0.00    +0.000 F 
ATOM     29  F   UNL     1      -2.898  10.091  18.361  0.00  0.00    +0.000 F 
ATOM     30  F   UNL     1      -3.333  11.305  16.614  0.00  0.00    +0.000 F 
ENDBRANCH  26  27
ENDBRANCH  20  26
ENDBRANCH   5  20
TORSDOF 6
ENDMDL
MODEL 4
REMARK VINA RESULT:      -7.9      4.615      8.468
REMARK  Name = 
REMARK  7 active torsions:
REMARK  status: ('A' for Active; 'I' for Inactive)
REMARK    1  A    between atoms: C_1  and  C_2
REMARK    2  A    between atoms: C_2  and  C_4
REMARK    3  A    between atoms: C_8  and  C_9
REMARK    4  A    between atoms: C_9  and  C_10
REMARK    5  A    between atoms: C_9  and  C_15
REMARK    6  A    between atoms: C_10  and  C_11
REMARK    7  A    between atoms: C_20  and  C_21
REMARK                            x       y       z     vdW  Elec       q    Type
REMARK                         _______ _______ _______ _____ _____    ______ ____
ROOT
ATOM      1  C   UNL     1       2.395   7.295  19.216  0.00  0.00    +0.000 A 
ATOM      2  C   UNL     1       2.203   8.000  18.032  0.00  0.00    +0.000 A 
ATOM      3  C   UNL     1       1.469   9.186  18.026  0.00  0.00    +0.000 A 
ATOM      4  C   UNL     1       0.923   9.702  19.221  0.00  0.00    +0.000 A 
ATOM      5  C   UNL     1       0.179  10.894  19.557  0.00  0.00    +0.000 A 
ATOM      6  C   UNL     1      -0.050  10.848  20.942  0.00  0.00    +0.000 A 
ATOM      7  N   UNL     1       0.487   9.655  21.392  0.00  0.00    +0.000 N 
ATOM      8  C   UNL     1       1.119   8.967  20.386  0.00  0.00    +0.000 A 
ATOM      9  C   UNL     1       1.845   7.767  20.423  0.00  0.00    +0.000 A 
ATOM     10  H   UNL     1       0.448   9.337  22.350  0.00  0.00    +0.000 HD
ENDROOT
BRANCH   6  11
ATOM     11  C   UNL     1      -0.656  11.805  21.892  0.00  0.00    +0.000 A 
ATOM     12  C   UNL     1      -1.807  11.497  22.629  0.00  0.00    +0.000 A 
ATOM     13  C   UNL     1      -2.460  12.466  23.398  0.00  0.00    +0.000 A 
ATOM     14  C   UNL     1      -1.935  13.749  23.497  0.00  0.00    +0.000 A 
ATOM     15  C   UNL     1      -0.742  14.053  22.852  0.00  0.00    +0.000 A 
ATOM     16  C   UNL     1      -0.112  13.091  22.052  0.00  0.00    +0.000 A 
ENDBRANCH   6  11
BRANCH   1  18
ATOM     17  C   UNL     1       4.233   5.823  18.155  0.00  0.00    +0.000 C 
ATOM     18  C   UNL     1       3.197   6.034  19.232  0.00  0.00    +0.000 C 
ATOM     19  O   UNL     1       3.006   5.193  20.109  0.00  0.00    +0.000 OA
ENDBRANCH   1  18
BRANCH   5  20
ATOM     20  C   UNL     1      -0.232  11.999  18.582  0.00  0.00    +0.000 C 
BRANCH  20  21
ATOM     21  C   UNL     1       0.646  13.249  18.587  0.00  0.00    +0.000 A 
ATOM     22  C   UNL     1       2.020  13.383  18.479  0.00  0.00    +0.000 A 
ATOM     23  C   UNL     1       2.457  14.736  18.584  0.00  0.00    +0.000 A 
ATOM     24  C   UNL     1       1.409  15.602  18.782  0.00  0.00    +0.000 A 
ATOM     25  S   UNL     1      -0.090  14.791  18.850  0.00  0.00    +0.000 S 
ENDBRANCH  20  21
BRANCH  20  26
ATOM     26  C   UNL     1      -1.740  12.272  18.546  0.00  0.00    +0.000 C 
BRANCH  26  27
ATOM     27  C   UNL     1      -2.589  11.411  17.640  0.00  0.00    +0.000 C 
ATOM     28  F   UNL     1      -2.193  11.369  16.359  0.00  0.00    +0.000 F 
ATOM     29  F   UNL     1      -2.577  10.129  18.088  0.00  0.00    +0.000 F 
ATOM     30  F   UNL     1      -3.880  11.813  17.660  0.00  0.00    +0.000 F 
ENDBRANCH  26  27
ENDBRANCH  20  26
ENDBRANCH   5  20
TORSDOF 6
ENDMDL
MODEL 5
REMARK VINA RESULT:      -7.8      4.512      8.455
REMARK  Name = 
REMARK  7 active torsions:
REMARK  status: ('A' for Active; 'I' for Inactive)
REMARK    1  A    between atoms: C_1  and  C_2
REMARK    2  A    between atoms: C_2  and  C_4
REMARK    3  A    between atoms: C_8  and  C_9
REMARK    4  A    between atoms: C_9  and  C_10
REMARK    5  A    between atoms: C_9  and  C_15
REMARK    6  A    between atoms: C_10  and  C_11
REMARK    7  A    between atoms: C_20  and  C_21
REMARK                            x       y       z     vdW  Elec       q    Type
REMARK                         _______ _______ _______ _____ _____    ______ ____
ROOT
ATOM      1  C   UNL     1       2.225   7.252  19.573  0.00  0.00    +0.000 A 
ATOM      2  C   UNL     1       2.145   7.896  18.342  0.00  0.00    +0.000 A 
ATOM      3  C   UNL     1       1.467   9.109  18.223  0.00  0.00    +0.000 A 
ATOM      4  C   UNL     1       0.867   9.713  19.347  0.00  0.00    +0.000 A 
ATOM      5  C   UNL     1       0.156  10.952  19.567  0.00  0.00    +0.000 A 
ATOM      6  C   UNL     1      -0.167  10.993  20.934  0.00  0.00    +0.000 A 
ATOM      7  N   UNL     1       0.284   9.807  21.483  0.00  0.00    +0.000 N 
ATOM      8  C   UNL     1       0.950   9.038  20.561  0.00  0.00    +0.000 A 
ATOM      9  C   UNL     1       1.617   7.813  20.712  0.00  0.00    +0.000 A 
ATOM     10  H   UNL     1       0.167   9.545  22.451  0.00  0.00    +0.000 HD
ENDROOT
BRANCH   6  11
ATOM     11  C   UNL     1      -0.792  12.027  21.787  0.00  0.00    +0.000 A 
ATOM     12  C   UNL     1      -0.188  13.269  22.017  0.00  0.00    +0.000 A 
ATOM     13  C   UNL     1      -0.710  14.171  22.951  0.00  0.00    +0.000 A 
ATOM     14  C   UNL     1      -1.888  13.872  23.627  0.00  0.00    +0.000 A 
ATOM     15  C   UNL     1      -2.557  12.687  23.345  0.00  0.00    +0.000 A 
ATOM     16  C   UNL     1      -2.012  11.771  22.437  0.00  0.00    +0.000 A 
ENDBRANCH   6  11
BRANCH   1  18
ATOM     17  C   UNL     1       2.358   4.864  20.552  0.00  0.00    +0.000 C 
ATOM     18  C   UNL     1       2.967   5.962  19.712  0.00  0.00    +0.000 C 
ATOM     19  O   UNL     1       4.050   5.809  19.150  0.00  0.00    +0.000 OA
ENDBRANCH   1  18
BRANCH   5  20
ATOM     20  C   UNL     1      -0.139  12.016  18.509  0.00  0.00    +0.000 C 
BRANCH  20  21
ATOM     21  C   UNL     1       0.756  13.254  18.544  0.00  0.00    +0.000 A 
ATOM     22  C   UNL     1       2.133  13.371  18.467  0.00  0.00    +0.000 A 
ATOM     23  C   UNL     1       2.586  14.716  18.595  0.00  0.00    +0.000 A 
ATOM     24  C   UNL     1       1.546  15.594  18.780  0.00  0.00    +0.000 A 
ATOM     25  S   UNL     1       0.036  14.804  18.808  0.00  0.00    +0.000 S 
ENDBRANCH  20  21
BRANCH  20  26
ATOM     26  C   UNL     1      -1.631  12.307  18.312  0.00  0.00    +0.000 C 
BRANCH  26  27
ATOM     27  C   UNL     1      -2.471  11.246  17.638  0.00  0.00    +0.000 C 
ATOM     28  F   UNL     1      -2.700  10.148  18.373  0.00  0.00    +0.000 F 
ATOM     29  F   UNL     1      -3.688  11.761  17.326  0.00  0.00    +0.000 F 
ATOM     30  F   UNL     1      -1.909  10.854  16.472  0.00  0.00    +0.000 F 
ENDBRANCH  26  27
ENDBRANCH  20  26
ENDBRANCH   5  20
TORSDOF 6
ENDMDL
MODEL 6
REMARK VINA RESULT:      -7.7      0.617      1.267
REMARK  Name = 
REMARK  7 active torsions:
REMARK  status: ('A' for Active; 'I' for Inactive)
REMARK    1  A    between atoms: C_1  and  C_2
REMARK    2  A    between atoms: C_2  and  C_4
REMARK    3  A    between atoms: C_8  and  C_9
REMARK    4  A    between atoms: C_9  and  C_10
REMARK    5  A    between atoms: C_9  and  C_15
REMARK    6  A    between atoms: C_10  and  C_11
REMARK    7  A    between atoms: C_20  and  C_21
REMARK                            x       y       z     vdW  Elec       q    Type
REMARK                         _______ _______ _______ _____ _____    ______ ____
ROOT
ATOM      1  C   UNL     1       1.025  10.771  19.115  0.00  0.00    +0.000 A 
ATOM      2  C   UNL     1       1.885  10.536  18.046  0.00  0.00    +0.000 A 
ATOM      3  C   UNL     1       2.459   9.278  17.864  0.00  0.00    +0.000 A 
ATOM      4  C   UNL     1       2.164   8.217  18.746  0.00  0.00    +0.000 A 
ATOM      5  C   UNL     1       2.539   6.823  18.807  0.00  0.00    +0.000 A 
ATOM      6  C   UNL     1       1.884   6.279  19.924  0.00  0.00    +0.000 A 
ATOM      7  N   UNL     1       1.200   7.319  20.527  0.00  0.00    +0.000 N 
ATOM      8  C   UNL     1       1.313   8.486  19.813  0.00  0.00    +0.000 A 
ATOM      9  C   UNL     1       0.728   9.742  20.028  0.00  0.00    +0.000 A 
ATOM     10  H   UNL     1       0.656   7.229  21.373  0.00  0.00    +0.000 HD
ENDROOT
BRANCH   6  11
ATOM     11  C   UNL     1       1.782   4.903  20.456  0.00  0.00    +0.000 A 
ATOM     12  C   UNL     1       0.768   4.023  20.056  0.00  0.00    +0.000 A 
ATOM     13  C   UNL     1       0.588   2.786  20.685  0.00  0.00    +0.000 A 
ATOM     14  C   UNL     1       1.463   2.377  21.685  0.00  0.00    +0.000 A 
ATOM     15  C   UNL     1       2.534   3.192  22.033  0.00  0.00    +0.000 A 
ATOM     16  C   UNL     1       2.688   4.445  21.428  0.00  0.00    +0.000 A 
ENDBRANCH   6  11
BRANCH   1  18
ATOM     17  C   UNL     1      -0.456  12.344  20.531  0.00  0.00    +0.000 C 
ATOM     18  C   UNL     1       0.392  12.111  19.304  0.00  0.00    +0.000 C 
ATOM     19  O   UNL     1       0.565  12.999  18.470  0.00  0.00    +0.000 OA
ENDBRANCH   1  18
BRANCH   5  20
ATOM     20  C   UNL     1       3.442   6.093  17.811  0.00  0.00    +0.000 C 
BRANCH  20  21
ATOM     21  C   UNL     1       3.277   4.576  17.752  0.00  0.00    +0.000 A 
ATOM     22  C   UNL     1       2.261   3.802  17.216  0.00  0.00    +0.000 A 
ATOM     23  C   UNL     1       2.460   2.405  17.417  0.00  0.00    +0.000 A 
ATOM     24  C   UNL     1       3.615   2.144  18.113  0.00  0.00    +0.000 A 
ATOM     25  S   UNL     1       4.450   3.572  18.529  0.00  0.00    +0.000 S 
ENDBRANCH  20  21
BRANCH  20  26
ATOM     26  C   UNL     1       4.895   6.583  17.809  0.00  0.00    +0.000 C 
BRANCH  26  27
ATOM     27  C   UNL     1       5.625   6.615  16.486  0.00  0.00    +0.000 C 
ATOM     28  F   UNL     1       4.897   7.042  15.445  0.00  0.00    +0.000 F 
ATOM     29  F   UNL     1       6.693   7.449  16.577  0.00  0.00    +0.000 F 
ATOM     30  F   UNL     1       6.116   5.394  16.175  0.00  0.00    +0.000 F 
ENDBRANCH  26  27
ENDBRANCH  20  26
ENDBRANCH   5  20
TORSDOF 6
ENDMDL
MODEL 7
REMARK VINA RESULT:      -7.7      4.918      8.338
REMARK  Name = 
REMARK  7 active torsions:
REMARK  status: ('A' for Active; 'I' for Inactive)
REMARK    1  A    between atoms: C_1  and  C_2
REMARK    2  A    between atoms: C_2  and  C_4
REMARK    3  A    between atoms: C_8  and  C_9
REMARK    4  A    between atoms: C_9  and  C_10
REMARK    5  A    between atoms: C_9  and  C_15
REMARK    6  A    between atoms: C_10  and  C_11
REMARK    7  A    between atoms: C_20  and  C_21
REMARK                            x       y       z     vdW  Elec       q    Type
REMARK                         _______ _______ _______ _____ _____    ______ ____
ROOT
ATOM      1  C   UNL     1       2.031   7.912  19.114  0.00  0.00    +0.000 A 
ATOM      2  C   UNL     1       1.595   8.579  17.972  0.00  0.00    +0.000 A 
ATOM      3  C   UNL     1       0.722   9.661  18.077  0.00  0.00    +0.000 A 
ATOM      4  C   UNL     1       0.279  10.111  19.338  0.00  0.00    +0.000 A 
ATOM      5  C   UNL     1      -0.559  11.201  19.782  0.00  0.00    +0.000 A 
ATOM      6  C   UNL     1      -0.594  11.136  21.185  0.00  0.00    +0.000 A 
ATOM      7  N   UNL     1       0.146  10.025  21.548  0.00  0.00    +0.000 N 
ATOM      8  C   UNL     1       0.720   9.416  20.459  0.00  0.00    +0.000 A 
ATOM      9  C   UNL     1       1.591   8.319  20.387  0.00  0.00    +0.000 A 
ATOM     10  H   UNL     1       0.275   9.711  22.499  0.00  0.00    +0.000 HD
ENDROOT
BRANCH   6  11
ATOM     11  C   UNL     1      -1.185  12.015  22.217  0.00  0.00    +0.000 A 
ATOM     12  C   UNL     1      -2.392  11.706  22.857  0.00  0.00    +0.000 A 
ATOM     13  C   UNL     1      -3.020  12.621  23.709  0.00  0.00    +0.000 A 
ATOM     14  C   UNL     1      -2.416  13.842  23.989  0.00  0.00    +0.000 A 
ATOM     15  C   UNL     1      -1.172  14.132  23.441  0.00  0.00    +0.000 A 
ATOM     16  C   UNL     1      -0.565  13.230  22.559  0.00  0.00    +0.000 A 
ENDBRANCH   6  11
BRANCH   1  18
ATOM     17  C   UNL     1       3.851   6.654  17.780  0.00  0.00    +0.000 C 
ATOM     18  C   UNL     1       2.982   6.764  19.010  0.00  0.00    +0.000 C 
ATOM     19  O   UNL     1       3.046   5.932  19.914  0.00  0.00    +0.000 OA
ENDBRANCH   1  18
BRANCH   5  20
ATOM     20  C   UNL     1      -1.233  12.238  18.882  0.00  0.00    +0.000 C 
BRANCH  20  21
ATOM     21  C   UNL     1      -2.345  11.710  17.977  0.00  0.00    +0.000 A 
ATOM     22  C   UNL     1      -2.299  11.247  16.673  0.00  0.00    +0.000 A 
ATOM     23  C   UNL     1      -3.582  10.892  16.163  0.00  0.00    +0.000 A 
ATOM     24  C   UNL     1      -4.579  11.102  17.084  0.00  0.00    +0.000 A 
ATOM     25  S   UNL     1      -3.976  11.732  18.550  0.00  0.00    +0.000 S 
ENDBRANCH  20  21
BRANCH  20  26
ATOM     26  C   UNL     1      -0.257  13.206  18.204  0.00  0.00    +0.000 C 
BRANCH  26  27
ATOM     27  C   UNL     1       0.441  14.226  19.075  0.00  0.00    +0.000 C 
ATOM     28  F   UNL     1       1.330  13.721  19.942  0.00  0.00    +0.000 F 
ATOM     29  F   UNL     1       1.122  15.102  18.292  0.00  0.00    +0.000 F 
ATOM     30  F   UNL     1      -0.455  14.955  19.778  0.00  0.00    +0.000 F 
ENDBRANCH  26  27
ENDBRANCH  20  26
ENDBRANCH   5  20
TORSDOF 6
ENDMDL
MODEL 8
REMARK VINA RESULT:      -7.7      4.238      8.365
REMARK  Name = 
REMARK  7 active torsions:
REMARK  status: ('A' for Active; 'I' for Inactive)
REMARK    1  A    between atoms: C_1  and  C_2
REMARK    2  A    between atoms: C_2  and  C_4
REMARK    3  A    between atoms: C_8  and  C_9
REMARK    4  A    between atoms: C_9  and  C_10
REMARK    5  A    between atoms: C_9  and  C_15
REMARK    6  A    between atoms: C_10  and  C_11
REMARK    7  A    between atoms: C_20  and  C_21
REMARK                            x       y       z     vdW  Elec       q    Type
REMARK                         _______ _______ _______ _____ _____    ______ ____
ROOT
ATOM      1  C   UNL     1       2.304   7.289  19.392  0.00  0.00    +0.000 A 
ATOM      2  C   UNL     1       2.290   7.964  18.175  0.00  0.00    +0.000 A 
ATOM      3  C   UNL     1       1.542   9.132  18.023  0.00  0.00    +0.000 A 
ATOM      4  C   UNL     1       0.804   9.660  19.102  0.00  0.00    +0.000 A 
ATOM      5  C   UNL     1      -0.008  10.842  19.286  0.00  0.00    +0.000 A 
ATOM      6  C   UNL     1      -0.453  10.821  20.618  0.00  0.00    +0.000 A 
ATOM      7  N   UNL     1       0.028   9.651  21.178  0.00  0.00    +0.000 N 
ATOM      8  C   UNL     1       0.826   8.956  20.302  0.00  0.00    +0.000 A 
ATOM      9  C   UNL     1       1.560   7.775  20.483  0.00  0.00    +0.000 A 
ATOM     10  H   UNL     1      -0.156   9.353  22.124  0.00  0.00    +0.000 HD
ENDROOT
BRANCH   6  11
ATOM     11  C   UNL     1      -1.222  11.784  21.435  0.00  0.00    +0.000 A 
ATOM     12  C   UNL     1      -2.463  12.287  21.024  0.00  0.00    +0.000 A 
ATOM     13  C   UNL     1      -3.100  13.316  21.726  0.00  0.00    +0.000 A 
ATOM     14  C   UNL     1      -2.537  13.817  22.894  0.00  0.00    +0.000 A 
ATOM     15  C   UNL     1      -1.354  13.268  23.374  0.00  0.00    +0.000 A 
ATOM     16  C   UNL     1      -0.699  12.265  22.648  0.00  0.00    +0.000 A 
ENDBRANCH   6  11
BRANCH   1  18
ATOM     17  C   UNL     1       4.289   5.816  18.642  0.00  0.00    +0.000 C 
ATOM     18  C   UNL     1       3.118   6.048  19.567  0.00  0.00    +0.000 C 
ATOM     19  O   UNL     1       2.830   5.240  20.448  0.00  0.00    +0.000 OA
ENDBRANCH   1  18
BRANCH   5  20
ATOM     20  C   UNL     1      -0.280  11.916  18.231  0.00  0.00    +0.000 C 
BRANCH  20  21
ATOM     21  C   UNL     1       0.343  13.284  18.500  0.00  0.00    +0.000 A 
ATOM     22  C   UNL     1      -0.249  14.496  18.812  0.00  0.00    +0.000 A 
ATOM     23  C   UNL     1       0.691  15.560  18.933  0.00  0.00    +0.000 A 
ATOM     24  C   UNL     1       1.978  15.140  18.698  0.00  0.00    +0.000 A 
ATOM     25  S   UNL     1       2.053  13.478  18.326  0.00  0.00    +0.000 S 
ENDBRANCH  20  21
BRANCH  20  26
ATOM     26  C   UNL     1      -1.731  11.954  17.738  0.00  0.00    +0.000 C 
BRANCH  26  27
ATOM     27  C   UNL     1      -2.348  10.658  17.264  0.00  0.00    +0.000 C 
ATOM     28  F   UNL     1      -2.882   9.896  18.229  0.00  0.00    +0.000 F 
ATOM     29  F   UNL     1      -3.349  10.926  16.387  0.00  0.00    +0.000 F 
ATOM     30  F   UNL     1      -1.442   9.908  16.597  0.00  0.00    +0.000 F 
ENDBRANCH  26  27
ENDBRANCH  20  26
ENDBRANCH   5  20
TORSDOF 6
ENDMDL
MODEL 9
REMARK VINA RESULT:      -7.7      2.729      4.512
REMARK  Name = 
REMARK  7 active torsions:
REMARK  status: ('A' for Active; 'I' for Inactive)
REMARK    1  A    between atoms: C_1  and  C_2
REMARK    2  A    between atoms: C_2  and  C_4
REMARK    3  A    between atoms: C_8  and  C_9
REMARK    4  A    between atoms: C_9  and  C_10
REMARK    5  A    between atoms: C_9  and  C_15
REMARK    6  A    between atoms: C_10  and  C_11
REMARK    7  A    between atoms: C_20  and  C_21
REMARK                            x       y       z     vdW  Elec       q    Type
REMARK                         _______ _______ _______ _____ _____    ______ ____
ROOT
ATOM      1  C   UNL     1       1.238   9.941  18.924  0.00  0.00    +0.000 A 
ATOM      2  C   UNL     1       0.949   9.053  19.956  0.00  0.00    +0.000 A 
ATOM      3  C   UNL     1       1.551   7.796  19.997  0.00  0.00    +0.000 A 
ATOM      4  C   UNL     1       2.478   7.409  19.006  0.00  0.00    +0.000 A 
ATOM      5  C   UNL     1       3.293   6.235  18.792  0.00  0.00    +0.000 A 
ATOM      6  C   UNL     1       4.040   6.471  17.626  0.00  0.00    +0.000 A 
ATOM      7  N   UNL     1       3.641   7.705  17.144  0.00  0.00    +0.000 N 
ATOM      8  C   UNL     1       2.736   8.311  17.979  0.00  0.00    +0.000 A 
ATOM      9  C   UNL     1       2.140   9.579  17.905  0.00  0.00    +0.000 A 
ATOM     10  H   UNL     1       3.992   8.127  16.296  0.00  0.00    +0.000 HD
ENDROOT
BRANCH   6  11
ATOM     11  C   UNL     1       5.111   5.709  16.948  0.00  0.00    +0.000 A 
ATOM     12  C   UNL     1       6.272   5.300  17.616  0.00  0.00    +0.000 A 
ATOM     13  C   UNL     1       7.344   4.724  16.926  0.00  0.00    +0.000 A 
ATOM     14  C   UNL     1       7.248   4.486  15.560  0.00  0.00    +0.000 A 
ATOM     15  C   UNL     1       6.069   4.796  14.892  0.00  0.00    +0.000 A 
ATOM     16  C   UNL     1       5.013   5.407  15.579  0.00  0.00    +0.000 A 
ENDBRANCH   6  11
BRANCH   1  18
ATOM     17  C   UNL     1      -0.850  11.427  19.243  0.00  0.00    +0.000 C 
ATOM     18  C   UNL     1       0.610  11.297  18.885  0.00  0.00    +0.000 C 
ATOM     19  O   UNL     1       1.279  12.278  18.564  0.00  0.00    +0.000 OA
ENDBRANCH   1  18
BRANCH   5  20
ATOM     20  C   UNL     1       3.346   5.003  19.698  0.00  0.00    +0.000 C 
BRANCH  20  21
ATOM     21  C   UNL     1       3.520   3.663  18.987  0.00  0.00    +0.000 A 
ATOM     22  C   UNL     1       3.105   3.249  17.732  0.00  0.00    +0.000 A 
ATOM     23  C   UNL     1       3.421   1.886  17.463  0.00  0.00    +0.000 A 
ATOM     24  C   UNL     1       4.059   1.286  18.521  0.00  0.00    +0.000 A 
ATOM     25  S   UNL     1       4.267   2.354  19.834  0.00  0.00    +0.000 S 
ENDBRANCH  20  21
BRANCH  20  26
ATOM     26  C   UNL     1       2.301   5.007  20.819  0.00  0.00    +0.000 C 
BRANCH  26  27
ATOM     27  C   UNL     1       0.989   4.303  20.559  0.00  0.00    +0.000 C 
ATOM     28  F   UNL     1       0.827   3.842  19.310  0.00  0.00    +0.000 F 
ATOM     29  F   UNL     1       0.877   3.230  21.383  0.00  0.00    +0.000 F 
ATOM     30  F   UNL     1      -0.058   5.113  20.839  0.00  0.00    +0.000 F 
ENDBRANCH  26  27
ENDBRANCH  20  26
ENDBRANCH   5  20
TORSDOF 6
ENDMDL
