MODEL 1
REMARK VINA RESULT:      -7.5      0.000      0.000
REMARK  Name = 
REMARK  11 active torsions:
REMARK  status: ('A' for Active; 'I' for Inactive)
REMARK    1  A    between atoms: C_1  and  C_2
REMARK    2  A    between atoms: C_2  and  C_3
REMARK    3  A    between atoms: C_3  and  C_4
REMARK    4  A    between atoms: C_4  and  O_6
REMARK    5  A    between atoms: O_6  and  C_7
REMARK    6  A    between atoms: N_13  and  C_14
REMARK    7  A    between atoms: C_14  and  C_15
REMARK    8  A    between atoms: C_19  and  N_20
REMARK    9  A    between atoms: N_20  and  S_21
REMARK   10  A    between atoms: S_21  and  N_24
REMARK   11  A    between atoms: N_24  and  C_25
REMARK                            x       y       z     vdW  Elec       q    Type
REMARK                         _______ _______ _______ _____ _____    ______ ____
ROOT
ATOM      1  C   UNL     1       2.344   7.317  19.325  0.00  0.00    +0.000 A 
ATOM      2  C   UNL     1       2.185   8.195  18.249  0.00  0.00    +0.000 A 
ATOM      3  C   UNL     1       1.422   9.346  18.406  0.00  0.00    +0.000 A 
ATOM      4  C   UNL     1       0.849   9.630  19.646  0.00  0.00    +0.000 A 
ATOM      5  C   UNL     1       0.106  10.874  19.850  0.00  0.00    +0.000 A 
ATOM      6  O   UNL     1      -0.045  11.638  18.897  0.00  0.00    +0.000 OA
ATOM      7  N   UNL     1      -0.338  11.133  21.134  0.00  0.00    +0.000 N 
ATOM      8  C   UNL     1      -0.161  10.272  22.212  0.00  0.00    +0.000 A 
ATOM      9  O   UNL     1      -0.543  10.524  23.354  0.00  0.00    +0.000 OA
ATOM     10  O   UNL     1       0.502   9.060  21.973  0.00  0.00    +0.000 OA
ATOM     11  C   UNL     1       1.037   8.770  20.714  0.00  0.00    +0.000 A 
ATOM     12  C   UNL     1       1.788   7.601  20.572  0.00  0.00    +0.000 A 
ENDROOT
BRANCH   1  13
ATOM     13  O   UNL     1       3.180   6.199  19.208  0.00  0.00    +0.000 OA
BRANCH  13  14
ATOM     14  C   UNL     1       2.706   5.161  18.408  0.00  0.00    +0.000 C 
ATOM     15  O   UNL     1       1.618   4.607  18.497  0.00  0.00    +0.000 OA
BRANCH  14  16
ATOM     16  C   UNL     1       3.722   4.853  17.340  0.00  0.00    +0.000 C 
BRANCH  16  18
ATOM     17  C   UNL     1       5.165   6.397  15.995  0.00  0.00    +0.000 C 
ATOM     18  C   UNL     1       4.877   5.840  17.377  0.00  0.00    +0.000 C 
ENDBRANCH  16  18
ENDBRANCH  14  16
ENDBRANCH  13  14
ENDBRANCH   1  13
BRANCH   7  19
ATOM     19  C   UNL     1      -0.893  12.455  21.386  0.00  0.00    +0.000 C 
BRANCH  19  20
ATOM     20  C   UNL     1      -2.400  12.527  21.478  0.00  0.00    +0.000 A 
ATOM     21  C   UNL     1      -3.054  12.630  22.714  0.00  0.00    +0.000 A 
ATOM     22  C   UNL     1      -4.428  12.890  22.776  0.00  0.00    +0.000 A 
ATOM     23  C   UNL     1      -5.169  13.058  21.604  0.00  0.00    +0.000 A 
ATOM     24  C   UNL     1      -4.535  12.944  20.368  0.00  0.00    +0.000 A 
ATOM     25  C   UNL     1      -3.167  12.651  20.311  0.00  0.00    +0.000 A 
ATOM     26  F   UNL     1      -2.567  12.568  19.112  0.00  0.00    +0.000 F 
BRANCH  24  27
ATOM     27  N   UNL     1      -5.281  13.101  19.150  0.00  0.00    +0.000 N 
ATOM     28  H   UNL     1      -5.630  14.050  19.013  0.00  0.00    +0.000 HD
BRANCH  27  29
ATOM     29  S   UNL     1      -6.593  12.064  18.991  0.00  0.00    +0.000 S 
ATOM     30  O   UNL     1      -6.369  10.835  19.708  0.00  0.00    +0.000 OA
ATOM     31  O   UNL     1      -7.782  12.865  19.150  0.00  0.00    +0.000 OA
BRANCH  29  32
ATOM     32  N   UNL     1      -6.399  11.725  17.356  0.00  0.00    +0.000 NA
ATOM     33  C   UNL     1      -5.002  11.809  16.894  0.00  0.00    +0.000 C 
ATOM     34  H   UNL     1      -6.992  12.377  16.838  0.00  0.00    +0.000 HD
ENDBRANCH  29  32
ENDBRANCH  27  29
ENDBRANCH  24  27
ENDBRANCH  19  20
ENDBRANCH   7  19
TORSDOF 9
ENDMDL
MODEL 2
REMARK VINA RESULT:      -7.5      1.876      2.355
REMARK  Name = 
REMARK  11 active torsions:
REMARK  status: ('A' for Active; 'I' for Inactive)
REMARK    1  A    between atoms: C_1  and  C_2
REMARK    2  A    between atoms: C_2  and  C_3
REMARK    3  A    between atoms: C_3  and  C_4
REMARK    4  A    between atoms: C_4  and  O_6
REMARK    5  A    between atoms: O_6  and  C_7
REMARK    6  A    between atoms: N_13  and  C_14
REMARK    7  A    between atoms: C_14  and  C_15
REMARK    8  A    between atoms: C_19  and  N_20
REMARK    9  A    between atoms: N_20  and  S_21
REMARK   10  A    between atoms: S_21  and  N_24
REMARK   11  A    between atoms: N_24  and  C_25
REMARK                            x       y       z     vdW  Elec       q    Type
REMARK                         _______ _______ _______ _____ _____    ______ ____
ROOT
ATOM      1  C   UNL     1       2.852   5.365  19.220  0.00  0.00    +0.000 A 
ATOM      2  C   UNL     1       3.093   6.203  18.127  0.00  0.00    +0.000 A 
ATOM      3  C   UNL     1       2.602   7.503  18.135  0.00  0.00    +0.000 A 
ATOM      4  C   UNL     1       1.901   7.970  19.248  0.00  0.00    +0.000 A 
ATOM      5  C   UNL     1       1.442   9.358  19.304  0.00  0.00    +0.000 A 
ATOM      6  O   UNL     1       1.643  10.089  18.335  0.00  0.00    +0.000 OA
ATOM      7  N   UNL     1       0.851   9.773  20.484  0.00  0.00    +0.000 N 
ATOM      8  C   UNL     1       0.630   8.947  21.581  0.00  0.00    +0.000 A 
ATOM      9  O   UNL     1       0.122   9.334  22.632  0.00  0.00    +0.000 OA
ATOM     10  O   UNL     1       1.027   7.606  21.475  0.00  0.00    +0.000 OA
ATOM     11  C   UNL     1       1.693   7.142  20.338  0.00  0.00    +0.000 A 
ATOM     12  C   UNL     1       2.166   5.828  20.342  0.00  0.00    +0.000 A 
ENDROOT
BRANCH   1  13
ATOM     13  O   UNL     1       3.413   4.082  19.265  0.00  0.00    +0.000 OA
BRANCH  13  14
ATOM     14  C   UNL     1       4.654   3.933  18.650  0.00  0.00    +0.000 C 
ATOM     15  O   UNL     1       5.741   4.269  19.104  0.00  0.00    +0.000 OA
BRANCH  14  16
ATOM     16  C   UNL     1       4.476   3.216  17.338  0.00  0.00    +0.000 C 
BRANCH  16  18
ATOM     17  C   UNL     1       6.208   3.910  15.668  0.00  0.00    +0.000 C 
ATOM     18  C   UNL     1       4.790   4.128  16.164  0.00  0.00    +0.000 C 
ENDBRANCH  16  18
ENDBRANCH  14  16
ENDBRANCH  13  14
ENDBRANCH   1  13
BRANCH   7  19
ATOM     19  C   UNL     1       0.582  11.197  20.621  0.00  0.00    +0.000 C 
BRANCH  19  20
ATOM     20  C   UNL     1      -0.873  11.599  20.548  0.00  0.00    +0.000 A 
ATOM     21  C   UNL     1      -1.534  12.161  21.650  0.00  0.00    +0.000 A 
ATOM     22  C   UNL     1      -2.816  12.705  21.513  0.00  0.00    +0.000 A 
ATOM     23  C   UNL     1      -3.455  12.703  20.271  0.00  0.00    +0.000 A 
ATOM     24  C   UNL     1      -2.817  12.135  19.170  0.00  0.00    +0.000 A 
ATOM     25  C   UNL     1      -1.548  11.562  19.320  0.00  0.00    +0.000 A 
ATOM     26  F   UNL     1      -0.937  11.040  18.244  0.00  0.00    +0.000 F 
BRANCH  24  27
ATOM     27  N   UNL     1      -3.462  12.111  17.887  0.00  0.00    +0.000 N 
ATOM     28  H   UNL     1      -4.096  12.897  17.742  0.00  0.00    +0.000 HD
BRANCH  27  29
ATOM     29  S   UNL     1      -4.330  10.710  17.563  0.00  0.00    +0.000 S 
ATOM     30  O   UNL     1      -3.522   9.539  17.784  0.00  0.00    +0.000 OA
ATOM     31  O   UNL     1      -5.640  10.885  18.142  0.00  0.00    +0.000 OA
BRANCH  29  32
ATOM     32  N   UNL     1      -4.457  10.918  15.899  0.00  0.00    +0.000 NA
ATOM     33  C   UNL     1      -3.397  10.237  15.134  0.00  0.00    +0.000 C 
ATOM     34  H   UNL     1      -4.447  11.923  15.717  0.00  0.00    +0.000 HD
ENDBRANCH  29  32
ENDBRANCH  27  29
ENDBRANCH  24  27
ENDBRANCH  19  20
ENDBRANCH   7  19
TORSDOF 9
ENDMDL
MODEL 3
REMARK VINA RESULT:      -7.5      1.062      1.647
REMARK  Name = 
REMARK  11 active torsions:
REMARK  status: ('A' for Active; 'I' for Inactive)
REMARK    1  A    between atoms: C_1  and  C_2
REMARK    2  A    between atoms: C_2  and  C_3
REMARK    3  A    between atoms: C_3  and  C_4
REMARK    4  A    between atoms: C_4  and  O_6
REMARK    5  A    between atoms: O_6  and  C_7
REMARK    6  A    between atoms: N_13  and  C_14
REMARK    7  A    between atoms: C_14  and  C_15
REMARK    8  A    between atoms: C_19  and  N_20
REMARK    9  A    between atoms: N_20  and  S_21
REMARK   10  A    between atoms: S_21  and  N_24
REMARK   11  A    between atoms: N_24  and  C_25
REMARK                            x       y       z     vdW  Elec       q    Type
REMARK                         _______ _______ _______ _____ _____    ______ ____
ROOT
ATOM      1  C   UNL     1       2.469   7.349  19.122  0.00  0.00    +0.000 A 
ATOM      2  C   UNL     1       2.178   8.132  18.001  0.00  0.00    +0.000 A 
ATOM      3  C   UNL     1       1.368   9.253  18.135  0.00  0.00    +0.000 A 
ATOM      4  C   UNL     1       0.880   9.606  19.394  0.00  0.00    +0.000 A 
ATOM      5  C   UNL     1       0.089  10.824  19.566  0.00  0.00    +0.000 A 
ATOM      6  O   UNL     1      -0.178  11.504  18.576  0.00  0.00    +0.000 OA
ATOM      7  N   UNL     1      -0.266  11.161  20.860  0.00  0.00    +0.000 N 
ATOM      8  C   UNL     1       0.042  10.396  21.980  0.00  0.00    +0.000 A 
ATOM      9  O   UNL     1      -0.262  10.718  23.128  0.00  0.00    +0.000 OA
ATOM     10  O   UNL     1       0.749   9.203  21.777  0.00  0.00    +0.000 OA
ATOM     11  C   UNL     1       1.199   8.841  20.504  0.00  0.00    +0.000 A 
ATOM     12  C   UNL     1       1.998   7.703  20.386  0.00  0.00    +0.000 A 
ENDROOT
BRANCH   1  13
ATOM     13  O   UNL     1       3.352   6.267  19.019  0.00  0.00    +0.000 OA
BRANCH  13  14
ATOM     14  C   UNL     1       2.910   5.185  18.261  0.00  0.00    +0.000 C 
ATOM     15  O   UNL     1       3.412   4.763  17.226  0.00  0.00    +0.000 OA
BRANCH  14  16
ATOM     16  C   UNL     1       1.734   4.543  18.949  0.00  0.00    +0.000 C 
BRANCH  16  18
ATOM     17  C   UNL     1       0.744   2.252  18.736  0.00  0.00    +0.000 C 
ATOM     18  C   UNL     1       1.962   3.055  19.156  0.00  0.00    +0.000 C 
ENDBRANCH  16  18
ENDBRANCH  14  16
ENDBRANCH  13  14
ENDBRANCH   1  13
BRANCH   7  19
ATOM     19  C   UNL     1      -0.871  12.471  21.058  0.00  0.00    +0.000 C 
BRANCH  19  20
ATOM     20  C   UNL     1      -2.374  12.482  21.212  0.00  0.00    +0.000 A 
ATOM     21  C   UNL     1      -2.981  12.535  22.476  0.00  0.00    +0.000 A 
ATOM     22  C   UNL     1      -4.359  12.741  22.597  0.00  0.00    +0.000 A 
ATOM     23  C   UNL     1      -5.153  12.903  21.460  0.00  0.00    +0.000 A 
ATOM     24  C   UNL     1      -4.567  12.837  20.198  0.00  0.00    +0.000 A 
ATOM     25  C   UNL     1      -3.192  12.599  20.080  0.00  0.00    +0.000 A 
ATOM     26  F   UNL     1      -2.638  12.562  18.856  0.00  0.00    +0.000 F 
BRANCH  24  27
ATOM     27  N   UNL     1      -5.367  12.989  19.014  0.00  0.00    +0.000 N 
ATOM     28  H   UNL     1      -5.913  13.851  19.007  0.00  0.00    +0.000 HD
BRANCH  27  29
ATOM     29  S   UNL     1      -6.435  11.726  18.722  0.00  0.00    +0.000 S 
ATOM     30  O   UNL     1      -5.730  10.482  18.553  0.00  0.00    +0.000 OA
ATOM     31  O   UNL     1      -7.538  11.889  19.638  0.00  0.00    +0.000 OA
BRANCH  29  32
ATOM     32  N   UNL     1      -6.939  12.221  17.196  0.00  0.00    +0.000 NA
ATOM     33  C   UNL     1      -6.625  13.629  16.896  0.00  0.00    +0.000 C 
ATOM     34  H   UNL     1      -7.945  12.054  17.139  0.00  0.00    +0.000 HD
ENDBRANCH  29  32
ENDBRANCH  27  29
ENDBRANCH  24  27
ENDBRANCH  19  20
ENDBRANCH   7  19
TORSDOF 9
ENDMDL
MODEL 4
REMARK VINA RESULT:      -7.5      1.379      2.015
REMARK  Name = 
REMARK  11 active torsions:
REMARK  status: ('A' for Active; 'I' for Inactive)
REMARK    1  A    between atoms: C_1  and  C_2
REMARK    2  A    between atoms: C_2  and  C_3
REMARK    3  A    between atoms: C_3  and  C_4
REMARK    4  A    between atoms: C_4  and  O_6
REMARK    5  A    between atoms: O_6  and  C_7
REMARK    6  A    between atoms: N_13  and  C_14
REMARK    7  A    between atoms: C_14  and  C_15
REMARK    8  A    between atoms: C_19  and  N_20
REMARK    9  A    between atoms: N_20  and  S_21
REMARK   10  A    between atoms: S_21  and  N_24
REMARK   11  A    between atoms: N_24  and  C_25
REMARK                            x       y       z     vdW  Elec       q    Type
REMARK                         _______ _______ _______ _____ _____    ______ ____
ROOT
ATOM      1  C   UNL     1       2.484   6.812  18.679  0.00  0.00    +0.000 A 
ATOM      2  C   UNL     1       2.332   7.804  17.706  0.00  0.00    +0.000 A 
ATOM      3  C   UNL     1       1.725   9.009  18.038  0.00  0.00    +0.000 A 
ATOM      4  C   UNL     1       1.301   9.230  19.350  0.00  0.00    +0.000 A 
ATOM      5  C   UNL     1       0.729  10.520  19.734  0.00  0.00    +0.000 A 
ATOM      6  O   UNL     1       0.583  11.386  18.872  0.00  0.00    +0.000 OA
ATOM      7  N   UNL     1       0.434  10.698  21.074  0.00  0.00    +0.000 N 
ATOM      8  C   UNL     1       0.604   9.721  22.049  0.00  0.00    +0.000 A 
ATOM      9  O   UNL     1       0.358   9.899  23.241  0.00  0.00    +0.000 OA
ATOM     10  O   UNL     1       1.099   8.474  21.640  0.00  0.00    +0.000 OA
ATOM     11  C   UNL     1       1.483   8.253  20.314  0.00  0.00    +0.000 A 
ATOM     12  C   UNL     1       2.077   7.031  19.996  0.00  0.00    +0.000 A 
ENDROOT
BRANCH   1  13
ATOM     13  O   UNL     1       3.170   5.628  18.382  0.00  0.00    +0.000 OA
BRANCH  13  14
ATOM     14  C   UNL     1       2.402   4.466  18.348  0.00  0.00    +0.000 C 
ATOM     15  O   UNL     1       1.697   4.082  17.423  0.00  0.00    +0.000 OA
BRANCH  14  16
ATOM     16  C   UNL     1       2.620   3.689  19.619  0.00  0.00    +0.000 C 
BRANCH  16  18
ATOM     17  C   UNL     1       1.532   2.734  21.663  0.00  0.00    +0.000 C 
ATOM     18  C   UNL     1       1.302   3.368  20.303  0.00  0.00    +0.000 C 
ENDBRANCH  16  18
ENDBRANCH  14  16
ENDBRANCH  13  14
ENDBRANCH   1  13
BRANCH   7  19
ATOM     19  C   UNL     1       0.060  12.040  21.494  0.00  0.00    +0.000 C 
BRANCH  19  20
ATOM     20  C   UNL     1      -1.406  12.248  21.801  0.00  0.00    +0.000 A 
ATOM     21  C   UNL     1      -1.874  12.329  23.120  0.00  0.00    +0.000 A 
ATOM     22  C   UNL     1      -3.192  12.713  23.388  0.00  0.00    +0.000 A 
ATOM     23  C   UNL     1      -4.063  13.028  22.342  0.00  0.00    +0.000 A 
ATOM     24  C   UNL     1      -3.616  12.937  21.025  0.00  0.00    +0.000 A 
ATOM     25  C   UNL     1      -2.305  12.521  20.761  0.00  0.00    +0.000 A 
ATOM     26  F   UNL     1      -1.883  12.461  19.487  0.00  0.00    +0.000 F 
BRANCH  24  27
ATOM     27  N   UNL     1      -4.499  13.245  19.934  0.00  0.00    +0.000 N 
ATOM     28  H   UNL     1      -4.466  14.226  19.656  0.00  0.00    +0.000 HD
BRANCH  27  29
ATOM     29  S   UNL     1      -6.112  12.862  20.206  0.00  0.00    +0.000 S 
ATOM     30  O   UNL     1      -6.247  11.515  20.696  0.00  0.00    +0.000 OA
ATOM     31  O   UNL     1      -6.709  14.002  20.857  0.00  0.00    +0.000 OA
BRANCH  29  32
ATOM     32  N   UNL     1      -6.603  12.856  18.598  0.00  0.00    +0.000 NA
ATOM     33  C   UNL     1      -5.619  12.257  17.679  0.00  0.00    +0.000 C 
ATOM     34  H   UNL     1      -6.800  13.824  18.337  0.00  0.00    +0.000 HD
ENDBRANCH  29  32
ENDBRANCH  27  29
ENDBRANCH  24  27
ENDBRANCH  19  20
ENDBRANCH   7  19
TORSDOF 9
ENDMDL
MODEL 5
REMARK VINA RESULT:      -7.5      2.707      3.569
REMARK  Name = 
REMARK  11 active torsions:
REMARK  status: ('A' for Active; 'I' for Inactive)
REMARK    1  A    between atoms: C_1  and  C_2
REMARK    2  A    between atoms: C_2  and  C_3
REMARK    3  A    between atoms: C_3  and  C_4
REMARK    4  A    between atoms: C_4  and  O_6
REMARK    5  A    between atoms: O_6  and  C_7
REMARK    6  A    between atoms: N_13  and  C_14
REMARK    7  A    between atoms: C_14  and  C_15
REMARK    8  A    between atoms: C_19  and  N_20
REMARK    9  A    between atoms: N_20  and  S_21
REMARK   10  A    between atoms: S_21  and  N_24
REMARK   11  A    between atoms: N_24  and  C_25
REMARK                            x       y       z     vdW  Elec       q    Type
REMARK                         _______ _______ _______ _____ _____    ______ ____
ROOT
ATOM      1  C   UNL     1       2.545   6.309  19.094  0.00  0.00    +0.000 A 
ATOM      2  C   UNL     1       2.531   7.185  18.005  0.00  0.00    +0.000 A 
ATOM      3  C   UNL     1       2.001   8.461  18.154  0.00  0.00    +0.000 A 
ATOM      4  C   UNL     1       1.518   8.867  19.399  0.00  0.00    +0.000 A 
ATOM      5  C   UNL     1       1.027  10.231  19.592  0.00  0.00    +0.000 A 
ATOM      6  O   UNL     1       1.001  10.995  18.629  0.00  0.00    +0.000 OA
ATOM      7  N   UNL     1       0.667  10.588  20.879  0.00  0.00    +0.000 N 
ATOM      8  C   UNL     1       0.701   9.725  21.970  0.00  0.00    +0.000 A 
ATOM      9  O   UNL     1       0.398  10.062  23.113  0.00  0.00    +0.000 OA
ATOM     10  O   UNL     1       1.120   8.407  21.741  0.00  0.00    +0.000 OA
ATOM     11  C   UNL     1       1.564   8.002  20.479  0.00  0.00    +0.000 A 
ATOM     12  C   UNL     1       2.079   6.711  20.345  0.00  0.00    +0.000 A 
ENDROOT
BRANCH   1  13
ATOM     13  O   UNL     1       3.153   5.052  18.983  0.00  0.00    +0.000 OA
BRANCH  13  14
ATOM     14  C   UNL     1       4.471   5.045  18.530  0.00  0.00    +0.000 C 
ATOM     15  O   UNL     1       5.452   5.465  19.131  0.00  0.00    +0.000 OA
BRANCH  14  16
ATOM     16  C   UNL     1       4.532   4.365  17.189  0.00  0.00    +0.000 C 
BRANCH  16  18
ATOM     17  C   UNL     1       5.533   4.409  14.894  0.00  0.00    +0.000 C 
ATOM     18  C   UNL     1       5.399   5.144  16.215  0.00  0.00    +0.000 C 
ENDBRANCH  16  18
ENDBRANCH  14  16
ENDBRANCH  13  14
ENDBRANCH   1  13
BRANCH   7  19
ATOM     19  C   UNL     1       0.375  11.995  21.116  0.00  0.00    +0.000 C 
BRANCH  19  20
ATOM     20  C   UNL     1      -1.087  12.377  21.076  0.00  0.00    +0.000 A 
ATOM     21  C   UNL     1      -1.831  12.303  19.890  0.00  0.00    +0.000 A 
ATOM     22  C   UNL     1      -3.220  12.471  19.907  0.00  0.00    +0.000 A 
ATOM     23  C   UNL     1      -3.889  12.710  21.109  0.00  0.00    +0.000 A 
ATOM     24  C   UNL     1      -3.161  12.802  22.294  0.00  0.00    +0.000 A 
ATOM     25  C   UNL     1      -1.767  12.665  22.268  0.00  0.00    +0.000 A 
ATOM     26  F   UNL     1      -1.082  12.732  23.421  0.00  0.00    +0.000 F 
BRANCH  24  27
ATOM     27  N   UNL     1      -3.827  13.059  23.540  0.00  0.00    +0.000 N 
ATOM     28  H   UNL     1      -4.704  12.547  23.639  0.00  0.00    +0.000 HD
BRANCH  27  29
ATOM     29  S   UNL     1      -4.164  14.678  23.835  0.00  0.00    +0.000 S 
ATOM     30  O   UNL     1      -3.310  15.534  23.053  0.00  0.00    +0.000 OA
ATOM     31  O   UNL     1      -5.601  14.809  23.862  0.00  0.00    +0.000 OA
BRANCH  29  32
ATOM     32  N   UNL     1      -3.600  14.728  25.418  0.00  0.00    +0.000 NA
ATOM     33  C   UNL     1      -2.256  15.319  25.551  0.00  0.00    +0.000 C 
ATOM     34  H   UNL     1      -3.612  13.771  25.776  0.00  0.00    +0.000 HD
ENDBRANCH  29  32
ENDBRANCH  27  29
ENDBRANCH  24  27
ENDBRANCH  19  20
ENDBRANCH   7  19
TORSDOF 9
ENDMDL
MODEL 6
REMARK VINA RESULT:      -7.5      2.752      3.279
REMARK  Name = 
REMARK  11 active torsions:
REMARK  status: ('A' for Active; 'I' for Inactive)
REMARK    1  A    between atoms: C_1  and  C_2
REMARK    2  A    between atoms: C_2  and  C_3
REMARK    3  A    between atoms: C_3  and  C_4
REMARK    4  A    between atoms: C_4  and  O_6
REMARK    5  A    between atoms: O_6  and  C_7
REMARK    6  A    between atoms: N_13  and  C_14
REMARK    7  A    between atoms: C_14  and  C_15
REMARK    8  A    between atoms: C_19  and  N_20
REMARK    9  A    between atoms: N_20  and  S_21
REMARK   10  A    between atoms: S_21  and  N_24
REMARK   11  A    between atoms: N_24  and  C_25
REMARK                            x       y       z     vdW  Elec       q    Type
REMARK                         _______ _______ _______ _____ _____    ______ ____
ROOT
ATOM      1  C   UNL     1       2.430   6.140  19.177  0.00  0.00    +0.000 A 
ATOM      2  C   UNL     1       2.533   6.992  18.073  0.00  0.00    +0.000 A 
ATOM      3  C   UNL     1       2.092   8.306  18.174  0.00  0.00    +0.000 A 
ATOM      4  C   UNL     1       1.582   8.772  19.387  0.00  0.00    +0.000 A 
ATOM      5  C   UNL     1       1.183  10.172  19.532  0.00  0.00    +0.000 A 
ATOM      6  O   UNL     1       1.261  10.916  18.555  0.00  0.00    +0.000 OA
ATOM      7  N   UNL     1       0.789  10.582  20.794  0.00  0.00    +0.000 N 
ATOM      8  C   UNL     1       0.707   9.741  21.899  0.00  0.00    +0.000 A 
ATOM      9  O   UNL     1       0.375  10.123  23.020  0.00  0.00    +0.000 OA
ATOM     10  O   UNL     1       1.038   8.391  21.714  0.00  0.00    +0.000 OA
ATOM     11  C   UNL     1       1.511   7.929  20.483  0.00  0.00    +0.000 A 
ATOM     12  C   UNL     1       1.935   6.602  20.397  0.00  0.00    +0.000 A 
ENDROOT
BRANCH   1  13
ATOM     13  O   UNL     1       2.948   4.840  19.118  0.00  0.00    +0.000 OA
BRANCH  13  14
ATOM     14  C   UNL     1       2.465   4.034  18.089  0.00  0.00    +0.000 C 
ATOM     15  O   UNL     1       1.309   3.972  17.689  0.00  0.00    +0.000 OA
BRANCH  14  16
ATOM     16  C   UNL     1       3.611   3.279  17.470  0.00  0.00    +0.000 C 
BRANCH  16  18
ATOM     17  C   UNL     1       5.161   4.659  16.069  0.00  0.00    +0.000 C 
ATOM     18  C   UNL     1       4.879   4.114  17.457  0.00  0.00    +0.000 C 
ENDBRANCH  16  18
ENDBRANCH  14  16
ENDBRANCH  13  14
ENDBRANCH   1  13
BRANCH   7  19
ATOM     19  C   UNL     1       0.591  12.010  20.991  0.00  0.00    +0.000 C 
BRANCH  19  20
ATOM     20  C   UNL     1      -0.832  12.500  20.854  0.00  0.00    +0.000 A 
ATOM     21  C   UNL     1      -1.664  12.052  19.818  0.00  0.00    +0.000 A 
ATOM     22  C   UNL     1      -3.029  12.360  19.814  0.00  0.00    +0.000 A 
ATOM     23  C   UNL     1      -3.586  13.115  20.849  0.00  0.00    +0.000 A 
ATOM     24  C   UNL     1      -2.769  13.580  21.878  0.00  0.00    +0.000 A 
ATOM     25  C   UNL     1      -1.398  13.297  21.860  0.00  0.00    +0.000 A 
ATOM     26  F   UNL     1      -0.628  13.732  22.871  0.00  0.00    +0.000 F 
BRANCH  24  27
ATOM     27  N   UNL     1      -3.319  14.368  22.945  0.00  0.00    +0.000 N 
ATOM     28  H   UNL     1      -2.678  15.086  23.285  0.00  0.00    +0.000 HD
BRANCH  27  29
ATOM     29  S   UNL     1      -3.827  13.486  24.281  0.00  0.00    +0.000 S 
ATOM     30  O   UNL     1      -3.758  12.071  24.022  0.00  0.00    +0.000 OA
ATOM     31  O   UNL     1      -3.234  14.105  25.442  0.00  0.00    +0.000 OA
BRANCH  29  32
ATOM     32  N   UNL     1      -5.449  13.923  24.221  0.00  0.00    +0.000 NA
ATOM     33  C   UNL     1      -6.365  12.782  24.041  0.00  0.00    +0.000 C 
ATOM     34  H   UNL     1      -5.555  14.596  23.459  0.00  0.00    +0.000 HD
ENDBRANCH  29  32
ENDBRANCH  27  29
ENDBRANCH  24  27
ENDBRANCH  19  20
ENDBRANCH   7  19
TORSDOF 9
ENDMDL
MODEL 7
REMARK VINA RESULT:      -7.5      1.414      1.831
REMARK  Name = 
REMARK  11 active torsions:
REMARK  status: ('A' for Active; 'I' for Inactive)
REMARK    1  A    between atoms: C_1  and  C_2
REMARK    2  A    between atoms: C_2  and  C_3
REMARK    3  A    between atoms: C_3  and  C_4
REMARK    4  A    between atoms: C_4  and  O_6
REMARK    5  A    between atoms: O_6  and  C_7
REMARK    6  A    between atoms: N_13  and  C_14
REMARK    7  A    between atoms: C_14  and  C_15
REMARK    8  A    between atoms: C_19  and  N_20
REMARK    9  A    between atoms: N_20  and  S_21
REMARK   10  A    between atoms: S_21  and  N_24
REMARK   11  A    between atoms: N_24  and  C_25
REMARK                            x       y       z     vdW  Elec       q    Type
REMARK                         _______ _______ _______ _____ _____    ______ ____
ROOT
ATOM      1  C   UNL     1       2.720   6.352  19.191  0.00  0.00    +0.000 A 
ATOM      2  C   UNL     1       2.548   7.178  18.076  0.00  0.00    +0.000 A 
ATOM      3  C   UNL     1       1.878   8.388  18.213  0.00  0.00    +0.000 A 
ATOM      4  C   UNL     1       1.413   8.782  19.468  0.00  0.00    +0.000 A 
ATOM      5  C   UNL     1       0.773  10.086  19.644  0.00  0.00    +0.000 A 
ATOM      6  O   UNL     1       0.609  10.805  18.659  0.00  0.00    +0.000 OA
ATOM      7  N   UNL     1       0.438  10.448  20.936  0.00  0.00    +0.000 N 
ATOM      8  C   UNL     1       0.629   9.637  22.050  0.00  0.00    +0.000 A 
ATOM      9  O   UNL     1       0.345   9.979  23.197  0.00  0.00    +0.000 OA
ATOM     10  O   UNL     1       1.189   8.369  21.842  0.00  0.00    +0.000 OA
ATOM     11  C   UNL     1       1.615   7.971  20.571  0.00  0.00    +0.000 A 
ATOM     12  C   UNL     1       2.272   6.745  20.452  0.00  0.00    +0.000 A 
ENDROOT
BRANCH   1  13
ATOM     13  O   UNL     1       3.467   5.171  19.088  0.00  0.00    +0.000 OA
BRANCH  13  14
ATOM     14  C   UNL     1       3.490   4.568  17.831  0.00  0.00    +0.000 C 
ATOM     15  O   UNL     1       4.434   4.538  17.052  0.00  0.00    +0.000 OA
BRANCH  14  16
ATOM     16  C   UNL     1       2.175   3.876  17.588  0.00  0.00    +0.000 C 
BRANCH  16  18
ATOM     17  C   UNL     1       3.409   1.800  18.253  0.00  0.00    +0.000 C 
ATOM     18  C   UNL     1       2.098   2.559  18.342  0.00  0.00    +0.000 C 
ENDBRANCH  16  18
ENDBRANCH  14  16
ENDBRANCH  13  14
ENDBRANCH   1  13
BRANCH   7  19
ATOM     19  C   UNL     1      -0.007  11.819  21.143  0.00  0.00    +0.000 C 
BRANCH  19  20
ATOM     20  C   UNL     1      -1.501  12.013  21.259  0.00  0.00    +0.000 A 
ATOM     21  C   UNL     1      -2.123  12.177  22.506  0.00  0.00    +0.000 A 
ATOM     22  C   UNL     1      -3.470  12.548  22.588  0.00  0.00    +0.000 A 
ATOM     23  C   UNL     1      -4.215  12.768  21.427  0.00  0.00    +0.000 A 
ATOM     24  C   UNL     1      -3.614  12.595  20.182  0.00  0.00    +0.000 A 
ATOM     25  C   UNL     1      -2.275  12.191  20.104  0.00  0.00    +0.000 A 
ATOM     26  F   UNL     1      -1.704  12.051  18.896  0.00  0.00    +0.000 F 
BRANCH  24  27
ATOM     27  N   UNL     1      -4.366  12.803  18.976  0.00  0.00    +0.000 N 
ATOM     28  H   UNL     1      -5.021  13.582  19.041  0.00  0.00    +0.000 HD
BRANCH  27  29
ATOM     29  S   UNL     1      -5.237  11.467  18.451  0.00  0.00    +0.000 S 
ATOM     30  O   UNL     1      -4.356  10.387  18.086  0.00  0.00    +0.000 OA
ATOM     31  O   UNL     1      -6.347  11.307  19.358  0.00  0.00    +0.000 OA
BRANCH  29  32
ATOM     32  N   UNL     1      -5.815  12.138  17.021  0.00  0.00    +0.000 NA
ATOM     33  C   UNL     1      -6.946  13.063  17.215  0.00  0.00    +0.000 C 
ATOM     34  H   UNL     1      -6.081  11.364  16.408  0.00  0.00    +0.000 HD
ENDBRANCH  29  32
ENDBRANCH  27  29
ENDBRANCH  24  27
ENDBRANCH  19  20
ENDBRANCH   7  19
TORSDOF 9
ENDMDL
MODEL 8
REMARK VINA RESULT:      -7.4      5.357     10.329
REMARK  Name = 
REMARK  11 active torsions:
REMARK  status: ('A' for Active; 'I' for Inactive)
REMARK    1  A    between atoms: C_1  and  C_2
REMARK    2  A    between atoms: C_2  and  C_3
REMARK    3  A    between atoms: C_3  and  C_4
REMARK    4  A    between atoms: C_4  and  O_6
REMARK    5  A    between atoms: O_6  and  C_7
REMARK    6  A    between atoms: N_13  and  C_14
REMARK    7  A    between atoms: C_14  and  C_15
REMARK    8  A    between atoms: C_19  and  N_20
REMARK    9  A    between atoms: N_20  and  S_21
REMARK   10  A    between atoms: S_21  and  N_24
REMARK   11  A    between atoms: N_24  and  C_25
REMARK                            x       y       z     vdW  Elec       q    Type
REMARK                         _______ _______ _______ _____ _____    ______ ____
ROOT
ATOM      1  C   UNL     1       0.316  10.596  19.717  0.00  0.00    +0.000 A 
ATOM      2  C   UNL     1       0.948  10.623  18.470  0.00  0.00    +0.000 A 
ATOM      3  C   UNL     1       1.748   9.556  18.080  0.00  0.00    +0.000 A 
ATOM      4  C   UNL     1       1.887   8.453  18.923  0.00  0.00    +0.000 A 
ATOM      5  C   UNL     1       2.664   7.290  18.496  0.00  0.00    +0.000 A 
ATOM      6  O   UNL     1       3.232   7.322  17.405  0.00  0.00    +0.000 OA
ATOM      7  N   UNL     1       2.665   6.195  19.342  0.00  0.00    +0.000 N 
ATOM      8  C   UNL     1       2.019   6.156  20.573  0.00  0.00    +0.000 A 
ATOM      9  O   UNL     1       2.011   5.169  21.306  0.00  0.00    +0.000 OA
ATOM     10  O   UNL     1       1.332   7.308  20.982  0.00  0.00    +0.000 OA
ATOM     11  C   UNL     1       1.234   8.422  20.143  0.00  0.00    +0.000 A 
ATOM     12  C   UNL     1       0.438   9.491  20.559  0.00  0.00    +0.000 A 
ENDROOT
BRANCH   1  13
ATOM     13  O   UNL     1      -0.561  11.623  20.088  0.00  0.00    +0.000 OA
BRANCH  13  14
ATOM     14  C   UNL     1       0.007  12.700  20.767  0.00  0.00    +0.000 C 
ATOM     15  O   UNL     1       0.397  12.709  21.927  0.00  0.00    +0.000 OA
BRANCH  14  16
ATOM     16  C   UNL     1       0.144  13.865  19.823  0.00  0.00    +0.000 C 
BRANCH  16  18
ATOM     17  C   UNL     1       2.618  13.609  19.528  0.00  0.00    +0.000 C 
ATOM     18  C   UNL     1       1.499  14.535  19.968  0.00  0.00    +0.000 C 
ENDBRANCH  16  18
ENDBRANCH  14  16
ENDBRANCH  13  14
ENDBRANCH   1  13
BRANCH   7  19
ATOM     19  C   UNL     1       3.262   4.968  18.832  0.00  0.00    +0.000 C 
BRANCH  19  20
ATOM     20  C   UNL     1       4.722   5.057  18.453  0.00  0.00    +0.000 A 
ATOM     21  C   UNL     1       5.687   5.520  19.359  0.00  0.00    +0.000 A 
ATOM     22  C   UNL     1       7.051   5.415  19.065  0.00  0.00    +0.000 A 
ATOM     23  C   UNL     1       7.473   4.840  17.865  0.00  0.00    +0.000 A 
ATOM     24  C   UNL     1       6.526   4.390  16.947  0.00  0.00    +0.000 A 
ATOM     25  C   UNL     1       5.161   4.527  17.232  0.00  0.00    +0.000 A 
ATOM     26  F   UNL     1       4.260   4.066  16.348  0.00  0.00    +0.000 F 
BRANCH  24  27
ATOM     27  N   UNL     1       6.938   3.807  15.701  0.00  0.00    +0.000 N 
ATOM     28  H   UNL     1       7.899   3.467  15.716  0.00  0.00    +0.000 HD
BRANCH  27  29
ATOM     29  S   UNL     1       6.793   4.821  14.370  0.00  0.00    +0.000 S 
ATOM     30  O   UNL     1       5.678   5.720  14.524  0.00  0.00    +0.000 OA
ATOM     31  O   UNL     1       8.123   5.265  14.034  0.00  0.00    +0.000 OA
BRANCH  29  32
ATOM     32  N   UNL     1       6.331   3.648  13.257  0.00  0.00    +0.000 NA
ATOM     33  C   UNL     1       6.959   3.806  11.933  0.00  0.00    +0.000 C 
ATOM     34  H   UNL     1       5.313   3.683  13.182  0.00  0.00    +0.000 HD
ENDBRANCH  29  32
ENDBRANCH  27  29
ENDBRANCH  24  27
ENDBRANCH  19  20
ENDBRANCH   7  19
TORSDOF 9
ENDMDL
MODEL 9
REMARK VINA RESULT:      -7.4      1.048      1.109
REMARK  Name = 
REMARK  11 active torsions:
REMARK  status: ('A' for Active; 'I' for Inactive)
REMARK    1  A    between atoms: C_1  and  C_2
REMARK    2  A    between atoms: C_2  and  C_3
REMARK    3  A    between atoms: C_3  and  C_4
REMARK    4  A    between atoms: C_4  and  O_6
REMARK    5  A    between atoms: O_6  and  C_7
REMARK    6  A    between atoms: N_13  and  C_14
REMARK    7  A    between atoms: C_14  and  C_15
REMARK    8  A    between atoms: C_19  and  N_20
REMARK    9  A    between atoms: N_20  and  S_21
REMARK   10  A    between atoms: S_21  and  N_24
REMARK   11  A    between atoms: N_24  and  C_25
REMARK                            x       y       z     vdW  Elec       q    Type
REMARK                         _______ _______ _______ _____ _____    ______ ____
ROOT
ATOM      1  C   UNL     1       2.697   6.823  19.218  0.00  0.00    +0.000 A 
ATOM      2  C   UNL     1       2.522   7.718  18.159  0.00  0.00    +0.000 A 
ATOM      3  C   UNL     1       1.814   8.896  18.364  0.00  0.00    +0.000 A 
ATOM      4  C   UNL     1       1.315   9.191  19.633  0.00  0.00    +0.000 A 
ATOM      5  C   UNL     1       0.634  10.461  19.883  0.00  0.00    +0.000 A 
ATOM      6  O   UNL     1       0.467  11.241  18.946  0.00  0.00    +0.000 OA
ATOM      7  N   UNL     1       0.264  10.724  21.190  0.00  0.00    +0.000 N 
ATOM      8  C   UNL     1       0.457   9.845  22.251  0.00  0.00    +0.000 A 
ATOM      9  O   UNL     1       0.142  10.100  23.412  0.00  0.00    +0.000 OA
ATOM     10  O   UNL     1       1.059   8.610  21.968  0.00  0.00    +0.000 OA
ATOM     11  C   UNL     1       1.519   8.312  20.683  0.00  0.00    +0.000 A 
ATOM     12  C   UNL     1       2.214   7.116  20.494  0.00  0.00    +0.000 A 
ENDROOT
BRANCH   1  13
ATOM     13  O   UNL     1       3.480   5.673  19.051  0.00  0.00    +0.000 OA
BRANCH  13  14
ATOM     14  C   UNL     1       2.817   4.544  18.573  0.00  0.00    +0.000 C 
ATOM     15  O   UNL     1       1.657   4.225  18.803  0.00  0.00    +0.000 OA
BRANCH  14  16
ATOM     16  C   UNL     1       3.731   3.785  17.648  0.00  0.00    +0.000 C 
BRANCH  16  18
ATOM     17  C   UNL     1       5.883   4.607  16.665  0.00  0.00    +0.000 C 
ATOM     18  C   UNL     1       4.369   4.708  16.624  0.00  0.00    +0.000 C 
ENDBRANCH  16  18
ENDBRANCH  14  16
ENDBRANCH  13  14
ENDBRANCH   1  13
BRANCH   7  19
ATOM     19  C   UNL     1      -0.225  12.065  21.480  0.00  0.00    +0.000 C 
BRANCH  19  20
ATOM     20  C   UNL     1      -1.724  12.203  21.609  0.00  0.00    +0.000 A 
ATOM     21  C   UNL     1      -2.362  12.134  22.856  0.00  0.00    +0.000 A 
ATOM     22  C   UNL     1      -3.717  12.456  22.983  0.00  0.00    +0.000 A 
ATOM     23  C   UNL     1      -4.457  12.858  21.869  0.00  0.00    +0.000 A 
ATOM     24  C   UNL     1      -3.841  12.916  20.620  0.00  0.00    +0.000 A 
ATOM     25  C   UNL     1      -2.492  12.562  20.492  0.00  0.00    +0.000 A 
ATOM     26  F   UNL     1      -1.906  12.646  19.286  0.00  0.00    +0.000 F 
BRANCH  24  27
ATOM     27  N   UNL     1      -4.586  13.314  19.459  0.00  0.00    +0.000 N 
ATOM     28  H   UNL     1      -5.291  14.024  19.658  0.00  0.00    +0.000 HD
BRANCH  27  29
ATOM     29  S   UNL     1      -5.360  12.058  18.656  0.00  0.00    +0.000 S 
ATOM     30  O   UNL     1      -4.421  11.039  18.265  0.00  0.00    +0.000 OA
ATOM     31  O   UNL     1      -6.571  11.777  19.388  0.00  0.00    +0.000 OA
BRANCH  29  32
ATOM     32  N   UNL     1      -5.770  12.913  17.267  0.00  0.00    +0.000 NA
ATOM     33  C   UNL     1      -7.047  13.640  17.373  0.00  0.00    +0.000 C 
ATOM     34  H   UNL     1      -5.796  12.245  16.495  0.00  0.00    +0.000 HD
ENDBRANCH  29  32
ENDBRANCH  27  29
ENDBRANCH  24  27
ENDBRANCH  19  20
ENDBRANCH   7  19
TORSDOF 9
ENDMDL
