MODEL 1
REMARK VINA RESULT:      -7.0      0.000      0.000
REMARK  Name = 
REMARK  12 active torsions:
REMARK  status: ('A' for Active; 'I' for Inactive)
REMARK    1  A    between atoms: C_1  and  O_2
REMARK    2  A    between atoms: O_2  and  C_3
REMARK    3  A    between atoms: C_5  and  O_6
REMARK    4  A    between atoms: O_6  and  C_7
REMARK    5  A    between atoms: C_9  and  C_10
REMARK    6  A    between atoms: C_11  and  C_12
REMARK    7  A    between atoms: C_19  and  C_20
REMARK    8  A    between atoms: C_23  and  O_24
REMARK    9  A    between atoms: O_24  and  C_25
REMARK   10  A    between atoms: C_26  and  O_27
REMARK   11  A    between atoms: O_27  and  C_28
REMARK   12  A    between atoms: N_33  and  C_34
REMARK                            x       y       z     vdW  Elec       q    Type
REMARK                         _______ _______ _______ _____ _____    ______ ____
ROOT
ATOM      1  C   UNL     1      -2.040  11.818  20.764  0.00  0.00    +0.000 A 
ATOM      2  C   UNL     1      -1.563  11.061  19.691  0.00  0.00    +0.000 A 
ATOM      3  C   UNL     1      -0.431  10.318  20.117  0.00  0.00    +0.000 A 
ATOM      4  C   UNL     1       0.455   9.446  19.461  0.00  0.00    +0.000 A 
ATOM      5  C   UNL     1       1.328   8.598  20.145  0.00  0.00    +0.000 A 
ATOM      6  C   UNL     1       1.293   8.658  21.544  0.00  0.00    +0.000 A 
ATOM      7  C   UNL     1       0.498   9.603  22.243  0.00  0.00    +0.000 A 
ATOM      8  C   UNL     1      -0.349  10.449  21.500  0.00  0.00    +0.000 A 
ATOM      9  N   UNL     1      -1.189  11.508  21.836  0.00  0.00    +0.000 N 
ATOM     10  C   UNL     1      -1.059  12.288  23.048  0.00  0.00    +0.000 C 
ENDROOT
BRANCH   1  15
ATOM     11  C   UNL     1      -5.418  13.499  20.649  0.00  0.00    +0.000 A 
ATOM     12  C   UNL     1      -5.075  14.845  20.617  0.00  0.00    +0.000 A 
ATOM     13  C   UNL     1      -3.736  15.247  20.671  0.00  0.00    +0.000 A 
ATOM     14  C   UNL     1      -2.720  14.280  20.753  0.00  0.00    +0.000 A 
ATOM     15  C   UNL     1      -3.039  12.916  20.746  0.00  0.00    +0.000 A 
ATOM     16  C   UNL     1      -4.405  12.551  20.714  0.00  0.00    +0.000 A 
BRANCH  11  18
ATOM     17  C   UNL     1      -7.162  11.869  20.547  0.00  0.00    +0.000 C 
ATOM     18  O   UNL     1      -6.759  13.234  20.584  0.00  0.00    +0.000 OA
ENDBRANCH  11  18
BRANCH  13  19
ATOM     19  O   UNL     1      -3.577  16.604  20.626  0.00  0.00    +0.000 OA
ATOM     20  C   UNL     1      -4.591  17.374  20.001  0.00  0.00    +0.000 C 
ENDBRANCH  13  19
ENDBRANCH   1  15
BRANCH   5  21
ATOM     21  C   UNL     1       2.160   7.665  19.346  0.00  0.00    +0.000 A 
ATOM     22  C   UNL     1       2.729   8.042  18.130  0.00  0.00    +0.000 A 
ATOM     23  C   UNL     1       3.570   7.165  17.436  0.00  0.00    +0.000 A 
ATOM     24  C   UNL     1       3.872   5.885  17.929  0.00  0.00    +0.000 A 
ATOM     25  C   UNL     1       3.333   5.484  19.159  0.00  0.00    +0.000 A 
ATOM     26  C   UNL     1       2.488   6.377  19.844  0.00  0.00    +0.000 A 
BRANCH  24  27
ATOM     27  O   UNL     1       4.706   5.190  17.090  0.00  0.00    +0.000 OA
ATOM     28  C   UNL     1       5.243   5.845  15.949  0.00  0.00    +0.000 C 
ENDBRANCH  24  27
BRANCH  25  29
ATOM     29  O   UNL     1       3.660   4.243  19.635  0.00  0.00    +0.000 OA
ATOM     30  C   UNL     1       2.755   3.575  20.501  0.00  0.00    +0.000 C 
ENDBRANCH  25  29
ENDBRANCH   5  21
BRANCH   2  31
ATOM     31  C   UNL     1      -2.172  10.907  18.327  0.00  0.00    +0.000 A 
ATOM     32  C   UNL     1      -2.987   9.856  17.963  0.00  0.00    +0.000 A 
ATOM     33  C   UNL     1      -3.162   9.785  16.547  0.00  0.00    +0.000 A 
ATOM     34  C   UNL     1      -2.540  10.828  15.895  0.00  0.00    +0.000 A 
ATOM     35  S   UNL     1      -1.836  11.923  16.991  0.00  0.00    +0.000 S 
ENDBRANCH   2  31
TORSDOF 7
ENDMDL
MODEL 2
REMARK VINA RESULT:      -7.0      0.544      2.107
REMARK  Name = 
REMARK  12 active torsions:
REMARK  status: ('A' for Active; 'I' for Inactive)
REMARK    1  A    between atoms: C_1  and  O_2
REMARK    2  A    between atoms: O_2  and  C_3
REMARK    3  A    between atoms: C_5  and  O_6
REMARK    4  A    between atoms: O_6  and  C_7
REMARK    5  A    between atoms: C_9  and  C_10
REMARK    6  A    between atoms: C_11  and  C_12
REMARK    7  A    between atoms: C_19  and  C_20
REMARK    8  A    between atoms: C_23  and  O_24
REMARK    9  A    between atoms: O_24  and  C_25
REMARK   10  A    between atoms: C_26  and  O_27
REMARK   11  A    between atoms: O_27  and  C_28
REMARK   12  A    between atoms: N_33  and  C_34
REMARK                            x       y       z     vdW  Elec       q    Type
REMARK                         _______ _______ _______ _____ _____    ______ ____
ROOT
ATOM      1  C   UNL     1      -2.042  11.786  20.755  0.00  0.00    +0.000 A 
ATOM      2  C   UNL     1      -1.556  11.033  19.682  0.00  0.00    +0.000 A 
ATOM      3  C   UNL     1      -0.424  10.293  20.113  0.00  0.00    +0.000 A 
ATOM      4  C   UNL     1       0.467   9.425  19.459  0.00  0.00    +0.000 A 
ATOM      5  C   UNL     1       1.339   8.577  20.146  0.00  0.00    +0.000 A 
ATOM      6  C   UNL     1       1.297   8.634  21.545  0.00  0.00    +0.000 A 
ATOM      7  C   UNL     1       0.495   9.575  22.242  0.00  0.00    +0.000 A 
ATOM      8  C   UNL     1      -0.350  10.421  21.496  0.00  0.00    +0.000 A 
ATOM      9  N   UNL     1      -1.195  11.477  21.830  0.00  0.00    +0.000 N 
ATOM     10  C   UNL     1      -1.074  12.254  23.045  0.00  0.00    +0.000 C 
ENDROOT
BRANCH   1  15
ATOM     11  C   UNL     1      -3.407  15.305  20.767  0.00  0.00    +0.000 A 
ATOM     12  C   UNL     1      -4.779  15.087  20.785  0.00  0.00    +0.000 A 
ATOM     13  C   UNL     1      -5.302  13.790  20.753  0.00  0.00    +0.000 A 
ATOM     14  C   UNL     1      -4.431  12.688  20.710  0.00  0.00    +0.000 A 
ATOM     15  C   UNL     1      -3.043  12.881  20.733  0.00  0.00    +0.000 A 
ATOM     16  C   UNL     1      -2.555  14.209  20.740  0.00  0.00    +0.000 A 
BRANCH  11  18
ATOM     17  C   UNL     1      -1.677  16.900  21.182  0.00  0.00    +0.000 C 
ATOM     18  O   UNL     1      -3.021  16.618  20.806  0.00  0.00    +0.000 OA
ENDBRANCH  11  18
BRANCH  13  19
ATOM     19  O   UNL     1      -6.668  13.758  20.780  0.00  0.00    +0.000 OA
ATOM     20  C   UNL     1      -7.311  12.523  20.510  0.00  0.00    +0.000 C 
ENDBRANCH  13  19
ENDBRANCH   1  15
BRANCH   5  21
ATOM     21  C   UNL     1       2.178   7.648  19.349  0.00  0.00    +0.000 A 
ATOM     22  C   UNL     1       2.742   8.026  18.131  0.00  0.00    +0.000 A 
ATOM     23  C   UNL     1       3.589   7.154  17.439  0.00  0.00    +0.000 A 
ATOM     24  C   UNL     1       3.904   5.879  17.936  0.00  0.00    +0.000 A 
ATOM     25  C   UNL     1       3.371   5.478  19.169  0.00  0.00    +0.000 A 
ATOM     26  C   UNL     1       2.519   6.366  19.851  0.00  0.00    +0.000 A 
BRANCH  24  27
ATOM     27  O   UNL     1       4.743   5.188  17.098  0.00  0.00    +0.000 OA
ATOM     28  C   UNL     1       5.259   5.838  15.945  0.00  0.00    +0.000 C 
ENDBRANCH  24  27
BRANCH  25  29
ATOM     29  O   UNL     1       3.709   4.241  19.649  0.00  0.00    +0.000 OA
ATOM     30  C   UNL     1       2.876   3.132  19.349  0.00  0.00    +0.000 C 
ENDBRANCH  25  29
ENDBRANCH   5  21
BRANCH   2  31
ATOM     31  C   UNL     1      -2.158  10.881  18.314  0.00  0.00    +0.000 A 
ATOM     32  C   UNL     1      -2.945   9.814  17.935  0.00  0.00    +0.000 A 
ATOM     33  C   UNL     1      -3.115   9.757  16.518  0.00  0.00    +0.000 A 
ATOM     34  C   UNL     1      -2.517  10.822  15.881  0.00  0.00    +0.000 A 
ATOM     35  S   UNL     1      -1.843  11.921  16.991  0.00  0.00    +0.000 S 
ENDBRANCH   2  31
TORSDOF 7
ENDMDL
MODEL 3
REMARK VINA RESULT:      -6.8      1.022      2.225
REMARK  Name = 
REMARK  12 active torsions:
REMARK  status: ('A' for Active; 'I' for Inactive)
REMARK    1  A    between atoms: C_1  and  O_2
REMARK    2  A    between atoms: O_2  and  C_3
REMARK    3  A    between atoms: C_5  and  O_6
REMARK    4  A    between atoms: O_6  and  C_7
REMARK    5  A    between atoms: C_9  and  C_10
REMARK    6  A    between atoms: C_11  and  C_12
REMARK    7  A    between atoms: C_19  and  C_20
REMARK    8  A    between atoms: C_23  and  O_24
REMARK    9  A    between atoms: O_24  and  C_25
REMARK   10  A    between atoms: C_26  and  O_27
REMARK   11  A    between atoms: O_27  and  C_28
REMARK   12  A    between atoms: N_33  and  C_34
REMARK                            x       y       z     vdW  Elec       q    Type
REMARK                         _______ _______ _______ _____ _____    ______ ____
ROOT
ATOM      1  C   UNL     1      -2.447  12.532  21.111  0.00  0.00    +0.000 A 
ATOM      2  C   UNL     1      -1.982  11.780  20.028  0.00  0.00    +0.000 A 
ATOM      3  C   UNL     1      -0.873  11.001  20.449  0.00  0.00    +0.000 A 
ATOM      4  C   UNL     1      -0.006  10.117  19.784  0.00  0.00    +0.000 A 
ATOM      5  C   UNL     1       0.840   9.235  20.459  0.00  0.00    +0.000 A 
ATOM      6  C   UNL     1       0.797   9.273  21.859  0.00  0.00    +0.000 A 
ATOM      7  C   UNL     1       0.022  10.227  22.568  0.00  0.00    +0.000 A 
ATOM      8  C   UNL     1      -0.797  11.108  21.834  0.00  0.00    +0.000 A 
ATOM      9  N   UNL     1      -1.611  12.183  22.182  0.00  0.00    +0.000 N 
ATOM     10  C   UNL     1      -1.469  12.939  23.408  0.00  0.00    +0.000 C 
ENDROOT
BRANCH   1  15
ATOM     11  C   UNL     1      -3.720  16.078  20.877  0.00  0.00    +0.000 A 
ATOM     12  C   UNL     1      -5.075  15.921  21.139  0.00  0.00    +0.000 A 
ATOM     13  C   UNL     1      -5.622  14.653  21.360  0.00  0.00    +0.000 A 
ATOM     14  C   UNL     1      -4.793  13.519  21.325  0.00  0.00    +0.000 A 
ATOM     15  C   UNL     1      -3.416  13.656  21.104  0.00  0.00    +0.000 A 
ATOM     16  C   UNL     1      -2.906  14.952  20.860  0.00  0.00    +0.000 A 
BRANCH  11  18
ATOM     17  C   UNL     1      -3.187  17.829  19.341  0.00  0.00    +0.000 C 
ATOM     18  O   UNL     1      -3.305  17.368  20.682  0.00  0.00    +0.000 OA
ENDBRANCH  11  18
BRANCH  13  19
ATOM     19  O   UNL     1      -6.967  14.680  21.606  0.00  0.00    +0.000 OA
ATOM     20  C   UNL     1      -7.813  13.906  20.772  0.00  0.00    +0.000 C 
ENDBRANCH  13  19
ENDBRANCH   1  15
BRANCH   5  21
ATOM     21  C   UNL     1       1.652   8.293  19.650  0.00  0.00    +0.000 A 
ATOM     22  C   UNL     1       2.112   8.625  18.376  0.00  0.00    +0.000 A 
ATOM     23  C   UNL     1       2.938   7.745  17.667  0.00  0.00    +0.000 A 
ATOM     24  C   UNL     1       3.335   6.509  18.203  0.00  0.00    +0.000 A 
ATOM     25  C   UNL     1       2.908   6.157  19.491  0.00  0.00    +0.000 A 
ATOM     26  C   UNL     1       2.076   7.051  20.190  0.00  0.00    +0.000 A 
BRANCH  24  27
ATOM     27  O   UNL     1       4.135   5.803  17.341  0.00  0.00    +0.000 OA
ATOM     28  C   UNL     1       4.921   6.509  16.391  0.00  0.00    +0.000 C 
ENDBRANCH  24  27
BRANCH  25  29
ATOM     29  O   UNL     1       3.326   4.959  20.007  0.00  0.00    +0.000 OA
ATOM     30  C   UNL     1       2.564   3.791  19.744  0.00  0.00    +0.000 C 
ENDBRANCH  25  29
ENDBRANCH   5  21
BRANCH   2  31
ATOM     31  C   UNL     1      -2.586  11.665  18.658  0.00  0.00    +0.000 A 
ATOM     32  C   UNL     1      -3.922  11.414  18.425  0.00  0.00    +0.000 A 
ATOM     33  C   UNL     1      -4.163  11.042  17.067  0.00  0.00    +0.000 A 
ATOM     34  C   UNL     1      -3.018  11.097  16.303  0.00  0.00    +0.000 A 
ATOM     35  S   UNL     1      -1.694  11.683  17.196  0.00  0.00    +0.000 S 
ENDBRANCH   2  31
TORSDOF 7
ENDMDL
MODEL 4
REMARK VINA RESULT:      -6.8      1.003      1.060
REMARK  Name = 
REMARK  12 active torsions:
REMARK  status: ('A' for Active; 'I' for Inactive)
REMARK    1  A    between atoms: C_1  and  O_2
REMARK    2  A    between atoms: O_2  and  C_3
REMARK    3  A    between atoms: C_5  and  O_6
REMARK    4  A    between atoms: O_6  and  C_7
REMARK    5  A    between atoms: C_9  and  C_10
REMARK    6  A    between atoms: C_11  and  C_12
REMARK    7  A    between atoms: C_19  and  C_20
REMARK    8  A    between atoms: C_23  and  O_24
REMARK    9  A    between atoms: O_24  and  C_25
REMARK   10  A    between atoms: C_26  and  O_27
REMARK   11  A    between atoms: O_27  and  C_28
REMARK   12  A    between atoms: N_33  and  C_34
REMARK                            x       y       z     vdW  Elec       q    Type
REMARK                         _______ _______ _______ _____ _____    ______ ____
ROOT
ATOM      1  C   UNL     1      -2.498  12.552  21.131  0.00  0.00    +0.000 A 
ATOM      2  C   UNL     1      -2.046  11.788  20.052  0.00  0.00    +0.000 A 
ATOM      3  C   UNL     1      -0.931  11.015  20.468  0.00  0.00    +0.000 A 
ATOM      4  C   UNL     1      -0.072  10.123  19.803  0.00  0.00    +0.000 A 
ATOM      5  C   UNL     1       0.783   9.250  20.478  0.00  0.00    +0.000 A 
ATOM      6  C   UNL     1       0.758   9.305  21.877  0.00  0.00    +0.000 A 
ATOM      7  C   UNL     1      -0.009  10.266  22.585  0.00  0.00    +0.000 A 
ATOM      8  C   UNL     1      -0.837  11.138  21.850  0.00  0.00    +0.000 A 
ATOM      9  N   UNL     1      -1.649  12.217  22.196  0.00  0.00    +0.000 N 
ATOM     10  C   UNL     1      -1.491  12.987  23.411  0.00  0.00    +0.000 C 
ENDROOT
BRANCH   1  15
ATOM     11  C   UNL     1      -5.808  14.343  21.418  0.00  0.00    +0.000 A 
ATOM     12  C   UNL     1      -5.468  15.645  21.074  0.00  0.00    +0.000 A 
ATOM     13  C   UNL     1      -4.145  15.988  20.777  0.00  0.00    +0.000 A 
ATOM     14  C   UNL     1      -3.143  15.004  20.819  0.00  0.00    +0.000 A 
ATOM     15  C   UNL     1      -3.468  13.676  21.123  0.00  0.00    +0.000 A 
ATOM     16  C   UNL     1      -4.813  13.375  21.441  0.00  0.00    +0.000 A 
BRANCH  11  18
ATOM     17  C   UNL     1      -7.601  12.789  21.697  0.00  0.00    +0.000 C 
ATOM     18  O   UNL     1      -7.135  14.134  21.682  0.00  0.00    +0.000 OA
ENDBRANCH  11  18
BRANCH  13  19
ATOM     19  O   UNL     1      -3.987  17.308  20.456  0.00  0.00    +0.000 OA
ATOM     20  C   UNL     1      -5.152  18.077  20.205  0.00  0.00    +0.000 C 
ENDBRANCH  13  19
ENDBRANCH   1  15
BRANCH   5  21
ATOM     21  C   UNL     1       1.586   8.299  19.670  0.00  0.00    +0.000 A 
ATOM     22  C   UNL     1       2.101   8.646  18.421  0.00  0.00    +0.000 A 
ATOM     23  C   UNL     1       2.916   7.754  17.716  0.00  0.00    +0.000 A 
ATOM     24  C   UNL     1       3.248   6.490  18.230  0.00  0.00    +0.000 A 
ATOM     25  C   UNL     1       2.765   6.121  19.493  0.00  0.00    +0.000 A 
ATOM     26  C   UNL     1       1.945   7.028  20.189  0.00  0.00    +0.000 A 
BRANCH  24  27
ATOM     27  O   UNL     1       4.050   5.777  17.376  0.00  0.00    +0.000 OA
ATOM     28  C   UNL     1       5.461   5.907  17.478  0.00  0.00    +0.000 C 
ENDBRANCH  24  27
BRANCH  25  29
ATOM     29  O   UNL     1       3.120   4.895  19.989  0.00  0.00    +0.000 OA
ATOM     30  C   UNL     1       2.437   4.385  21.123  0.00  0.00    +0.000 C 
ENDBRANCH  25  29
ENDBRANCH   5  21
BRANCH   2  31
ATOM     31  C   UNL     1      -2.667  11.656  18.690  0.00  0.00    +0.000 A 
ATOM     32  C   UNL     1      -4.004  11.397  18.477  0.00  0.00    +0.000 A 
ATOM     33  C   UNL     1      -4.261  11.009  17.126  0.00  0.00    +0.000 A 
ATOM     34  C   UNL     1      -3.126  11.062  16.347  0.00  0.00    +0.000 A 
ATOM     35  S   UNL     1      -1.793  11.663  17.217  0.00  0.00    +0.000 S 
ENDBRANCH   2  31
TORSDOF 7
ENDMDL
MODEL 5
REMARK VINA RESULT:      -6.5      1.010      1.775
REMARK  Name = 
REMARK  12 active torsions:
REMARK  status: ('A' for Active; 'I' for Inactive)
REMARK    1  A    between atoms: C_1  and  O_2
REMARK    2  A    between atoms: O_2  and  C_3
REMARK    3  A    between atoms: C_5  and  O_6
REMARK    4  A    between atoms: O_6  and  C_7
REMARK    5  A    between atoms: C_9  and  C_10
REMARK    6  A    between atoms: C_11  and  C_12
REMARK    7  A    between atoms: C_19  and  C_20
REMARK    8  A    between atoms: C_23  and  O_24
REMARK    9  A    between atoms: O_24  and  C_25
REMARK   10  A    between atoms: C_26  and  O_27
REMARK   11  A    between atoms: O_27  and  C_28
REMARK   12  A    between atoms: N_33  and  C_34
REMARK                            x       y       z     vdW  Elec       q    Type
REMARK                         _______ _______ _______ _____ _____    ______ ____
ROOT
ATOM      1  C   UNL     1      -2.005  12.141  20.977  0.00  0.00    +0.000 A 
ATOM      2  C   UNL     1      -1.569  11.237  20.004  0.00  0.00    +0.000 A 
ATOM      3  C   UNL     1      -0.531  10.437  20.550  0.00  0.00    +0.000 A 
ATOM      4  C   UNL     1       0.285   9.422  20.021  0.00  0.00    +0.000 A 
ATOM      5  C   UNL     1       1.045   8.567  20.822  0.00  0.00    +0.000 A 
ATOM      6  C   UNL     1       0.968   8.771  22.205  0.00  0.00    +0.000 A 
ATOM      7  C   UNL     1       0.247   9.852  22.774  0.00  0.00    +0.000 A 
ATOM      8  C   UNL     1      -0.485  10.697  21.915  0.00  0.00    +0.000 A 
ATOM      9  N   UNL     1      -1.227  11.860  22.110  0.00  0.00    +0.000 N 
ATOM     10  C   UNL     1      -1.061  12.742  23.246  0.00  0.00    +0.000 C 
ENDROOT
BRANCH   1  15
ATOM     11  C   UNL     1      -5.172  14.111  20.397  0.00  0.00    +0.000 A 
ATOM     12  C   UNL     1      -4.705  15.419  20.380  0.00  0.00    +0.000 A 
ATOM     13  C   UNL     1      -3.352  15.702  20.597  0.00  0.00    +0.000 A 
ATOM     14  C   UNL     1      -2.448  14.652  20.828  0.00  0.00    +0.000 A 
ATOM     15  C   UNL     1      -2.888  13.322  20.808  0.00  0.00    +0.000 A 
ATOM     16  C   UNL     1      -4.267  13.079  20.610  0.00  0.00    +0.000 A 
BRANCH  11  18
ATOM     17  C   UNL     1      -7.376  13.914  21.298  0.00  0.00    +0.000 C 
ATOM     18  O   UNL     1      -6.513  13.964  20.166  0.00  0.00    +0.000 OA
ENDBRANCH  11  18
BRANCH  13  19
ATOM     19  O   UNL     1      -3.065  17.037  20.544  0.00  0.00    +0.000 OA
ATOM     20  C   UNL     1      -2.152  17.485  19.556  0.00  0.00    +0.000 C 
ENDBRANCH  13  19
ENDBRANCH   1  15
BRANCH   5  21
ATOM     21  C   UNL     1       1.807   7.483  20.154  0.00  0.00    +0.000 A 
ATOM     22  C   UNL     1       1.788   6.171  20.627  0.00  0.00    +0.000 A 
ATOM     23  C   UNL     1       2.457   5.156  19.934  0.00  0.00    +0.000 A 
ATOM     24  C   UNL     1       3.163   5.412  18.747  0.00  0.00    +0.000 A 
ATOM     25  C   UNL     1       3.181   6.716  18.233  0.00  0.00    +0.000 A 
ATOM     26  C   UNL     1       2.506   7.726  18.944  0.00  0.00    +0.000 A 
BRANCH  24  27
ATOM     27  O   UNL     1       3.747   4.280  18.237  0.00  0.00    +0.000 OA
ATOM     28  C   UNL     1       4.482   3.429  19.106  0.00  0.00    +0.000 C 
ENDBRANCH  24  27
BRANCH  25  29
ATOM     29  O   UNL     1       3.854   6.941  17.062  0.00  0.00    +0.000 OA
ATOM     30  C   UNL     1       5.272   6.979  17.077  0.00  0.00    +0.000 C 
ENDBRANCH  25  29
ENDBRANCH   5  21
BRANCH   2  31
ATOM     31  C   UNL     1      -2.142  11.006  18.636  0.00  0.00    +0.000 A 
ATOM     32  C   UNL     1      -2.974   9.953  18.318  0.00  0.00    +0.000 A 
ATOM     33  C   UNL     1      -3.111   9.791  16.906  0.00  0.00    +0.000 A 
ATOM     34  C   UNL     1      -2.442  10.771  16.205  0.00  0.00    +0.000 A 
ATOM     35  S   UNL     1      -1.741  11.921  17.245  0.00  0.00    +0.000 S 
ENDBRANCH   2  31
TORSDOF 7
ENDMDL
MODEL 6
REMARK VINA RESULT:      -6.5      1.102      2.696
REMARK  Name = 
REMARK  12 active torsions:
REMARK  status: ('A' for Active; 'I' for Inactive)
REMARK    1  A    between atoms: C_1  and  O_2
REMARK    2  A    between atoms: O_2  and  C_3
REMARK    3  A    between atoms: C_5  and  O_6
REMARK    4  A    between atoms: O_6  and  C_7
REMARK    5  A    between atoms: C_9  and  C_10
REMARK    6  A    between atoms: C_11  and  C_12
REMARK    7  A    between atoms: C_19  and  C_20
REMARK    8  A    between atoms: C_23  and  O_24
REMARK    9  A    between atoms: O_24  and  C_25
REMARK   10  A    between atoms: C_26  and  O_27
REMARK   11  A    between atoms: O_27  and  C_28
REMARK   12  A    between atoms: N_33  and  C_34
REMARK                            x       y       z     vdW  Elec       q    Type
REMARK                         _______ _______ _______ _____ _____    ______ ____
ROOT
ATOM      1  C   UNL     1      -2.011  11.991  20.865  0.00  0.00    +0.000 A 
ATOM      2  C   UNL     1      -1.535  11.109  19.891  0.00  0.00    +0.000 A 
ATOM      3  C   UNL     1      -0.514  10.302  20.458  0.00  0.00    +0.000 A 
ATOM      4  C   UNL     1       0.326   9.302  19.940  0.00  0.00    +0.000 A 
ATOM      5  C   UNL     1       1.061   8.435  20.751  0.00  0.00    +0.000 A 
ATOM      6  C   UNL     1       0.933   8.610  22.135  0.00  0.00    +0.000 A 
ATOM      7  C   UNL     1       0.186   9.677  22.697  0.00  0.00    +0.000 A 
ATOM      8  C   UNL     1      -0.518  10.536  21.830  0.00  0.00    +0.000 A 
ATOM      9  N   UNL     1      -1.273  11.691  22.020  0.00  0.00    +0.000 N 
ATOM     10  C   UNL     1      -1.154  12.551  23.178  0.00  0.00    +0.000 C 
ENDROOT
BRANCH   1  15
ATOM     11  C   UNL     1      -3.015  15.614  20.538  0.00  0.00    +0.000 A 
ATOM     12  C   UNL     1      -4.399  15.528  20.448  0.00  0.00    +0.000 A 
ATOM     13  C   UNL     1      -5.044  14.287  20.451  0.00  0.00    +0.000 A 
ATOM     14  C   UNL     1      -4.287  13.108  20.553  0.00  0.00    +0.000 A 
ATOM     15  C   UNL     1      -2.893  13.171  20.687  0.00  0.00    +0.000 A 
ATOM     16  C   UNL     1      -2.277  14.443  20.655  0.00  0.00    +0.000 A 
BRANCH  11  18
ATOM     17  C   UNL     1      -3.059  17.813  19.605  0.00  0.00    +0.000 C 
ATOM     18  O   UNL     1      -2.504  16.885  20.530  0.00  0.00    +0.000 OA
ENDBRANCH  11  18
BRANCH  13  19
ATOM     19  O   UNL     1      -6.404  14.385  20.359  0.00  0.00    +0.000 OA
ATOM     20  C   UNL     1      -7.133  13.224  20.000  0.00  0.00    +0.000 C 
ENDBRANCH  13  19
ENDBRANCH   1  15
BRANCH   5  21
ATOM     21  C   UNL     1       1.852   7.367  20.091  0.00  0.00    +0.000 A 
ATOM     22  C   UNL     1       1.833   6.048  20.544  0.00  0.00    +0.000 A 
ATOM     23  C   UNL     1       2.531   5.050  19.856  0.00  0.00    +0.000 A 
ATOM     24  C   UNL     1       3.269   5.329  18.694  0.00  0.00    +0.000 A 
ATOM     25  C   UNL     1       3.290   6.641  18.200  0.00  0.00    +0.000 A 
ATOM     26  C   UNL     1       2.584   7.634  18.905  0.00  0.00    +0.000 A 
BRANCH  24  27
ATOM     27  O   UNL     1       3.879   4.211  18.186  0.00  0.00    +0.000 OA
ATOM     28  C   UNL     1       3.174   3.398  17.258  0.00  0.00    +0.000 C 
ENDBRANCH  24  27
BRANCH  25  29
ATOM     29  O   UNL     1       3.994   6.889  17.052  0.00  0.00    +0.000 OA
ATOM     30  C   UNL     1       5.411   6.927  17.107  0.00  0.00    +0.000 C 
ENDBRANCH  25  29
ENDBRANCH   5  21
BRANCH   2  31
ATOM     31  C   UNL     1      -2.057  10.902  18.498  0.00  0.00    +0.000 A 
ATOM     32  C   UNL     1      -1.804  11.759  17.448  0.00  0.00    +0.000 A 
ATOM     33  C   UNL     1      -2.666  11.506  16.337  0.00  0.00    +0.000 A 
ATOM     34  C   UNL     1      -3.487  10.421  16.554  0.00  0.00    +0.000 A 
ATOM     35  S   UNL     1      -3.150   9.666  18.042  0.00  0.00    +0.000 S 
ENDBRANCH   2  31
TORSDOF 7
ENDMDL
MODEL 7
REMARK VINA RESULT:      -6.3      3.028      4.491
REMARK  Name = 
REMARK  12 active torsions:
REMARK  status: ('A' for Active; 'I' for Inactive)
REMARK    1  A    between atoms: C_1  and  O_2
REMARK    2  A    between atoms: O_2  and  C_3
REMARK    3  A    between atoms: C_5  and  O_6
REMARK    4  A    between atoms: O_6  and  C_7
REMARK    5  A    between atoms: C_9  and  C_10
REMARK    6  A    between atoms: C_11  and  C_12
REMARK    7  A    between atoms: C_19  and  C_20
REMARK    8  A    between atoms: C_23  and  O_24
REMARK    9  A    between atoms: O_24  and  C_25
REMARK   10  A    between atoms: C_26  and  O_27
REMARK   11  A    between atoms: O_27  and  C_28
REMARK   12  A    between atoms: N_33  and  C_34
REMARK                            x       y       z     vdW  Elec       q    Type
REMARK                         _______ _______ _______ _____ _____    ______ ____
ROOT
ATOM      1  C   UNL     1      -0.352  13.563  19.393  0.00  0.00    +0.000 A 
ATOM      2  C   UNL     1       0.875  12.894  19.420  0.00  0.00    +0.000 A 
ATOM      3  C   UNL     1       0.663  11.527  19.103  0.00  0.00    +0.000 A 
ATOM      4  C   UNL     1       1.512  10.410  19.030  0.00  0.00    +0.000 A 
ATOM      5  C   UNL     1       1.139   9.213  18.415  0.00  0.00    +0.000 A 
ATOM      6  C   UNL     1      -0.150   9.165  17.868  0.00  0.00    +0.000 A 
ATOM      7  C   UNL     1      -1.078  10.228  18.019  0.00  0.00    +0.000 A 
ATOM      8  C   UNL     1      -0.653  11.404  18.669  0.00  0.00    +0.000 A 
ATOM      9  N   UNL     1      -1.294  12.582  19.045  0.00  0.00    +0.000 N 
ATOM     10  C   UNL     1      -2.724  12.700  19.228  0.00  0.00    +0.000 C 
ENDROOT
BRANCH   1  15
ATOM     11  C   UNL     1      -0.677  17.323  19.366  0.00  0.00    +0.000 A 
ATOM     12  C   UNL     1      -1.123  17.588  20.654  0.00  0.00    +0.000 A 
ATOM     13  C   UNL     1      -1.370  16.549  21.558  0.00  0.00    +0.000 A 
ATOM     14  C   UNL     1      -1.158  15.217  21.164  0.00  0.00    +0.000 A 
ATOM     15  C   UNL     1      -0.669  14.927  19.884  0.00  0.00    +0.000 A 
ATOM     16  C   UNL     1      -0.455  16.004  18.992  0.00  0.00    +0.000 A 
BRANCH  11  18
ATOM     17  C   UNL     1      -0.462  18.236  17.168  0.00  0.00    +0.000 C 
ATOM     18  O   UNL     1      -0.467  18.424  18.579  0.00  0.00    +0.000 OA
ENDBRANCH  11  18
BRANCH  13  19
ATOM     19  O   UNL     1      -1.800  16.987  22.780  0.00  0.00    +0.000 OA
ATOM     20  C   UNL     1      -2.047  16.018  23.786  0.00  0.00    +0.000 C 
ENDBRANCH  13  19
ENDBRANCH   1  15
BRANCH   5  21
ATOM     21  C   UNL     1       2.149   8.130  18.329  0.00  0.00    +0.000 A 
ATOM     22  C   UNL     1       3.142   8.124  17.350  0.00  0.00    +0.000 A 
ATOM     23  C   UNL     1       4.126   7.129  17.341  0.00  0.00    +0.000 A 
ATOM     24  C   UNL     1       4.154   6.108  18.305  0.00  0.00    +0.000 A 
ATOM     25  C   UNL     1       3.182   6.098  19.315  0.00  0.00    +0.000 A 
ATOM     26  C   UNL     1       2.199   7.105  19.310  0.00  0.00    +0.000 A 
BRANCH  24  27
ATOM     27  O   UNL     1       5.194   5.236  18.106  0.00  0.00    +0.000 OA
ATOM     28  C   UNL     1       5.154   4.351  16.995  0.00  0.00    +0.000 C 
ENDBRANCH  24  27
BRANCH  25  29
ATOM     29  O   UNL     1       3.241   5.110  20.261  0.00  0.00    +0.000 OA
ATOM     30  C   UNL     1       2.038   4.659  20.864  0.00  0.00    +0.000 C 
ENDBRANCH  25  29
ENDBRANCH   5  21
BRANCH   2  31
ATOM     31  C   UNL     1       2.243  13.483  19.612  0.00  0.00    +0.000 A 
ATOM     32  C   UNL     1       2.821  13.697  20.846  0.00  0.00    +0.000 A 
ATOM     33  C   UNL     1       3.966  14.546  20.755  0.00  0.00    +0.000 A 
ATOM     34  C   UNL     1       4.261  14.882  19.452  0.00  0.00    +0.000 A 
ATOM     35  S   UNL     1       3.222  14.103  18.352  0.00  0.00    +0.000 S 
ENDBRANCH   2  31
TORSDOF 7
ENDMDL
MODEL 8
REMARK VINA RESULT:      -6.2      2.638      3.614
REMARK  Name = 
REMARK  12 active torsions:
REMARK  status: ('A' for Active; 'I' for Inactive)
REMARK    1  A    between atoms: C_1  and  O_2
REMARK    2  A    between atoms: O_2  and  C_3
REMARK    3  A    between atoms: C_5  and  O_6
REMARK    4  A    between atoms: O_6  and  C_7
REMARK    5  A    between atoms: C_9  and  C_10
REMARK    6  A    between atoms: C_11  and  C_12
REMARK    7  A    between atoms: C_19  and  C_20
REMARK    8  A    between atoms: C_23  and  O_24
REMARK    9  A    between atoms: O_24  and  C_25
REMARK   10  A    between atoms: C_26  and  O_27
REMARK   11  A    between atoms: O_27  and  C_28
REMARK   12  A    between atoms: N_33  and  C_34
REMARK                            x       y       z     vdW  Elec       q    Type
REMARK                         _______ _______ _______ _____ _____    ______ ____
ROOT
ATOM      1  C   UNL     1      -0.277  10.706  21.678  0.00  0.00    +0.000 A 
ATOM      2  C   UNL     1       0.406  10.604  20.463  0.00  0.00    +0.000 A 
ATOM      3  C   UNL     1       1.051   9.341  20.400  0.00  0.00    +0.000 A 
ATOM      4  C   UNL     1       1.893   8.733  19.453  0.00  0.00    +0.000 A 
ATOM      5  C   UNL     1       2.178   7.367  19.460  0.00  0.00    +0.000 A 
ATOM      6  C   UNL     1       1.585   6.607  20.477  0.00  0.00    +0.000 A 
ATOM      7  C   UNL     1       0.821   7.198  21.517  0.00  0.00    +0.000 A 
ATOM      8  C   UNL     1       0.584   8.587  21.471  0.00  0.00    +0.000 A 
ATOM      9  N   UNL     1      -0.043   9.486  22.331  0.00  0.00    +0.000 N 
ATOM     10  C   UNL     1      -0.243   9.246  23.744  0.00  0.00    +0.000 C 
ENDROOT
BRANCH   1  15
ATOM     11  C   UNL     1      -0.567  14.259  22.917  0.00  0.00    +0.000 A 
ATOM     12  C   UNL     1      -1.830  14.266  23.495  0.00  0.00    +0.000 A 
ATOM     13  C   UNL     1      -2.641  13.127  23.464  0.00  0.00    +0.000 A 
ATOM     14  C   UNL     1      -2.174  11.954  22.847  0.00  0.00    +0.000 A 
ATOM     15  C   UNL     1      -0.887  11.910  22.294  0.00  0.00    +0.000 A 
ATOM     16  C   UNL     1      -0.108  13.090  22.324  0.00  0.00    +0.000 A 
BRANCH  11  18
ATOM     17  C   UNL     1      -0.579  16.587  23.454  0.00  0.00    +0.000 C 
ATOM     18  O   UNL     1       0.131  15.433  23.018  0.00  0.00    +0.000 OA
ENDBRANCH  11  18
BRANCH  13  19
ATOM     19  O   UNL     1      -3.848  13.306  24.081  0.00  0.00    +0.000 OA
ATOM     20  C   UNL     1      -4.808  14.130  23.441  0.00  0.00    +0.000 C 
ENDBRANCH  13  19
ENDBRANCH   1  15
BRANCH   5  21
ATOM     21  C   UNL     1       3.018   6.825  18.363  0.00  0.00    +0.000 A 
ATOM     22  C   UNL     1       3.795   7.654  17.553  0.00  0.00    +0.000 A 
ATOM     23  C   UNL     1       4.634   7.107  16.576  0.00  0.00    +0.000 A 
ATOM     24  C   UNL     1       4.729   5.721  16.373  0.00  0.00    +0.000 A 
ATOM     25  C   UNL     1       3.978   4.861  17.186  0.00  0.00    +0.000 A 
ATOM     26  C   UNL     1       3.138   5.426  18.163  0.00  0.00    +0.000 A 
BRANCH  24  27
ATOM     27  O   UNL     1       5.601   5.403  15.363  0.00  0.00    +0.000 OA
ATOM     28  C   UNL     1       6.955   5.114  15.682  0.00  0.00    +0.000 C 
ENDBRANCH  24  27
BRANCH  25  29
ATOM     29  O   UNL     1       4.103   3.511  16.990  0.00  0.00    +0.000 OA
ATOM     30  C   UNL     1       3.490   2.621  17.909  0.00  0.00    +0.000 C 
ENDBRANCH  25  29
ENDBRANCH   5  21
BRANCH   2  31
ATOM     31  C   UNL     1       0.397  11.572  19.315  0.00  0.00    +0.000 A 
ATOM     32  C   UNL     1       1.500  12.291  18.907  0.00  0.00    +0.000 A 
ATOM     33  C   UNL     1       1.144  13.353  18.020  0.00  0.00    +0.000 A 
ATOM     34  C   UNL     1      -0.203  13.354  17.727  0.00  0.00    +0.000 A 
ATOM     35  S   UNL     1      -1.002  12.033  18.441  0.00  0.00    +0.000 S 
ENDBRANCH   2  31
TORSDOF 7
ENDMDL
MODEL 9
REMARK VINA RESULT:      -6.2      1.444      2.577
REMARK  Name = 
REMARK  12 active torsions:
REMARK  status: ('A' for Active; 'I' for Inactive)
REMARK    1  A    between atoms: C_1  and  O_2
REMARK    2  A    between atoms: O_2  and  C_3
REMARK    3  A    between atoms: C_5  and  O_6
REMARK    4  A    between atoms: O_6  and  C_7
REMARK    5  A    between atoms: C_9  and  C_10
REMARK    6  A    between atoms: C_11  and  C_12
REMARK    7  A    between atoms: C_19  and  C_20
REMARK    8  A    between atoms: C_23  and  O_24
REMARK    9  A    between atoms: O_24  and  C_25
REMARK   10  A    between atoms: C_26  and  O_27
REMARK   11  A    between atoms: O_27  and  C_28
REMARK   12  A    between atoms: N_33  and  C_34
REMARK                            x       y       z     vdW  Elec       q    Type
REMARK                         _______ _______ _______ _____ _____    ______ ____
ROOT
ATOM      1  C   UNL     1      -2.193  12.755  21.125  0.00  0.00    +0.000 A 
ATOM      2  C   UNL     1      -1.807  11.811  20.170  0.00  0.00    +0.000 A 
ATOM      3  C   UNL     1      -0.874  10.916  20.755  0.00  0.00    +0.000 A 
ATOM      4  C   UNL     1      -0.139   9.826  20.259  0.00  0.00    +0.000 A 
ATOM      5  C   UNL     1       0.503   8.904  21.089  0.00  0.00    +0.000 A 
ATOM      6  C   UNL     1       0.391   9.119  22.469  0.00  0.00    +0.000 A 
ATOM      7  C   UNL     1      -0.244  10.267  23.008  0.00  0.00    +0.000 A 
ATOM      8  C   UNL     1      -0.856  11.176  22.122  0.00  0.00    +0.000 A 
ATOM      9  N   UNL     1      -1.490  12.405  22.287  0.00  0.00    +0.000 N 
ATOM     10  C   UNL     1      -1.286  13.271  23.429  0.00  0.00    +0.000 C 
ENDROOT
BRANCH   1  15
ATOM     11  C   UNL     1      -2.812  16.427  20.510  0.00  0.00    +0.000 A 
ATOM     12  C   UNL     1      -4.196  16.510  20.598  0.00  0.00    +0.000 A 
ATOM     13  C   UNL     1      -4.972  15.368  20.821  0.00  0.00    +0.000 A 
ATOM     14  C   UNL     1      -4.347  14.118  20.965  0.00  0.00    +0.000 A 
ATOM     15  C   UNL     1      -2.951  14.015  20.921  0.00  0.00    +0.000 A 
ATOM     16  C   UNL     1      -2.203  15.189  20.670  0.00  0.00    +0.000 A 
BRANCH  11  18
ATOM     17  C   UNL     1      -1.477  18.200  21.395  0.00  0.00    +0.000 C 
ATOM     18  O   UNL     1      -2.165  17.615  20.295  0.00  0.00    +0.000 OA
ENDBRANCH  11  18
BRANCH  13  19
ATOM     19  O   UNL     1      -6.312  15.629  20.883  0.00  0.00    +0.000 OA
ATOM     20  C   UNL     1      -6.886  15.874  22.156  0.00  0.00    +0.000 C 
ENDBRANCH  13  19
ENDBRANCH   1  15
BRANCH   5  21
ATOM     21  C   UNL     1       1.183   7.750  20.452  0.00  0.00    +0.000 A 
ATOM     22  C   UNL     1       2.152   7.919  19.463  0.00  0.00    +0.000 A 
ATOM     23  C   UNL     1       2.829   6.814  18.934  0.00  0.00    +0.000 A 
ATOM     24  C   UNL     1       2.565   5.506  19.372  0.00  0.00    +0.000 A 
ATOM     25  C   UNL     1       1.612   5.305  20.381  0.00  0.00    +0.000 A 
ATOM     26  C   UNL     1       0.939   6.426  20.901  0.00  0.00    +0.000 A 
BRANCH  24  27
ATOM     27  O   UNL     1       3.333   4.576  18.718  0.00  0.00    +0.000 OA
ATOM     28  C   UNL     1       2.847   4.000  17.514  0.00  0.00    +0.000 C 
ENDBRANCH  24  27
BRANCH  25  29
ATOM     29  O   UNL     1       1.387   4.025  20.812  0.00  0.00    +0.000 OA
ATOM     30  C   UNL     1       2.271   3.452  21.762  0.00  0.00    +0.000 C 
ENDBRANCH  25  29
ENDBRANCH   5  21
BRANCH   2  31
ATOM     31  C   UNL     1      -2.346  11.631  18.779  0.00  0.00    +0.000 A 
ATOM     32  C   UNL     1      -3.611  11.158  18.500  0.00  0.00    +0.000 A 
ATOM     33  C   UNL     1      -3.748  10.788  17.127  0.00  0.00    +0.000 A 
ATOM     34  C   UNL     1      -2.612  11.064  16.399  0.00  0.00    +0.000 A 
ATOM     35  S   UNL     1      -1.434  11.846  17.346  0.00  0.00    +0.000 S 
ENDBRANCH   2  31
TORSDOF 7
ENDMDL
