MODEL 1
REMARK VINA RESULT:      -7.7      0.000      0.000
REMARK  Name = 
REMARK  5 active torsions:
REMARK  status: ('A' for Active; 'I' for Inactive)
REMARK    1  A    between atoms: C_1  and  C_2
REMARK    2  A    between atoms: C_2  and  S_3
REMARK    3  A    between atoms: C_2  and  C_16
REMARK    4  A    between atoms: S_3  and  C_4
REMARK    5  A    between atoms: C_9  and  C_10
REMARK                            x       y       z     vdW  Elec       q    Type
REMARK                         _______ _______ _______ _____ _____    ______ ____
ROOT
ATOM      1  C   UNL     1       3.808   5.200  19.074  0.00  0.00    +0.000 A 
ATOM      2  C   UNL     1       4.100   3.849  19.360  0.00  0.00    +0.000 A 
ATOM      3  C   UNL     1       3.286   3.091  20.197  0.00  0.00    +0.000 A 
ATOM      4  C   UNL     1       2.182   3.677  20.794  0.00  0.00    +0.000 A 
ATOM      5  C   UNL     1       1.889   5.015  20.538  0.00  0.00    +0.000 A 
ATOM      6  C   UNL     1       2.664   5.814  19.660  0.00  0.00    +0.000 A 
ENDROOT
BRANCH   6   7
ATOM      7  C   UNL     1       2.185   7.206  19.392  0.00  0.00    +0.000 A 
ATOM      8  C   UNL     1       2.269   7.828  18.136  0.00  0.00    +0.000 A 
ATOM      9  C   UNL     1       1.728   9.101  17.904  0.00  0.00    +0.000 A 
ATOM     10  C   UNL     1       1.147   9.818  18.944  0.00  0.00    +0.000 A 
ATOM     11  C   UNL     1       1.112   9.264  20.217  0.00  0.00    +0.000 A 
ATOM     12  C   UNL     1       1.610   7.974  20.430  0.00  0.00    +0.000 A 
ENDBRANCH   6   7
BRANCH   1  13
ATOM     13  S   UNL     1       5.034   6.061  18.069  0.00  0.00    +0.000 S 
BRANCH  13  15
ATOM     14  C   UNL     1       7.646   5.257  18.342  0.00  0.00    +0.000 C 
ATOM     15  C   UNL     1       6.317   4.780  17.755  0.00  0.00    +0.000 C 
BRANCH  15  16
ATOM     16  C   UNL     1       6.489   4.512  16.272  0.00  0.00    +0.000 C 
ATOM     17  N   UNL     1       5.568   3.862  15.594  0.00  0.00    +0.000 NA
ATOM     18  C   UNL     1       6.116   3.833  14.204  0.00  0.00    +0.000 C 
ATOM     19  C   UNL     1       7.183   4.929  14.163  0.00  0.00    +0.000 C 
ATOM     20  N   UNL     1       7.580   4.931  15.545  0.00  0.00    +0.000 N 
ATOM     21  H   UNL     1       8.080   5.741  15.901  0.00  0.00    +0.000 HD
ENDBRANCH  15  16
ENDBRANCH  13  15
ENDBRANCH   1  13
TORSDOF 4
ENDMDL
MODEL 2
REMARK VINA RESULT:      -7.6      2.793      5.848
REMARK  Name = 
REMARK  5 active torsions:
REMARK  status: ('A' for Active; 'I' for Inactive)
REMARK    1  A    between atoms: C_1  and  C_2
REMARK    2  A    between atoms: C_2  and  S_3
REMARK    3  A    between atoms: C_2  and  C_16
REMARK    4  A    between atoms: S_3  and  C_4
REMARK    5  A    between atoms: C_9  and  C_10
REMARK                            x       y       z     vdW  Elec       q    Type
REMARK                         _______ _______ _______ _____ _____    ______ ____
ROOT
ATOM      1  C   UNL     1       2.478   4.565  19.265  0.00  0.00    +0.000 A 
ATOM      2  C   UNL     1       1.272   4.117  19.849  0.00  0.00    +0.000 A 
ATOM      3  C   UNL     1       0.732   2.873  19.537  0.00  0.00    +0.000 A 
ATOM      4  C   UNL     1       1.365   2.064  18.608  0.00  0.00    +0.000 A 
ATOM      5  C   UNL     1       2.546   2.498  18.008  0.00  0.00    +0.000 A 
ATOM      6  C   UNL     1       3.156   3.737  18.325  0.00  0.00    +0.000 A 
ENDROOT
BRANCH   6   7
ATOM      7  C   UNL     1       4.475   4.040  17.685  0.00  0.00    +0.000 A 
ATOM      8  C   UNL     1       4.682   4.045  16.297  0.00  0.00    +0.000 A 
ATOM      9  C   UNL     1       5.911   4.421  15.735  0.00  0.00    +0.000 A 
ATOM     10  C   UNL     1       6.990   4.738  16.552  0.00  0.00    +0.000 A 
ATOM     11  C   UNL     1       6.842   4.673  17.931  0.00  0.00    +0.000 A 
ATOM     12  C   UNL     1       5.600   4.344  18.485  0.00  0.00    +0.000 A 
ENDBRANCH   6   7
BRANCH   1  13
ATOM     13  S   UNL     1       2.966   6.248  19.693  0.00  0.00    +0.000 S 
BRANCH  13  15
ATOM     14  C   UNL     1       3.770   7.514  17.392  0.00  0.00    +0.000 C 
ATOM     15  C   UNL     1       2.506   7.226  18.204  0.00  0.00    +0.000 C 
BRANCH  15  16
ATOM     16  C   UNL     1       1.840   8.536  18.578  0.00  0.00    +0.000 C 
ATOM     17  N   UNL     1       1.390   8.738  19.798  0.00  0.00    +0.000 NA
ATOM     18  C   UNL     1       0.838  10.126  19.740  0.00  0.00    +0.000 C 
ATOM     19  C   UNL     1       1.467  10.763  18.499  0.00  0.00    +0.000 C 
ATOM     20  N   UNL     1       1.677   9.585  17.702  0.00  0.00    +0.000 N 
ATOM     21  H   UNL     1       2.334   9.637  16.929  0.00  0.00    +0.000 HD
ENDBRANCH  15  16
ENDBRANCH  13  15
ENDBRANCH   1  13
TORSDOF 4
ENDMDL
MODEL 3
REMARK VINA RESULT:      -7.6      0.145      1.080
REMARK  Name = 
REMARK  5 active torsions:
REMARK  status: ('A' for Active; 'I' for Inactive)
REMARK    1  A    between atoms: C_1  and  C_2
REMARK    2  A    between atoms: C_2  and  S_3
REMARK    3  A    between atoms: C_2  and  C_16
REMARK    4  A    between atoms: S_3  and  C_4
REMARK    5  A    between atoms: C_9  and  C_10
REMARK                            x       y       z     vdW  Elec       q    Type
REMARK                         _______ _______ _______ _____ _____    ______ ____
ROOT
ATOM      1  C   UNL     1       3.856   5.097  19.148  0.00  0.00    +0.000 A 
ATOM      2  C   UNL     1       4.195   3.759  19.445  0.00  0.00    +0.000 A 
ATOM      3  C   UNL     1       3.424   2.988  20.309  0.00  0.00    +0.000 A 
ATOM      4  C   UNL     1       2.316   3.547  20.924  0.00  0.00    +0.000 A 
ATOM      5  C   UNL     1       1.977   4.873  20.658  0.00  0.00    +0.000 A 
ATOM      6  C   UNL     1       2.706   5.684  19.753  0.00  0.00    +0.000 A 
ENDROOT
BRANCH   6   7
ATOM      7  C   UNL     1       2.179   7.057  19.478  0.00  0.00    +0.000 A 
ATOM      8  C   UNL     1       1.591   7.874  20.456  0.00  0.00    +0.000 A 
ATOM      9  C   UNL     1       1.191   9.189  20.177  0.00  0.00    +0.000 A 
ATOM     10  C   UNL     1       1.305   9.700  18.889  0.00  0.00    +0.000 A 
ATOM     11  C   UNL     1       1.813   8.895  17.879  0.00  0.00    +0.000 A 
ATOM     12  C   UNL     1       2.256   7.601  18.175  0.00  0.00    +0.000 A 
ENDBRANCH   6   7
BRANCH   1  13
ATOM     13  S   UNL     1       5.032   5.982  18.106  0.00  0.00    +0.000 S 
BRANCH  13  15
ATOM     14  C   UNL     1       7.661   5.219  18.335  0.00  0.00    +0.000 C 
ATOM     15  C   UNL     1       6.333   4.728  17.757  0.00  0.00    +0.000 C 
BRANCH  15  16
ATOM     16  C   UNL     1       6.492   4.485  16.268  0.00  0.00    +0.000 C 
ATOM     17  N   UNL     1       5.557   3.861  15.584  0.00  0.00    +0.000 NA
ATOM     18  C   UNL     1       6.095   3.851  14.190  0.00  0.00    +0.000 C 
ATOM     19  C   UNL     1       7.177   4.932  14.162  0.00  0.00    +0.000 C 
ATOM     20  N   UNL     1       7.583   4.903  15.541  0.00  0.00    +0.000 N 
ATOM     21  H   UNL     1       8.097   5.699  15.909  0.00  0.00    +0.000 HD
ENDBRANCH  15  16
ENDBRANCH  13  15
ENDBRANCH   1  13
TORSDOF 4
ENDMDL
MODEL 4
REMARK VINA RESULT:      -7.6      2.808      6.004
REMARK  Name = 
REMARK  5 active torsions:
REMARK  status: ('A' for Active; 'I' for Inactive)
REMARK    1  A    between atoms: C_1  and  C_2
REMARK    2  A    between atoms: C_2  and  S_3
REMARK    3  A    between atoms: C_2  and  C_16
REMARK    4  A    between atoms: S_3  and  C_4
REMARK    5  A    between atoms: C_9  and  C_10
REMARK                            x       y       z     vdW  Elec       q    Type
REMARK                         _______ _______ _______ _____ _____    ______ ____
ROOT
ATOM      1  C   UNL     1       2.484   4.522  19.277  0.00  0.00    +0.000 A 
ATOM      2  C   UNL     1       1.276   4.043  19.829  0.00  0.00    +0.000 A 
ATOM      3  C   UNL     1       0.759   2.800  19.479  0.00  0.00    +0.000 A 
ATOM      4  C   UNL     1       1.418   2.023  18.541  0.00  0.00    +0.000 A 
ATOM      5  C   UNL     1       2.602   2.488  17.971  0.00  0.00    +0.000 A 
ATOM      6  C   UNL     1       3.189   3.727  18.328  0.00  0.00    +0.000 A 
ENDROOT
BRANCH   6   7
ATOM      7  C   UNL     1       4.514   4.064  17.717  0.00  0.00    +0.000 A 
ATOM      8  C   UNL     1       5.654   4.393  18.468  0.00  0.00    +0.000 A 
ATOM      9  C   UNL     1       6.898   4.615  17.861  0.00  0.00    +0.000 A 
ATOM     10  C   UNL     1       7.021   4.583  16.477  0.00  0.00    +0.000 A 
ATOM     11  C   UNL     1       5.899   4.334  15.699  0.00  0.00    +0.000 A 
ATOM     12  C   UNL     1       4.670   4.064  16.312  0.00  0.00    +0.000 A 
ENDBRANCH   6   7
BRANCH   1  13
ATOM     13  S   UNL     1       2.941   6.201  19.752  0.00  0.00    +0.000 S 
BRANCH  13  15
ATOM     14  C   UNL     1       3.747   7.486  17.463  0.00  0.00    +0.000 C 
ATOM     15  C   UNL     1       2.485   7.210  18.283  0.00  0.00    +0.000 C 
BRANCH  15  16
ATOM     16  C   UNL     1       1.847   8.526  18.683  0.00  0.00    +0.000 C 
ATOM     17  N   UNL     1       1.703   9.498  17.809  0.00  0.00    +0.000 NA
ATOM     18  C   UNL     1       1.033  10.578  18.595  0.00  0.00    +0.000 C 
ATOM     19  C   UNL     1       0.445   9.881  19.825  0.00  0.00    +0.000 C 
ATOM     20  N   UNL     1       1.370   8.787  19.948  0.00  0.00    +0.000 N 
ATOM     21  H   UNL     1       1.092   7.982  20.503  0.00  0.00    +0.000 HD
ENDBRANCH  15  16
ENDBRANCH  13  15
ENDBRANCH   1  13
TORSDOF 4
ENDMDL
MODEL 5
REMARK VINA RESULT:      -7.5      1.240      1.293
REMARK  Name = 
REMARK  5 active torsions:
REMARK  status: ('A' for Active; 'I' for Inactive)
REMARK    1  A    between atoms: C_1  and  C_2
REMARK    2  A    between atoms: C_2  and  S_3
REMARK    3  A    between atoms: C_2  and  C_16
REMARK    4  A    between atoms: S_3  and  C_4
REMARK    5  A    between atoms: C_9  and  C_10
REMARK                            x       y       z     vdW  Elec       q    Type
REMARK                         _______ _______ _______ _____ _____    ______ ____
ROOT
ATOM      1  C   UNL     1       3.668   4.674  17.852  0.00  0.00    +0.000 A 
ATOM      2  C   UNL     1       3.780   3.306  17.518  0.00  0.00    +0.000 A 
ATOM      3  C   UNL     1       2.750   2.408  17.776  0.00  0.00    +0.000 A 
ATOM      4  C   UNL     1       1.597   2.849  18.406  0.00  0.00    +0.000 A 
ATOM      5  C   UNL     1       1.477   4.191  18.760  0.00  0.00    +0.000 A 
ATOM      6  C   UNL     1       2.481   5.151  18.480  0.00  0.00    +0.000 A 
ENDROOT
BRANCH   6   7
ATOM      7  C   UNL     1       2.186   6.578  18.821  0.00  0.00    +0.000 A 
ATOM      8  C   UNL     1       2.214   7.622  17.883  0.00  0.00    +0.000 A 
ATOM      9  C   UNL     1       1.844   8.931  18.224  0.00  0.00    +0.000 A 
ATOM     10  C   UNL     1       1.502   9.246  19.534  0.00  0.00    +0.000 A 
ATOM     11  C   UNL     1       1.535   8.253  20.504  0.00  0.00    +0.000 A 
ATOM     12  C   UNL     1       1.857   6.939  20.147  0.00  0.00    +0.000 A 
ENDBRANCH   6   7
BRANCH   1  13
ATOM     13  S   UNL     1       5.144   5.667  17.557  0.00  0.00    +0.000 S 
BRANCH  13  15
ATOM     14  C   UNL     1       7.714   4.748  17.865  0.00  0.00    +0.000 C 
ATOM     15  C   UNL     1       6.424   4.422  17.110  0.00  0.00    +0.000 C 
BRANCH  15  16
ATOM     16  C   UNL     1       6.702   4.416  15.619  0.00  0.00    +0.000 C 
ATOM     17  N   UNL     1       5.995   3.661  14.806  0.00  0.00    +0.000 NA
ATOM     18  C   UNL     1       6.572   3.963  13.461  0.00  0.00    +0.000 C 
ATOM     19  C   UNL     1       7.329   5.282  13.628  0.00  0.00    +0.000 C 
ATOM     20  N   UNL     1       7.672   5.188  15.022  0.00  0.00    +0.000 N 
ATOM     21  H   UNL     1       7.940   6.038  15.510  0.00  0.00    +0.000 HD
ENDBRANCH  15  16
ENDBRANCH  13  15
ENDBRANCH   1  13
TORSDOF 4
ENDMDL
MODEL 6
REMARK VINA RESULT:      -7.5      1.093      1.778
REMARK  Name = 
REMARK  5 active torsions:
REMARK  status: ('A' for Active; 'I' for Inactive)
REMARK    1  A    between atoms: C_1  and  C_2
REMARK    2  A    between atoms: C_2  and  S_3
REMARK    3  A    between atoms: C_2  and  C_16
REMARK    4  A    between atoms: S_3  and  C_4
REMARK    5  A    between atoms: C_9  and  C_10
REMARK                            x       y       z     vdW  Elec       q    Type
REMARK                         _______ _______ _______ _____ _____    ______ ____
ROOT
ATOM      1  C   UNL     1       3.808   4.483  18.285  0.00  0.00    +0.000 A 
ATOM      2  C   UNL     1       3.997   3.104  18.045  0.00  0.00    +0.000 A 
ATOM      3  C   UNL     1       2.972   2.185  18.244  0.00  0.00    +0.000 A 
ATOM      4  C   UNL     1       1.746   2.617  18.721  0.00  0.00    +0.000 A 
ATOM      5  C   UNL     1       1.547   3.972  18.982  0.00  0.00    +0.000 A 
ATOM      6  C   UNL     1       2.547   4.950  18.755  0.00  0.00    +0.000 A 
ENDROOT
BRANCH   6   7
ATOM      7  C   UNL     1       2.174   6.383  18.978  0.00  0.00    +0.000 A 
ATOM      8  C   UNL     1       1.826   6.908  20.233  0.00  0.00    +0.000 A 
ATOM      9  C   UNL     1       1.570   8.274  20.416  0.00  0.00    +0.000 A 
ATOM     10  C   UNL     1       1.587   9.144  19.331  0.00  0.00    +0.000 A 
ATOM     11  C   UNL     1       1.855   8.647  18.063  0.00  0.00    +0.000 A 
ATOM     12  C   UNL     1       2.157   7.291  17.895  0.00  0.00    +0.000 A 
ENDBRANCH   6   7
BRANCH   1  13
ATOM     13  S   UNL     1       5.277   5.511  18.090  0.00  0.00    +0.000 S 
BRANCH  13  15
ATOM     14  C   UNL     1       7.886   4.660  17.961  0.00  0.00    +0.000 C 
ATOM     15  C   UNL     1       6.514   4.368  17.349  0.00  0.00    +0.000 C 
BRANCH  15  16
ATOM     16  C   UNL     1       6.591   4.526  15.843  0.00  0.00    +0.000 C 
ATOM     17  N   UNL     1       7.606   5.145  15.282  0.00  0.00    +0.000 NA
ATOM     18  C   UNL     1       7.300   5.064  13.821  0.00  0.00    +0.000 C 
ATOM     19  C   UNL     1       6.266   3.944  13.683  0.00  0.00    +0.000 C 
ATOM     20  N   UNL     1       5.642   4.031  14.976  0.00  0.00    +0.000 N 
ATOM     21  H   UNL     1       5.098   3.238  15.303  0.00  0.00    +0.000 HD
ENDBRANCH  15  16
ENDBRANCH  13  15
ENDBRANCH   1  13
TORSDOF 4
ENDMDL
MODEL 7
REMARK VINA RESULT:      -7.3      1.680      4.320
REMARK  Name = 
REMARK  5 active torsions:
REMARK  status: ('A' for Active; 'I' for Inactive)
REMARK    1  A    between atoms: C_1  and  C_2
REMARK    2  A    between atoms: C_2  and  S_3
REMARK    3  A    between atoms: C_2  and  C_16
REMARK    4  A    between atoms: S_3  and  C_4
REMARK    5  A    between atoms: C_9  and  C_10
REMARK                            x       y       z     vdW  Elec       q    Type
REMARK                         _______ _______ _______ _____ _____    ______ ____
ROOT
ATOM      1  C   UNL     1       3.434   5.983  17.837  0.00  0.00    +0.000 A 
ATOM      2  C   UNL     1       3.758   7.205  17.208  0.00  0.00    +0.000 A 
ATOM      3  C   UNL     1       3.141   8.397  17.575  0.00  0.00    +0.000 A 
ATOM      4  C   UNL     1       2.161   8.389  18.554  0.00  0.00    +0.000 A 
ATOM      5  C   UNL     1       1.815   7.189  19.172  0.00  0.00    +0.000 A 
ATOM      6  C   UNL     1       2.445   5.958  18.863  0.00  0.00    +0.000 A 
ENDROOT
BRANCH   6   7
ATOM      7  C   UNL     1       2.053   4.760  19.670  0.00  0.00    +0.000 A 
ATOM      8  C   UNL     1       1.241   3.725  19.180  0.00  0.00    +0.000 A 
ATOM      9  C   UNL     1       0.970   2.577  19.938  0.00  0.00    +0.000 A 
ATOM     10  C   UNL     1       1.450   2.465  21.238  0.00  0.00    +0.000 A 
ATOM     11  C   UNL     1       2.195   3.502  21.782  0.00  0.00    +0.000 A 
ATOM     12  C   UNL     1       2.502   4.623  21.003  0.00  0.00    +0.000 A 
ENDBRANCH   6   7
BRANCH   1  13
ATOM     13  S   UNL     1       4.242   4.523  17.153  0.00  0.00    +0.000 S 
BRANCH  13  15
ATOM     14  C   UNL     1       6.387   4.109  15.488  0.00  0.00    +0.000 C 
ATOM     15  C   UNL     1       5.765   5.194  16.369  0.00  0.00    +0.000 C 
BRANCH  15  16
ATOM     16  C   UNL     1       6.777   5.643  17.405  0.00  0.00    +0.000 C 
ATOM     17  N   UNL     1       7.197   6.889  17.441  0.00  0.00    +0.000 NA
ATOM     18  C   UNL     1       8.149   6.902  18.593  0.00  0.00    +0.000 C 
ATOM     19  C   UNL     1       7.816   5.653  19.412  0.00  0.00    +0.000 C 
ATOM     20  N   UNL     1       7.301   4.809  18.367  0.00  0.00    +0.000 N 
ATOM     21  H   UNL     1       6.736   4.007  18.631  0.00  0.00    +0.000 HD
ENDBRANCH  15  16
ENDBRANCH  13  15
ENDBRANCH   1  13
TORSDOF 4
ENDMDL
MODEL 8
REMARK VINA RESULT:      -7.3      1.286      1.458
REMARK  Name = 
REMARK  5 active torsions:
REMARK  status: ('A' for Active; 'I' for Inactive)
REMARK    1  A    between atoms: C_1  and  C_2
REMARK    2  A    between atoms: C_2  and  S_3
REMARK    3  A    between atoms: C_2  and  C_16
REMARK    4  A    between atoms: S_3  and  C_4
REMARK    5  A    between atoms: C_9  and  C_10
REMARK                            x       y       z     vdW  Elec       q    Type
REMARK                         _______ _______ _______ _____ _____    ______ ____
ROOT
ATOM      1  C   UNL     1       3.858   4.248  18.935  0.00  0.00    +0.000 A 
ATOM      2  C   UNL     1       4.000   2.854  18.759  0.00  0.00    +0.000 A 
ATOM      3  C   UNL     1       2.901   2.035  18.518  0.00  0.00    +0.000 A 
ATOM      4  C   UNL     1       1.631   2.587  18.482  0.00  0.00    +0.000 A 
ATOM      5  C   UNL     1       1.469   3.958  18.672  0.00  0.00    +0.000 A 
ATOM      6  C   UNL     1       2.562   4.837  18.878  0.00  0.00    +0.000 A 
ENDROOT
BRANCH   6   7
ATOM      7  C   UNL     1       2.263   6.301  18.967  0.00  0.00    +0.000 A 
ATOM      8  C   UNL     1       2.365   7.182  17.879  0.00  0.00    +0.000 A 
ATOM      9  C   UNL     1       1.990   8.529  17.982  0.00  0.00    +0.000 A 
ATOM     10  C   UNL     1       1.567   9.049  19.200  0.00  0.00    +0.000 A 
ATOM     11  C   UNL     1       1.523   8.224  20.315  0.00  0.00    +0.000 A 
ATOM     12  C   UNL     1       1.852   6.870  20.194  0.00  0.00    +0.000 A 
ENDBRANCH   6   7
BRANCH   1  13
ATOM     13  S   UNL     1       5.372   5.133  19.357  0.00  0.00    +0.000 S 
BRANCH  13  15
ATOM     14  C   UNL     1       7.940   5.192  18.384  0.00  0.00    +0.000 C 
ATOM     15  C   UNL     1       6.618   4.446  18.190  0.00  0.00    +0.000 C 
BRANCH  15  16
ATOM     16  C   UNL     1       6.170   4.583  16.748  0.00  0.00    +0.000 C 
ATOM     17  N   UNL     1       5.903   5.765  16.235  0.00  0.00    +0.000 NA
ATOM     18  C   UNL     1       5.523   5.454  14.823  0.00  0.00    +0.000 C 
ATOM     19  C   UNL     1       6.069   4.050  14.554  0.00  0.00    +0.000 C 
ATOM     20  N   UNL     1       6.031   3.516  15.889  0.00  0.00    +0.000 N 
ATOM     21  H   UNL     1       6.590   2.692  16.095  0.00  0.00    +0.000 HD
ENDBRANCH  15  16
ENDBRANCH  13  15
ENDBRANCH   1  13
TORSDOF 4
ENDMDL
MODEL 9
REMARK VINA RESULT:      -7.3      2.566      5.067
REMARK  Name = 
REMARK  5 active torsions:
REMARK  status: ('A' for Active; 'I' for Inactive)
REMARK    1  A    between atoms: C_1  and  C_2
REMARK    2  A    between atoms: C_2  and  S_3
REMARK    3  A    between atoms: C_2  and  C_16
REMARK    4  A    between atoms: S_3  and  C_4
REMARK    5  A    between atoms: C_9  and  C_10
REMARK                            x       y       z     vdW  Elec       q    Type
REMARK                         _______ _______ _______ _____ _____    ______ ____
ROOT
ATOM      1  C   UNL     1       4.781   4.761  17.004  0.00  0.00    +0.000 A 
ATOM      2  C   UNL     1       5.937   4.216  16.404  0.00  0.00    +0.000 A 
ATOM      3  C   UNL     1       7.070   4.990  16.172  0.00  0.00    +0.000 A 
ATOM      4  C   UNL     1       7.060   6.335  16.502  0.00  0.00    +0.000 A 
ATOM      5  C   UNL     1       5.921   6.895  17.077  0.00  0.00    +0.000 A 
ATOM      6  C   UNL     1       4.760   6.138  17.372  0.00  0.00    +0.000 A 
ENDROOT
BRANCH   6   7
ATOM      7  C   UNL     1       3.643   6.835  18.082  0.00  0.00    +0.000 A 
ATOM      8  C   UNL     1       3.117   6.408  19.312  0.00  0.00    +0.000 A 
ATOM      9  C   UNL     1       2.131   7.140  19.988  0.00  0.00    +0.000 A 
ATOM     10  C   UNL     1       1.592   8.287  19.417  0.00  0.00    +0.000 A 
ATOM     11  C   UNL     1       2.035   8.699  18.167  0.00  0.00    +0.000 A 
ATOM     12  C   UNL     1       3.053   7.991  17.520  0.00  0.00    +0.000 A 
ENDBRANCH   6   7
BRANCH   1  13
ATOM     13  S   UNL     1       3.368   3.646  17.118  0.00  0.00    +0.000 S 
BRANCH  13  15
ATOM     14  C   UNL     1       3.793   1.165  18.218  0.00  0.00    +0.000 C 
ATOM     15  C   UNL     1       3.727   2.640  18.617  0.00  0.00    +0.000 C 
BRANCH  15  16
ATOM     16  C   UNL     1       2.664   2.826  19.683  0.00  0.00    +0.000 C 
ATOM     17  N   UNL     1       2.952   2.662  20.956  0.00  0.00    +0.000 NA
ATOM     18  C   UNL     1       1.657   2.949  21.645  0.00  0.00    +0.000 C 
ATOM     19  C   UNL     1       0.814   3.717  20.625  0.00  0.00    +0.000 C 
ATOM     20  N   UNL     1       1.364   3.186  19.407  0.00  0.00    +0.000 N 
ATOM     21  H   UNL     1       1.208   3.699  18.544  0.00  0.00    +0.000 HD
ENDBRANCH  15  16
ENDBRANCH  13  15
ENDBRANCH   1  13
TORSDOF 4
ENDMDL
