MODEL 1
REMARK VINA RESULT:      -7.0      0.000      0.000
REMARK  Name = 
REMARK  8 active torsions:
REMARK  status: ('A' for Active; 'I' for Inactive)
REMARK    1  A    between atoms: C_2  and  O_3
REMARK    2  A    between atoms: C_2  and  C_4
REMARK    3  A    between atoms: C_5  and  C_6
REMARK    4  A    between atoms: C_9  and  C_10
REMARK    5  A    between atoms: C_10  and  C_22
REMARK    6  A    between atoms: C_11  and  C_12
REMARK    7  A    between atoms: C_11  and  C_18
REMARK    8  A    between atoms: C_25  and  C_26
REMARK                            x       y       z     vdW  Elec       q    Type
REMARK                         _______ _______ _______ _____ _____    ______ ____
ROOT
ATOM      1  C   UNL     1      -0.051  12.181  20.087  0.00  0.00    +0.000 C 
ATOM      2  C   UNL     1       0.737  13.260  19.813  0.00  0.00    +0.000 C 
ENDROOT
BRANCH   1   6
ATOM      3  C   UNL     1      -4.093  12.736  21.563  0.00  0.00    +0.000 A 
ATOM      4  C   UNL     1      -2.998  12.666  22.437  0.00  0.00    +0.000 A 
ATOM      5  C   UNL     1      -1.694  12.489  21.955  0.00  0.00    +0.000 A 
ATOM      6  C   UNL     1      -1.451  12.359  20.585  0.00  0.00    +0.000 A 
ATOM      7  C   UNL     1      -2.538  12.434  19.706  0.00  0.00    +0.000 A 
ATOM      8  C   UNL     1      -3.848  12.615  20.189  0.00  0.00    +0.000 A 
BRANCH   3  10
ATOM      9  C   UNL     1      -5.747  12.701  23.444  0.00  0.00    +0.000 C 
ATOM     10  C   UNL     1      -5.443  12.866  22.146  0.00  0.00    +0.000 C 
BRANCH   9  12
ATOM     11  O   UNL     1      -7.916  11.933  23.972  0.00  0.00    +0.000 OA
ATOM     12  C   UNL     1      -7.100  12.834  24.034  0.00  0.00    +0.000 C 
BRANCH  12  13
ATOM     13  O   UNL     1      -7.366  14.029  24.593  0.00  0.00    +0.000 OA
ATOM     14  H   UNL     1      -6.615  14.442  25.057  0.00  0.00    +0.000 HD
ENDBRANCH  12  13
ENDBRANCH   9  12
ENDBRANCH   3  10
ENDBRANCH   1   6
BRANCH   2  15
ATOM     15  C   UNL     1       0.330  14.651  20.128  0.00  0.00    +0.000 A 
ATOM     16  C   UNL     1       0.550  15.156  21.417  0.00  0.00    +0.000 A 
ATOM     17  C   UNL     1       0.292  16.497  21.707  0.00  0.00    +0.000 A 
ATOM     18  C   UNL     1      -0.180  17.345  20.707  0.00  0.00    +0.000 A 
ATOM     19  C   UNL     1      -0.408  16.851  19.422  0.00  0.00    +0.000 A 
ATOM     20  C   UNL     1      -0.166  15.505  19.135  0.00  0.00    +0.000 A 
ENDBRANCH   2  15
BRANCH   1  21
ATOM     21  C   UNL     1       0.497  10.809  19.921  0.00  0.00    +0.000 A 
ATOM     22  C   UNL     1       0.765  10.016  21.041  0.00  0.00    +0.000 A 
ATOM     23  C   UNL     1       1.355   8.753  20.895  0.00  0.00    +0.000 A 
ATOM     24  C   UNL     1       1.700   8.254  19.629  0.00  0.00    +0.000 A 
ATOM     25  C   UNL     1       1.392   9.044  18.510  0.00  0.00    +0.000 A 
ATOM     26  C   UNL     1       0.785  10.299  18.651  0.00  0.00    +0.000 A 
BRANCH  24  27
ATOM     27  C   UNL     1       2.365   6.950  19.455  0.00  0.00    +0.000 A 
ATOM     28  C   UNL     1       2.240   5.783  20.195  0.00  0.00    +0.000 A 
ATOM     29  N   UNL     1       2.984   4.698  19.770  0.00  0.00    +0.000 NA
ATOM     30  C   UNL     1       3.668   5.040  18.703  0.00  0.00    +0.000 A 
ATOM     31  S   UNL     1       3.458   6.647  18.155  0.00  0.00    +0.000 S 
ENDBRANCH  24  27
ENDBRANCH   1  21
BRANCH   2  32
ATOM     32  C   UNL     1       2.182  13.130  19.369  0.00  0.00    +0.000 C 
ATOM     33  C   UNL     1       2.550  13.403  17.878  0.00  0.00    +0.000 C 
ATOM     34  C   UNL     1       3.892  13.969  18.384  0.00  0.00    +0.000 C 
ATOM     35  C   UNL     1       3.145  14.331  19.677  0.00  0.00    +0.000 C 
ENDBRANCH   2  32
TORSDOF 8
ENDMDL
MODEL 2
REMARK VINA RESULT:      -6.9      0.724      1.623
REMARK  Name = 
REMARK  8 active torsions:
REMARK  status: ('A' for Active; 'I' for Inactive)
REMARK    1  A    between atoms: C_2  and  O_3
REMARK    2  A    between atoms: C_2  and  C_4
REMARK    3  A    between atoms: C_5  and  C_6
REMARK    4  A    between atoms: C_9  and  C_10
REMARK    5  A    between atoms: C_10  and  C_22
REMARK    6  A    between atoms: C_11  and  C_12
REMARK    7  A    between atoms: C_11  and  C_18
REMARK    8  A    between atoms: C_25  and  C_26
REMARK                            x       y       z     vdW  Elec       q    Type
REMARK                         _______ _______ _______ _____ _____    ______ ____
ROOT
ATOM      1  C   UNL     1       0.091  12.361  20.126  0.00  0.00    +0.000 C 
ATOM      2  C   UNL     1       0.812  13.469  19.789  0.00  0.00    +0.000 C 
ENDROOT
BRANCH   1   6
ATOM      3  C   UNL     1      -3.906  12.685  21.782  0.00  0.00    +0.000 A 
ATOM      4  C   UNL     1      -3.689  12.646  20.397  0.00  0.00    +0.000 A 
ATOM      5  C   UNL     1      -2.396  12.539  19.866  0.00  0.00    +0.000 A 
ATOM      6  C   UNL     1      -1.281  12.485  20.709  0.00  0.00    +0.000 A 
ATOM      7  C   UNL     1      -1.491  12.518  22.093  0.00  0.00    +0.000 A 
ATOM      8  C   UNL     1      -2.790  12.622  22.626  0.00  0.00    +0.000 A 
BRANCH   3  10
ATOM      9  C   UNL     1      -5.683  12.766  23.546  0.00  0.00    +0.000 C 
ATOM     10  C   UNL     1      -5.290  12.857  22.265  0.00  0.00    +0.000 C 
BRANCH   9  12
ATOM     11  O   UNL     1      -7.917  12.079  23.882  0.00  0.00    +0.000 OA
ATOM     12  C   UNL     1      -7.070  12.941  24.035  0.00  0.00    +0.000 C 
BRANCH  12  13
ATOM     13  O   UNL     1      -7.329  14.129  24.611  0.00  0.00    +0.000 OA
ATOM     14  H   UNL     1      -7.438  14.872  23.990  0.00  0.00    +0.000 HD
ENDBRANCH  12  13
ENDBRANCH   9  12
ENDBRANCH   3  10
ENDBRANCH   1   6
BRANCH   2  15
ATOM     15  C   UNL     1       0.364  14.846  20.113  0.00  0.00    +0.000 A 
ATOM     16  C   UNL     1      -0.358  15.575  19.159  0.00  0.00    +0.000 A 
ATOM     17  C   UNL     1      -0.899  16.822  19.480  0.00  0.00    +0.000 A 
ATOM     18  C   UNL     1      -0.728  17.344  20.761  0.00  0.00    +0.000 A 
ATOM     19  C   UNL     1      -0.006  16.629  21.716  0.00  0.00    +0.000 A 
ATOM     20  C   UNL     1       0.549  15.388  21.391  0.00  0.00    +0.000 A 
ENDBRANCH   2  15
BRANCH   1  21
ATOM     21  C   UNL     1       0.688  11.012  19.941  0.00  0.00    +0.000 A 
ATOM     22  C   UNL     1       1.081  10.583  18.669  0.00  0.00    +0.000 A 
ATOM     23  C   UNL     1       1.571   9.284  18.474  0.00  0.00    +0.000 A 
ATOM     24  C   UNL     1       1.672   8.379  19.542  0.00  0.00    +0.000 A 
ATOM     25  C   UNL     1       1.309   8.832  20.820  0.00  0.00    +0.000 A 
ATOM     26  C   UNL     1       0.836  10.137  21.021  0.00  0.00    +0.000 A 
BRANCH  24  27
ATOM     27  C   UNL     1       2.137   6.993  19.353  0.00  0.00    +0.000 A 
ATOM     28  C   UNL     1       2.843   6.428  18.300  0.00  0.00    +0.000 A 
ATOM     29  N   UNL     1       3.165   5.089  18.418  0.00  0.00    +0.000 NA
ATOM     30  C   UNL     1       2.708   4.639  19.564  0.00  0.00    +0.000 A 
ATOM     31  S   UNL     1       1.891   5.774  20.549  0.00  0.00    +0.000 S 
ENDBRANCH  24  27
ENDBRANCH   1  21
BRANCH   2  32
ATOM     32  C   UNL     1       2.230  13.396  19.255  0.00  0.00    +0.000 C 
ATOM     33  C   UNL     1       2.624  14.253  18.014  0.00  0.00    +0.000 C 
ATOM     34  C   UNL     1       4.024  14.396  18.642  0.00  0.00    +0.000 C 
ATOM     35  C   UNL     1       3.328  14.233  20.003  0.00  0.00    +0.000 C 
ENDBRANCH   2  32
TORSDOF 8
ENDMDL
MODEL 3
REMARK VINA RESULT:      -6.8      0.679      1.225
REMARK  Name = 
REMARK  8 active torsions:
REMARK  status: ('A' for Active; 'I' for Inactive)
REMARK    1  A    between atoms: C_2  and  O_3
REMARK    2  A    between atoms: C_2  and  C_4
REMARK    3  A    between atoms: C_5  and  C_6
REMARK    4  A    between atoms: C_9  and  C_10
REMARK    5  A    between atoms: C_10  and  C_22
REMARK    6  A    between atoms: C_11  and  C_12
REMARK    7  A    between atoms: C_11  and  C_18
REMARK    8  A    between atoms: C_25  and  C_26
REMARK                            x       y       z     vdW  Elec       q    Type
REMARK                         _______ _______ _______ _____ _____    ______ ____
ROOT
ATOM      1  C   UNL     1      -0.030  12.187  19.994  0.00  0.00    +0.000 C 
ATOM      2  C   UNL     1       0.744  13.275  19.715  0.00  0.00    +0.000 C 
ENDROOT
BRANCH   1   6
ATOM      3  C   UNL     1      -4.066  12.619  21.526  0.00  0.00    +0.000 A 
ATOM      4  C   UNL     1      -3.806  12.589  20.148  0.00  0.00    +0.000 A 
ATOM      5  C   UNL     1      -2.500  12.447  19.658  0.00  0.00    +0.000 A 
ATOM      6  C   UNL     1      -1.416  12.348  20.535  0.00  0.00    +0.000 A 
ATOM      7  C   UNL     1      -1.669  12.371  21.911  0.00  0.00    +0.000 A 
ATOM      8  C   UNL     1      -2.980  12.510  22.404  0.00  0.00    +0.000 A 
BRANCH   3  10
ATOM      9  C   UNL     1      -5.857  12.977  23.241  0.00  0.00    +0.000 C 
ATOM     10  C   UNL     1      -5.459  12.829  21.967  0.00  0.00    +0.000 C 
BRANCH   9  12
ATOM     11  O   UNL     1      -7.739  14.305  23.758  0.00  0.00    +0.000 OA
ATOM     12  C   UNL     1      -7.253  13.191  23.687  0.00  0.00    +0.000 C 
BRANCH  12  13
ATOM     13  O   UNL     1      -7.917  12.077  24.047  0.00  0.00    +0.000 OA
ATOM     14  H   UNL     1      -7.476  11.241  23.808  0.00  0.00    +0.000 HD
ENDBRANCH  12  13
ENDBRANCH   9  12
ENDBRANCH   3  10
ENDBRANCH   1   6
BRANCH   2  15
ATOM     15  C   UNL     1       0.338  14.658  20.066  0.00  0.00    +0.000 A 
ATOM     16  C   UNL     1       0.625  15.155  21.344  0.00  0.00    +0.000 A 
ATOM     17  C   UNL     1       0.367  16.490  21.660  0.00  0.00    +0.000 A 
ATOM     18  C   UNL     1      -0.172  17.341  20.696  0.00  0.00    +0.000 A 
ATOM     19  C   UNL     1      -0.468  16.854  19.423  0.00  0.00    +0.000 A 
ATOM     20  C   UNL     1      -0.225  15.514  19.110  0.00  0.00    +0.000 A 
ENDBRANCH   2  15
BRANCH   1  21
ATOM     21  C   UNL     1       0.521  10.822  19.788  0.00  0.00    +0.000 A 
ATOM     22  C   UNL     1       0.722   9.970  20.880  0.00  0.00    +0.000 A 
ATOM     23  C   UNL     1       1.314   8.712  20.703  0.00  0.00    +0.000 A 
ATOM     24  C   UNL     1       1.728   8.276  19.434  0.00  0.00    +0.000 A 
ATOM     25  C   UNL     1       1.487   9.124  18.341  0.00  0.00    +0.000 A 
ATOM     26  C   UNL     1       0.879  10.375  18.513  0.00  0.00    +0.000 A 
BRANCH  24  27
ATOM     27  C   UNL     1       2.396   6.978  19.231  0.00  0.00    +0.000 A 
ATOM     28  C   UNL     1       3.305   6.589  18.257  0.00  0.00    +0.000 A 
ATOM     29  N   UNL     1       3.785   5.295  18.340  0.00  0.00    +0.000 NA
ATOM     30  C   UNL     1       3.245   4.704  19.380  0.00  0.00    +0.000 A 
ATOM     31  S   UNL     1       2.159   5.649  20.305  0.00  0.00    +0.000 S 
ENDBRANCH  24  27
ENDBRANCH   1  21
BRANCH   2  32
ATOM     32  C   UNL     1       2.176  13.162  19.227  0.00  0.00    +0.000 C 
ATOM     33  C   UNL     1       2.584  13.855  17.891  0.00  0.00    +0.000 C 
ATOM     34  C   UNL     1       3.966  14.110  18.525  0.00  0.00    +0.000 C 
ATOM     35  C   UNL     1       3.240  14.114  19.880  0.00  0.00    +0.000 C 
ENDBRANCH   2  32
TORSDOF 8
ENDMDL
MODEL 4
REMARK VINA RESULT:      -6.7      0.967      1.636
REMARK  Name = 
REMARK  8 active torsions:
REMARK  status: ('A' for Active; 'I' for Inactive)
REMARK    1  A    between atoms: C_2  and  O_3
REMARK    2  A    between atoms: C_2  and  C_4
REMARK    3  A    between atoms: C_5  and  C_6
REMARK    4  A    between atoms: C_9  and  C_10
REMARK    5  A    between atoms: C_10  and  C_22
REMARK    6  A    between atoms: C_11  and  C_12
REMARK    7  A    between atoms: C_11  and  C_18
REMARK    8  A    between atoms: C_25  and  C_26
REMARK                            x       y       z     vdW  Elec       q    Type
REMARK                         _______ _______ _______ _____ _____    ______ ____
ROOT
ATOM      1  C   UNL     1      -0.030  12.182  20.683  0.00  0.00    +0.000 C 
ATOM      2  C   UNL     1       0.726  13.265  20.342  0.00  0.00    +0.000 C 
ENDROOT
BRANCH   1   6
ATOM      3  C   UNL     1      -3.880  12.643  22.629  0.00  0.00    +0.000 A 
ATOM      4  C   UNL     1      -3.746  12.751  21.237  0.00  0.00    +0.000 A 
ATOM      5  C   UNL     1      -2.501  12.599  20.613  0.00  0.00    +0.000 A 
ATOM      6  C   UNL     1      -1.350  12.351  21.367  0.00  0.00    +0.000 A 
ATOM      7  C   UNL     1      -1.477  12.236  22.757  0.00  0.00    +0.000 A 
ATOM      8  C   UNL     1      -2.729  12.385  23.384  0.00  0.00    +0.000 A 
BRANCH   3  10
ATOM      9  C   UNL     1      -5.828  14.062  23.313  0.00  0.00    +0.000 C 
ATOM     10  C   UNL     1      -5.214  12.872  23.220  0.00  0.00    +0.000 C 
BRANCH   9  12
ATOM     11  O   UNL     1      -7.838  15.267  23.602  0.00  0.00    +0.000 OA
ATOM     12  C   UNL     1      -7.167  14.295  23.902  0.00  0.00    +0.000 C 
BRANCH  12  13
ATOM     13  O   UNL     1      -7.557  13.387  24.815  0.00  0.00    +0.000 OA
ATOM     14  H   UNL     1      -7.418  12.458  24.556  0.00  0.00    +0.000 HD
ENDBRANCH  12  13
ENDBRANCH   9  12
ENDBRANCH   3  10
ENDBRANCH   1   6
BRANCH   2  15
ATOM     15  C   UNL     1       0.377  14.647  20.753  0.00  0.00    +0.000 A 
ATOM     16  C   UNL     1      -0.331  15.469  19.866  0.00  0.00    +0.000 A 
ATOM     17  C   UNL     1      -0.780  16.728  20.271  0.00  0.00    +0.000 A 
ATOM     18  C   UNL     1      -0.531  17.169  21.570  0.00  0.00    +0.000 A 
ATOM     19  C   UNL     1       0.179  16.362  22.458  0.00  0.00    +0.000 A 
ATOM     20  C   UNL     1       0.643  15.108  22.048  0.00  0.00    +0.000 A 
ENDBRANCH   2  15
BRANCH   1  21
ATOM     21  C   UNL     1       0.478  10.814  20.401  0.00  0.00    +0.000 A 
ATOM     22  C   UNL     1       0.792   9.947  21.454  0.00  0.00    +0.000 A 
ATOM     23  C   UNL     1       1.346   8.685  21.197  0.00  0.00    +0.000 A 
ATOM     24  C   UNL     1       1.606   8.260  19.885  0.00  0.00    +0.000 A 
ATOM     25  C   UNL     1       1.253   9.123  18.835  0.00  0.00    +0.000 A 
ATOM     26  C   UNL     1       0.682  10.379  19.089  0.00  0.00    +0.000 A 
BRANCH  24  27
ATOM     27  C   UNL     1       2.232   6.958  19.593  0.00  0.00    +0.000 A 
ATOM     28  C   UNL     1       3.133   6.608  18.597  0.00  0.00    +0.000 A 
ATOM     29  N   UNL     1       3.569   5.296  18.589  0.00  0.00    +0.000 NA
ATOM     30  C   UNL     1       3.004   4.652  19.584  0.00  0.00    +0.000 A 
ATOM     31  S   UNL     1       1.945   5.565  20.569  0.00  0.00    +0.000 S 
ENDBRANCH  24  27
ENDBRANCH   1  21
BRANCH   2  32
ATOM     32  C   UNL     1       2.098  13.142  19.706  0.00  0.00    +0.000 C 
ATOM     33  C   UNL     1       2.270  13.474  18.192  0.00  0.00    +0.000 C 
ATOM     34  C   UNL     1       3.675  14.007  18.540  0.00  0.00    +0.000 C 
ATOM     35  C   UNL     1       3.109  14.322  19.933  0.00  0.00    +0.000 C 
ENDBRANCH   2  32
TORSDOF 8
ENDMDL
MODEL 5
REMARK VINA RESULT:      -6.6      0.730      1.296
REMARK  Name = 
REMARK  8 active torsions:
REMARK  status: ('A' for Active; 'I' for Inactive)
REMARK    1  A    between atoms: C_2  and  O_3
REMARK    2  A    between atoms: C_2  and  C_4
REMARK    3  A    between atoms: C_5  and  C_6
REMARK    4  A    between atoms: C_9  and  C_10
REMARK    5  A    between atoms: C_10  and  C_22
REMARK    6  A    between atoms: C_11  and  C_12
REMARK    7  A    between atoms: C_11  and  C_18
REMARK    8  A    between atoms: C_25  and  C_26
REMARK                            x       y       z     vdW  Elec       q    Type
REMARK                         _______ _______ _______ _____ _____    ______ ____
ROOT
ATOM      1  C   UNL     1       0.215  12.203  20.547  0.00  0.00    +0.000 C 
ATOM      2  C   UNL     1       0.971  13.318  20.332  0.00  0.00    +0.000 C 
ENDROOT
BRANCH   1   6
ATOM      3  C   UNL     1      -3.559  12.484  22.670  0.00  0.00    +0.000 A 
ATOM      4  C   UNL     1      -2.373  12.131  23.330  0.00  0.00    +0.000 A 
ATOM      5  C   UNL     1      -1.156  12.044  22.640  0.00  0.00    +0.000 A 
ATOM      6  C   UNL     1      -1.095  12.291  21.266  0.00  0.00    +0.000 A 
ATOM      7  C   UNL     1      -2.274  12.650  20.602  0.00  0.00    +0.000 A 
ATOM      8  C   UNL     1      -3.497  12.741  21.295  0.00  0.00    +0.000 A 
BRANCH   3  10
ATOM      9  C   UNL     1      -5.990  12.977  23.019  0.00  0.00    +0.000 C 
ATOM     10  C   UNL     1      -4.812  12.500  23.451  0.00  0.00    +0.000 C 
BRANCH   9  12
ATOM     11  O   UNL     1      -7.671  14.009  24.317  0.00  0.00    +0.000 OA
ATOM     12  C   UNL     1      -7.250  12.991  23.798  0.00  0.00    +0.000 C 
BRANCH  12  13
ATOM     13  O   UNL     1      -7.860  11.798  23.923  0.00  0.00    +0.000 OA
ATOM     14  H   UNL     1      -8.814  11.801  23.729  0.00  0.00    +0.000 HD
ENDBRANCH  12  13
ENDBRANCH   9  12
ENDBRANCH   3  10
ENDBRANCH   1   6
BRANCH   2  15
ATOM     15  C   UNL     1       0.635  14.640  20.916  0.00  0.00    +0.000 A 
ATOM     16  C   UNL     1      -0.054  15.579  20.138  0.00  0.00    +0.000 A 
ATOM     17  C   UNL     1      -0.492  16.780  20.699  0.00  0.00    +0.000 A 
ATOM     18  C   UNL     1      -0.249  17.047  22.046  0.00  0.00    +0.000 A 
ATOM     19  C   UNL     1       0.442  16.121  22.827  0.00  0.00    +0.000 A 
ATOM     20  C   UNL     1       0.894  14.925  22.262  0.00  0.00    +0.000 A 
ENDBRANCH   2  15
BRANCH   1  21
ATOM     21  C   UNL     1       0.711  10.879  20.091  0.00  0.00    +0.000 A 
ATOM     22  C   UNL     1       0.980   9.868  21.019  0.00  0.00    +0.000 A 
ATOM     23  C   UNL     1       1.523   8.644  20.604  0.00  0.00    +0.000 A 
ATOM     24  C   UNL     1       1.818   8.402  19.253  0.00  0.00    +0.000 A 
ATOM     25  C   UNL     1       1.509   9.410  18.326  0.00  0.00    +0.000 A 
ATOM     26  C   UNL     1       0.949  10.628  18.736  0.00  0.00    +0.000 A 
BRANCH  24  27
ATOM     27  C   UNL     1       2.434   7.142  18.799  0.00  0.00    +0.000 A 
ATOM     28  C   UNL     1       2.167   5.835  19.180  0.00  0.00    +0.000 A 
ATOM     29  N   UNL     1       2.900   4.845  18.552  0.00  0.00    +0.000 NA
ATOM     30  C   UNL     1       3.720   5.401  17.691  0.00  0.00    +0.000 A 
ATOM     31  S   UNL     1       3.654   7.108  17.581  0.00  0.00    +0.000 S 
ENDBRANCH  24  27
ENDBRANCH   1  21
BRANCH   2  32
ATOM     32  C   UNL     1       2.333  13.270  19.666  0.00  0.00    +0.000 C 
ATOM     33  C   UNL     1       2.483  13.772  18.197  0.00  0.00    +0.000 C 
ATOM     34  C   UNL     1       3.893  14.264  18.582  0.00  0.00    +0.000 C 
ATOM     35  C   UNL     1       3.348  14.417  20.011  0.00  0.00    +0.000 C 
ENDBRANCH   2  32
TORSDOF 8
ENDMDL
MODEL 6
REMARK VINA RESULT:      -6.5      4.609      6.916
REMARK  Name = 
REMARK  8 active torsions:
REMARK  status: ('A' for Active; 'I' for Inactive)
REMARK    1  A    between atoms: C_2  and  O_3
REMARK    2  A    between atoms: C_2  and  C_4
REMARK    3  A    between atoms: C_5  and  C_6
REMARK    4  A    between atoms: C_9  and  C_10
REMARK    5  A    between atoms: C_10  and  C_22
REMARK    6  A    between atoms: C_11  and  C_12
REMARK    7  A    between atoms: C_11  and  C_18
REMARK    8  A    between atoms: C_25  and  C_26
REMARK                            x       y       z     vdW  Elec       q    Type
REMARK                         _______ _______ _______ _____ _____    ______ ____
ROOT
ATOM      1  C   UNL     1       1.084  11.826  19.325  0.00  0.00    +0.000 C 
ATOM      2  C   UNL     1      -0.223  12.210  19.401  0.00  0.00    +0.000 C 
ENDROOT
BRANCH   1   6
ATOM      3  C   UNL     1       4.265  14.758  19.661  0.00  0.00    +0.000 A 
ATOM      4  C   UNL     1       3.915  14.197  18.424  0.00  0.00    +0.000 A 
ATOM      5  C   UNL     1       2.886  13.251  18.320  0.00  0.00    +0.000 A 
ATOM      6  C   UNL     1       2.188  12.829  19.456  0.00  0.00    +0.000 A 
ATOM      7  C   UNL     1       2.527  13.389  20.693  0.00  0.00    +0.000 A 
ATOM      8  C   UNL     1       3.560  14.341  20.797  0.00  0.00    +0.000 A 
BRANCH   3  10
ATOM      9  C   UNL     1       6.333  15.837  18.747  0.00  0.00    +0.000 C 
ATOM     10  C   UNL     1       5.398  15.704  19.701  0.00  0.00    +0.000 C 
BRANCH   9  12
ATOM     11  O   UNL     1       7.299  17.991  18.726  0.00  0.00    +0.000 OA
ATOM     12  C   UNL     1       7.469  16.786  18.782  0.00  0.00    +0.000 C 
BRANCH  12  13
ATOM     13  O   UNL     1       8.688  16.219  18.832  0.00  0.00    +0.000 OA
ATOM     14  H   UNL     1       9.114  16.236  19.709  0.00  0.00    +0.000 HD
ENDBRANCH  12  13
ENDBRANCH   9  12
ENDBRANCH   3  10
ENDBRANCH   1   6
BRANCH   2  15
ATOM     15  C   UNL     1      -0.638  13.633  19.460  0.00  0.00    +0.000 A 
ATOM     16  C   UNL     1      -1.317  14.104  20.592  0.00  0.00    +0.000 A 
ATOM     17  C   UNL     1      -1.609  15.462  20.729  0.00  0.00    +0.000 A 
ATOM     18  C   UNL     1      -1.218  16.361  19.738  0.00  0.00    +0.000 A 
ATOM     19  C   UNL     1      -0.548  15.901  18.604  0.00  0.00    +0.000 A 
ATOM     20  C   UNL     1      -0.268  14.539  18.458  0.00  0.00    +0.000 A 
ENDBRANCH   2  15
BRANCH   1  21
ATOM     21  C   UNL     1       1.418  10.399  19.078  0.00  0.00    +0.000 A 
ATOM     22  C   UNL     1       1.309   9.461  20.109  0.00  0.00    +0.000 A 
ATOM     23  C   UNL     1       1.697   8.129  19.906  0.00  0.00    +0.000 A 
ATOM     24  C   UNL     1       2.212   7.704  18.671  0.00  0.00    +0.000 A 
ATOM     25  C   UNL     1       2.283   8.646  17.633  0.00  0.00    +0.000 A 
ATOM     26  C   UNL     1       1.878   9.974  17.828  0.00  0.00    +0.000 A 
BRANCH  24  27
ATOM     27  C   UNL     1       2.672   6.321  18.449  0.00  0.00    +0.000 A 
ATOM     28  C   UNL     1       2.017   5.119  18.674  0.00  0.00    +0.000 A 
ATOM     29  N   UNL     1       2.704   3.967  18.340  0.00  0.00    +0.000 NA
ATOM     30  C   UNL     1       3.878   4.295  17.855  0.00  0.00    +0.000 A 
ATOM     31  S   UNL     1       4.217   5.970  17.766  0.00  0.00    +0.000 S 
ENDBRANCH  24  27
ENDBRANCH   1  21
BRANCH   2  32
ATOM     32  C   UNL     1      -1.375  11.242  19.210  0.00  0.00    +0.000 C 
ATOM     33  C   UNL     1      -2.806  11.802  18.943  0.00  0.00    +0.000 C 
ATOM     34  C   UNL     1      -3.046  10.570  18.048  0.00  0.00    +0.000 C 
ATOM     35  C   UNL     1      -1.530  10.571  17.800  0.00  0.00    +0.000 C 
ENDBRANCH   2  32
TORSDOF 8
ENDMDL
MODEL 7
REMARK VINA RESULT:      -6.4      4.978      8.188
REMARK  Name = 
REMARK  8 active torsions:
REMARK  status: ('A' for Active; 'I' for Inactive)
REMARK    1  A    between atoms: C_2  and  O_3
REMARK    2  A    between atoms: C_2  and  C_4
REMARK    3  A    between atoms: C_5  and  C_6
REMARK    4  A    between atoms: C_9  and  C_10
REMARK    5  A    between atoms: C_10  and  C_22
REMARK    6  A    between atoms: C_11  and  C_12
REMARK    7  A    between atoms: C_11  and  C_18
REMARK    8  A    between atoms: C_25  and  C_26
REMARK                            x       y       z     vdW  Elec       q    Type
REMARK                         _______ _______ _______ _____ _____    ______ ____
ROOT
ATOM      1  C   UNL     1      -0.493  13.035  21.004  0.00  0.00    +0.000 C 
ATOM      2  C   UNL     1       0.240  14.186  20.992  0.00  0.00    +0.000 C 
ENDROOT
BRANCH   1   6
ATOM      3  C   UNL     1       1.078   9.340  19.361  0.00  0.00    +0.000 A 
ATOM      4  C   UNL     1       1.142   9.615  20.734  0.00  0.00    +0.000 A 
ATOM      5  C   UNL     1       0.632  10.809  21.261  0.00  0.00    +0.000 A 
ATOM      6  C   UNL     1       0.057  11.770  20.424  0.00  0.00    +0.000 A 
ATOM      7  C   UNL     1      -0.016  11.499  19.052  0.00  0.00    +0.000 A 
ATOM      8  C   UNL     1       0.494  10.298  18.523  0.00  0.00    +0.000 A 
BRANCH   3  10
ATOM      9  C   UNL     1       2.364   7.206  19.628  0.00  0.00    +0.000 C 
ATOM     10  C   UNL     1       1.689   8.087  18.872  0.00  0.00    +0.000 C 
BRANCH   9  12
ATOM     11  O   UNL     1       3.762   5.314  19.822  0.00  0.00    +0.000 OA
ATOM     12  C   UNL     1       2.975   5.947  19.142  0.00  0.00    +0.000 C 
BRANCH  12  13
ATOM     13  O   UNL     1       2.633   5.590  17.891  0.00  0.00    +0.000 OA
ATOM     14  H   UNL     1       3.380   5.492  17.273  0.00  0.00    +0.000 HD
ENDBRANCH  12  13
ENDBRANCH   9  12
ENDBRANCH   3  10
ENDBRANCH   1   6
BRANCH   2  15
ATOM     15  C   UNL     1       1.536  14.304  20.282  0.00  0.00    +0.000 A 
ATOM     16  C   UNL     1       1.545  14.623  18.917  0.00  0.00    +0.000 A 
ATOM     17  C   UNL     1       2.750  14.863  18.253  0.00  0.00    +0.000 A 
ATOM     18  C   UNL     1       3.954  14.794  18.952  0.00  0.00    +0.000 A 
ATOM     19  C   UNL     1       3.956  14.471  20.309  0.00  0.00    +0.000 A 
ATOM     20  C   UNL     1       2.752  14.216  20.971  0.00  0.00    +0.000 A 
ENDBRANCH   2  15
BRANCH   1  21
ATOM     21  C   UNL     1      -1.866  13.043  21.572  0.00  0.00    +0.000 A 
ATOM     22  C   UNL     1      -2.973  13.241  20.739  0.00  0.00    +0.000 A 
ATOM     23  C   UNL     1      -4.264  13.329  21.278  0.00  0.00    +0.000 A 
ATOM     24  C   UNL     1      -4.481  13.230  22.661  0.00  0.00    +0.000 A 
ATOM     25  C   UNL     1      -3.368  12.995  23.483  0.00  0.00    +0.000 A 
ATOM     26  C   UNL     1      -2.078  12.888  22.945  0.00  0.00    +0.000 A 
BRANCH  24  27
ATOM     27  C   UNL     1      -5.823  13.368  23.255  0.00  0.00    +0.000 A 
ATOM     28  C   UNL     1      -6.712  12.390  23.681  0.00  0.00    +0.000 A 
ATOM     29  N   UNL     1      -7.903  12.831  24.227  0.00  0.00    +0.000 NA
ATOM     30  C   UNL     1      -7.916  14.144  24.220  0.00  0.00    +0.000 A 
ATOM     31  S   UNL     1      -6.526  14.909  23.580  0.00  0.00    +0.000 S 
ENDBRANCH  24  27
ENDBRANCH   1  21
BRANCH   2  32
ATOM     32  C   UNL     1      -0.299  15.507  21.510  0.00  0.00    +0.000 C 
ATOM     33  C   UNL     1       0.102  15.987  22.939  0.00  0.00    +0.000 C 
ATOM     34  C   UNL     1       0.062  17.428  22.391  0.00  0.00    +0.000 C 
ATOM     35  C   UNL     1       0.415  16.819  21.025  0.00  0.00    +0.000 C 
ENDBRANCH   2  32
TORSDOF 8
ENDMDL
MODEL 8
REMARK VINA RESULT:      -6.3      4.460      6.937
REMARK  Name = 
REMARK  8 active torsions:
REMARK  status: ('A' for Active; 'I' for Inactive)
REMARK    1  A    between atoms: C_2  and  O_3
REMARK    2  A    between atoms: C_2  and  C_4
REMARK    3  A    between atoms: C_5  and  C_6
REMARK    4  A    between atoms: C_9  and  C_10
REMARK    5  A    between atoms: C_10  and  C_22
REMARK    6  A    between atoms: C_11  and  C_12
REMARK    7  A    between atoms: C_11  and  C_18
REMARK    8  A    between atoms: C_25  and  C_26
REMARK                            x       y       z     vdW  Elec       q    Type
REMARK                         _______ _______ _______ _____ _____    ______ ____
ROOT
ATOM      1  C   UNL     1       1.124  12.347  19.558  0.00  0.00    +0.000 C 
ATOM      2  C   UNL     1      -0.149  12.831  19.639  0.00  0.00    +0.000 C 
ENDROOT
BRANCH   1   6
ATOM      3  C   UNL     1       4.555  14.999  19.690  0.00  0.00    +0.000 A 
ATOM      4  C   UNL     1       3.925  14.558  20.863  0.00  0.00    +0.000 A 
ATOM      5  C   UNL     1       2.818  13.700  20.816  0.00  0.00    +0.000 A 
ATOM      6  C   UNL     1       2.300  13.271  19.590  0.00  0.00    +0.000 A 
ATOM      7  C   UNL     1       2.927  13.702  18.415  0.00  0.00    +0.000 A 
ATOM      8  C   UNL     1       4.041  14.562  18.463  0.00  0.00    +0.000 A 
BRANCH   3  10
ATOM      9  C   UNL     1       6.566  16.234  18.851  0.00  0.00    +0.000 C 
ATOM     10  C   UNL     1       5.679  15.947  19.817  0.00  0.00    +0.000 C 
BRANCH   9  12
ATOM     11  O   UNL     1       8.783  16.958  18.480  0.00  0.00    +0.000 OA
ATOM     12  C   UNL     1       7.693  17.188  18.974  0.00  0.00    +0.000 C 
BRANCH  12  13
ATOM     13  O   UNL     1       7.435  18.289  19.703  0.00  0.00    +0.000 OA
ATOM     14  H   UNL     1       8.202  18.656  20.179  0.00  0.00    +0.000 HD
ENDBRANCH  12  13
ENDBRANCH   9  12
ENDBRANCH   3  10
ENDBRANCH   1   6
BRANCH   2  15
ATOM     15  C   UNL     1      -0.459  14.281  19.606  0.00  0.00    +0.000 A 
ATOM     16  C   UNL     1      -0.776  14.943  20.801  0.00  0.00    +0.000 A 
ATOM     17  C   UNL     1      -0.950  16.328  20.819  0.00  0.00    +0.000 A 
ATOM     18  C   UNL     1      -0.799  17.063  19.644  0.00  0.00    +0.000 A 
ATOM     19  C   UNL     1      -0.490  16.413  18.449  0.00  0.00    +0.000 A 
ATOM     20  C   UNL     1      -0.332  15.024  18.426  0.00  0.00    +0.000 A 
ENDBRANCH   2  15
BRANCH   1  21
ATOM     21  C   UNL     1       1.346  10.885  19.406  0.00  0.00    +0.000 A 
ATOM     22  C   UNL     1       1.189  10.030  20.501  0.00  0.00    +0.000 A 
ATOM     23  C   UNL     1       1.473   8.662  20.384  0.00  0.00    +0.000 A 
ATOM     24  C   UNL     1       1.930   8.116  19.174  0.00  0.00    +0.000 A 
ATOM     25  C   UNL     1       2.049   8.978  18.072  0.00  0.00    +0.000 A 
ATOM     26  C   UNL     1       1.748  10.343  18.181  0.00  0.00    +0.000 A 
BRANCH  24  27
ATOM     27  C   UNL     1       2.282   6.692  19.041  0.00  0.00    +0.000 A 
ATOM     28  C   UNL     1       2.939   6.031  18.012  0.00  0.00    +0.000 A 
ATOM     29  N   UNL     1       3.152   4.675  18.183  0.00  0.00    +0.000 NA
ATOM     30  C   UNL     1       2.661   4.309  19.344  0.00  0.00    +0.000 A 
ATOM     31  S   UNL     1       1.939   5.544  20.282  0.00  0.00    +0.000 S 
ENDBRANCH  24  27
ENDBRANCH   1  21
BRANCH   2  32
ATOM     32  C   UNL     1      -1.374  11.940  19.546  0.00  0.00    +0.000 C 
ATOM     33  C   UNL     1      -2.778  12.538  19.866  0.00  0.00    +0.000 C 
ATOM     34  C   UNL     1      -3.349  11.593  18.789  0.00  0.00    +0.000 C 
ATOM     35  C   UNL     1      -1.970  11.676  18.118  0.00  0.00    +0.000 C 
ENDBRANCH   2  32
TORSDOF 8
ENDMDL
MODEL 9
REMARK VINA RESULT:      -6.2      4.422      7.435
REMARK  Name = 
REMARK  8 active torsions:
REMARK  status: ('A' for Active; 'I' for Inactive)
REMARK    1  A    between atoms: C_2  and  O_3
REMARK    2  A    between atoms: C_2  and  C_4
REMARK    3  A    between atoms: C_5  and  C_6
REMARK    4  A    between atoms: C_9  and  C_10
REMARK    5  A    between atoms: C_10  and  C_22
REMARK    6  A    between atoms: C_11  and  C_12
REMARK    7  A    between atoms: C_11  and  C_18
REMARK    8  A    between atoms: C_25  and  C_26
REMARK                            x       y       z     vdW  Elec       q    Type
REMARK                         _______ _______ _______ _____ _____    ______ ____
ROOT
ATOM      1  C   UNL     1       1.006  13.305  19.905  0.00  0.00    +0.000 C 
ATOM      2  C   UNL     1      -0.140  14.034  20.034  0.00  0.00    +0.000 C 
ENDROOT
BRANCH   1   6
ATOM      3  C   UNL     1       0.961   9.019  20.579  0.00  0.00    +0.000 A 
ATOM      4  C   UNL     1       0.963   9.928  21.647  0.00  0.00    +0.000 A 
ATOM      5  C   UNL     1       0.976  11.312  21.425  0.00  0.00    +0.000 A 
ATOM      6  C   UNL     1       1.003  11.825  20.124  0.00  0.00    +0.000 A 
ATOM      7  C   UNL     1       0.995  10.924  19.053  0.00  0.00    +0.000 A 
ATOM      8  C   UNL     1       0.980   9.534  19.276  0.00  0.00    +0.000 A 
BRANCH   3  10
ATOM      9  C   UNL     1       1.749   6.665  20.244  0.00  0.00    +0.000 C 
ATOM     10  C   UNL     1       1.006   7.577  20.892  0.00  0.00    +0.000 C 
BRANCH   9  12
ATOM     11  O   UNL     1       1.104   4.411  19.967  0.00  0.00    +0.000 OA
ATOM     12  C   UNL     1       1.799   5.218  20.557  0.00  0.00    +0.000 C 
BRANCH  12  13
ATOM     13  O   UNL     1       2.627   4.878  21.562  0.00  0.00    +0.000 OA
ATOM     14  H   UNL     1       2.594   3.939  21.822  0.00  0.00    +0.000 HD
ENDBRANCH  12  13
ENDBRANCH   9  12
ENDBRANCH   3  10
ENDBRANCH   1   6
BRANCH   2  15
ATOM     15  C   UNL     1      -1.407  13.453  20.542  0.00  0.00    +0.000 A 
ATOM     16  C   UNL     1      -1.710  13.554  21.906  0.00  0.00    +0.000 A 
ATOM     17  C   UNL     1      -2.949  13.128  22.390  0.00  0.00    +0.000 A 
ATOM     18  C   UNL     1      -3.896  12.605  21.511  0.00  0.00    +0.000 A 
ATOM     19  C   UNL     1      -3.601  12.494  20.152  0.00  0.00    +0.000 A 
ATOM     20  C   UNL     1      -2.356  12.906  19.669  0.00  0.00    +0.000 A 
ENDBRANCH   2  15
BRANCH   1  21
ATOM     21  C   UNL     1       2.281  13.993  19.572  0.00  0.00    +0.000 A 
ATOM     22  C   UNL     1       2.673  14.145  18.238  0.00  0.00    +0.000 A 
ATOM     23  C   UNL     1       3.910  14.722  17.920  0.00  0.00    +0.000 A 
ATOM     24  C   UNL     1       4.790  15.152  18.925  0.00  0.00    +0.000 A 
ATOM     25  C   UNL     1       4.370  15.028  20.259  0.00  0.00    +0.000 A 
ATOM     26  C   UNL     1       3.126  14.469  20.579  0.00  0.00    +0.000 A 
BRANCH  24  27
ATOM     27  C   UNL     1       6.117  15.717  18.616  0.00  0.00    +0.000 A 
ATOM     28  C   UNL     1       6.613  16.994  18.837  0.00  0.00    +0.000 A 
ATOM     29  N   UNL     1       7.922  17.224  18.458  0.00  0.00    +0.000 NA
ATOM     30  C   UNL     1       8.422  16.119  17.955  0.00  0.00    +0.000 A 
ATOM     31  S   UNL     1       7.374  14.767  17.915  0.00  0.00    +0.000 S 
ENDBRANCH  24  27
ENDBRANCH   1  21
BRANCH   2  32
ATOM     32  C   UNL     1      -0.175  15.544  19.884  0.00  0.00    +0.000 C 
ATOM     33  C   UNL     1      -0.328  16.166  18.463  0.00  0.00    +0.000 C 
ATOM     34  C   UNL     1      -1.139  17.300  19.121  0.00  0.00    +0.000 C 
ATOM     35  C   UNL     1      -1.532  16.270  20.192  0.00  0.00    +0.000 C 
ENDBRANCH   2  32
TORSDOF 8
ENDMDL
