MODEL 1
REMARK VINA RESULT:      -7.7      0.000      0.000
REMARK  Name = 
REMARK  5 active torsions:
REMARK  status: ('A' for Active; 'I' for Inactive)
REMARK    1  A    between atoms: C_1  and  C_2
REMARK    2  A    between atoms: C_11  and  C_13
REMARK    3  A    between atoms: C_13  and  N_14
REMARK    4  A    between atoms: N_17  and  C_18
REMARK    5  A    between atoms: C_18  and  C_19
REMARK                            x       y       z     vdW  Elec       q    Type
REMARK                         _______ _______ _______ _____ _____    ______ ____
ROOT
ATOM      1  N   UNL     1       0.244   8.612  20.713  0.00  0.00    +0.000 NA
ATOM      2  C   UNL     1      -0.615   8.662  21.921  0.00  0.00    +0.000 C 
ATOM      3  C   UNL     1      -0.240   9.759  22.958  0.00  0.00    +0.000 C 
ATOM      4  N   UNL     1      -0.092  11.126  22.393  0.00  0.00    +0.000 NA
ATOM      5  C   UNL     1       0.805  11.042  21.225  0.00  0.00    +0.000 C 
ATOM      6  C   UNL     1       0.377   9.988  20.175  0.00  0.00    +0.000 C 
ENDROOT
BRANCH   1   7
ATOM      7  C   UNL     1       1.581   8.046  21.006  0.00  0.00    +0.000 C 
BRANCH   7  18
ATOM      8  C   UNL     1       2.014   8.378  17.473  0.00  0.00    +0.000 C 
ATOM      9  C   UNL     1       3.060   7.714  18.375  0.00  0.00    +0.000 C 
ATOM     10  C   UNL     1       4.184   7.077  17.527  0.00  0.00    +0.000 C 
ATOM     11  C   UNL     1       3.762   5.645  17.507  0.00  0.00    +0.000 A 
ATOM     12  C   UNL     1       4.281   4.621  16.728  0.00  0.00    +0.000 A 
ATOM     13  C   UNL     1       3.794   3.330  16.923  0.00  0.00    +0.000 A 
ATOM     14  C   UNL     1       2.814   3.078  17.893  0.00  0.00    +0.000 A 
ATOM     15  C   UNL     1       2.312   4.115  18.691  0.00  0.00    +0.000 A 
ATOM     16  C   UNL     1       2.799   5.395  18.489  0.00  0.00    +0.000 A 
ATOM     17  N   UNL     1       2.474   6.597  19.162  0.00  0.00    +0.000 N 
ATOM     18  C   UNL     1       1.788   6.662  20.363  0.00  0.00    +0.000 C 
ATOM     19  O   UNL     1       1.379   5.668  20.973  0.00  0.00    +0.000 OA
ENDBRANCH   7  18
ENDBRANCH   1   7
BRANCH   4  20
ATOM     20  C   UNL     1      -1.420  11.675  22.057  0.00  0.00    +0.000 C 
BRANCH  20  21
ATOM     21  C   UNL     1      -1.956  12.708  23.031  0.00  0.00    +0.000 A 
ATOM     22  C   UNL     1      -3.255  12.585  23.569  0.00  0.00    +0.000 A 
ATOM     23  C   UNL     1      -3.784  13.572  24.410  0.00  0.00    +0.000 A 
ATOM     24  C   UNL     1      -2.988  14.658  24.709  0.00  0.00    +0.000 A 
ATOM     25  C   UNL     1      -1.715  14.776  24.204  0.00  0.00    +0.000 A 
ATOM     26  C   UNL     1      -1.170  13.827  23.369  0.00  0.00    +0.000 A 
ATOM     27  O   UNL     1      -1.097  15.919  24.617  0.00  0.00    +0.000 OA
ATOM     28  C   UNL     1      -2.133  16.504  25.432  0.00  0.00    +0.000 C 
ATOM     29  O   UNL     1      -3.338  15.713  25.489  0.00  0.00    +0.000 OA
ENDBRANCH  20  21
ENDBRANCH   4  20
TORSDOF 4
ENDMDL
MODEL 2
REMARK VINA RESULT:      -7.5      3.546     10.394
REMARK  Name = 
REMARK  5 active torsions:
REMARK  status: ('A' for Active; 'I' for Inactive)
REMARK    1  A    between atoms: C_1  and  C_2
REMARK    2  A    between atoms: C_11  and  C_13
REMARK    3  A    between atoms: C_13  and  N_14
REMARK    4  A    between atoms: N_17  and  C_18
REMARK    5  A    between atoms: C_18  and  C_19
REMARK                            x       y       z     vdW  Elec       q    Type
REMARK                         _______ _______ _______ _____ _____    ______ ____
ROOT
ATOM      1  N   UNL     1       2.235   6.465  20.700  0.00  0.00    +0.000 NA
ATOM      2  C   UNL     1       2.061   5.019  20.976  0.00  0.00    +0.000 C 
ATOM      3  C   UNL     1       1.674   4.149  19.747  0.00  0.00    +0.000 C 
ATOM      4  N   UNL     1       2.545   4.329  18.556  0.00  0.00    +0.000 NA
ATOM      5  C   UNL     1       2.654   5.776  18.285  0.00  0.00    +0.000 C 
ATOM      6  C   UNL     1       3.103   6.614  19.507  0.00  0.00    +0.000 C 
ENDROOT
BRANCH   1   7
ATOM      7  C   UNL     1       0.938   7.147  20.476  0.00  0.00    +0.000 C 
BRANCH   7  18
ATOM      8  C   UNL     1       1.476   9.163  17.574  0.00  0.00    +0.000 C 
ATOM      9  C   UNL     1       0.256   9.335  18.484  0.00  0.00    +0.000 C 
ATOM     10  C   UNL     1      -0.560  10.580  18.072  0.00  0.00    +0.000 C 
ATOM     11  C   UNL     1      -0.081  11.589  19.063  0.00  0.00    +0.000 A 
ATOM     12  C   UNL     1      -0.317  12.956  19.060  0.00  0.00    +0.000 A 
ATOM     13  C   UNL     1       0.159  13.711  20.131  0.00  0.00    +0.000 A 
ATOM     14  C   UNL     1       0.846  13.096  21.186  0.00  0.00    +0.000 A 
ATOM     15  C   UNL     1       1.060  11.710  21.191  0.00  0.00    +0.000 A 
ATOM     16  C   UNL     1       0.586  10.968  20.123  0.00  0.00    +0.000 A 
ATOM     17  N   UNL     1       0.656   9.573  19.897  0.00  0.00    +0.000 N 
ATOM     18  C   UNL     1       0.982   8.636  20.864  0.00  0.00    +0.000 C 
ATOM     19  O   UNL     1       1.255   8.928  22.034  0.00  0.00    +0.000 OA
ENDBRANCH   7  18
ENDBRANCH   1   7
BRANCH   4  20
ATOM     20  C   UNL     1       3.854   3.691  18.794  0.00  0.00    +0.000 C 
BRANCH  20  21
ATOM     21  C   UNL     1       4.943   4.066  17.806  0.00  0.00    +0.000 A 
ATOM     22  C   UNL     1       6.140   4.668  18.248  0.00  0.00    +0.000 A 
ATOM     23  C   UNL     1       7.118   5.086  17.336  0.00  0.00    +0.000 A 
ATOM     24  C   UNL     1       6.880   4.872  15.994  0.00  0.00    +0.000 A 
ATOM     25  C   UNL     1       5.724   4.270  15.557  0.00  0.00    +0.000 A 
ATOM     26  C   UNL     1       4.742   3.856  16.427  0.00  0.00    +0.000 A 
ATOM     27  O   UNL     1       5.683   4.153  14.199  0.00  0.00    +0.000 OA
ATOM     28  C   UNL     1       6.941   4.759  13.839  0.00  0.00    +0.000 C 
ATOM     29  O   UNL     1       7.703   5.224  14.972  0.00  0.00    +0.000 OA
ENDBRANCH  20  21
ENDBRANCH   4  20
TORSDOF 4
ENDMDL
MODEL 3
REMARK VINA RESULT:      -7.5      1.837     10.806
REMARK  Name = 
REMARK  5 active torsions:
REMARK  status: ('A' for Active; 'I' for Inactive)
REMARK    1  A    between atoms: C_1  and  C_2
REMARK    2  A    between atoms: C_11  and  C_13
REMARK    3  A    between atoms: C_13  and  N_14
REMARK    4  A    between atoms: N_17  and  C_18
REMARK    5  A    between atoms: C_18  and  C_19
REMARK                            x       y       z     vdW  Elec       q    Type
REMARK                         _______ _______ _______ _____ _____    ______ ____
ROOT
ATOM      1  N   UNL     1      -0.139  11.129  22.637  0.00  0.00    +0.000 NA
ATOM      2  C   UNL     1      -0.028   9.738  23.138  0.00  0.00    +0.000 C 
ATOM      3  C   UNL     1      -0.461   8.633  22.134  0.00  0.00    +0.000 C 
ATOM      4  N   UNL     1       0.166   8.732  20.789  0.00  0.00    +0.000 NA
ATOM      5  C   UNL     1      -0.007  10.115  20.306  0.00  0.00    +0.000 C 
ATOM      6  C   UNL     1       0.490  11.196  21.296  0.00  0.00    +0.000 C 
ENDROOT
BRANCH   1   7
ATOM      7  C   UNL     1      -1.548  11.582  22.564  0.00  0.00    +0.000 C 
BRANCH   7  18
ATOM      8  C   UNL     1      -4.392  13.155  21.076  0.00  0.00    +0.000 C 
ATOM      9  C   UNL     1      -4.265  12.936  22.587  0.00  0.00    +0.000 C 
ATOM     10  C   UNL     1      -5.419  13.640  23.337  0.00  0.00    +0.000 C 
ATOM     11  C   UNL     1      -4.753  14.898  23.788  0.00  0.00    +0.000 A 
ATOM     12  C   UNL     1      -5.351  16.019  24.344  0.00  0.00    +0.000 A 
ATOM     13  C   UNL     1      -4.531  17.062  24.772  0.00  0.00    +0.000 A 
ATOM     14  C   UNL     1      -3.138  16.968  24.653  0.00  0.00    +0.000 A 
ATOM     15  C   UNL     1      -2.542  15.821  24.110  0.00  0.00    +0.000 A 
ATOM     16  C   UNL     1      -3.363  14.791  23.685  0.00  0.00    +0.000 A 
ATOM     17  N   UNL     1      -3.016  13.539  23.125  0.00  0.00    +0.000 N 
ATOM     18  C   UNL     1      -1.744  12.992  23.152  0.00  0.00    +0.000 C 
ATOM     19  O   UNL     1      -0.770  13.550  23.668  0.00  0.00    +0.000 OA
ENDBRANCH   7  18
ENDBRANCH   1   7
BRANCH   4  20
ATOM     20  C   UNL     1       1.582   8.325  20.868  0.00  0.00    +0.000 C 
BRANCH  20  21
ATOM     21  C   UNL     1       1.912   7.005  20.198  0.00  0.00    +0.000 A 
ATOM     22  C   UNL     1       1.532   5.782  20.792  0.00  0.00    +0.000 A 
ATOM     23  C   UNL     1       1.897   4.557  20.219  0.00  0.00    +0.000 A 
ATOM     24  C   UNL     1       2.623   4.586  19.046  0.00  0.00    +0.000 A 
ATOM     25  C   UNL     1       2.980   5.772  18.451  0.00  0.00    +0.000 A 
ATOM     26  C   UNL     1       2.643   6.992  18.994  0.00  0.00    +0.000 A 
ATOM     27  O   UNL     1       3.692   5.584  17.304  0.00  0.00    +0.000 OA
ATOM     28  C   UNL     1       3.745   4.143  17.255  0.00  0.00    +0.000 C 
ATOM     29  O   UNL     1       3.075   3.503  18.361  0.00  0.00    +0.000 OA
ENDBRANCH  20  21
ENDBRANCH   4  20
TORSDOF 4
ENDMDL
MODEL 4
REMARK VINA RESULT:      -7.5      1.071      2.051
REMARK  Name = 
REMARK  5 active torsions:
REMARK  status: ('A' for Active; 'I' for Inactive)
REMARK    1  A    between atoms: C_1  and  C_2
REMARK    2  A    between atoms: C_11  and  C_13
REMARK    3  A    between atoms: C_13  and  N_14
REMARK    4  A    between atoms: N_17  and  C_18
REMARK    5  A    between atoms: C_18  and  C_19
REMARK                            x       y       z     vdW  Elec       q    Type
REMARK                         _______ _______ _______ _____ _____    ______ ____
ROOT
ATOM      1  N   UNL     1       0.379   8.385  20.550  0.00  0.00    +0.000 NA
ATOM      2  C   UNL     1      -0.509   8.478  21.734  0.00  0.00    +0.000 C 
ATOM      3  C   UNL     1      -0.125   9.574  22.768  0.00  0.00    +0.000 C 
ATOM      4  N   UNL     1       0.084  10.929  22.193  0.00  0.00    +0.000 NA
ATOM      5  C   UNL     1       1.008  10.801  21.049  0.00  0.00    +0.000 C 
ATOM      6  C   UNL     1       0.572   9.748  20.001  0.00  0.00    +0.000 C 
ENDROOT
BRANCH   1   7
ATOM      7  C   UNL     1       1.689   7.778  20.885  0.00  0.00    +0.000 C 
BRANCH   7  18
ATOM      8  C   UNL     1       2.288   4.382  21.826  0.00  0.00    +0.000 C 
ATOM      9  C   UNL     1       1.394   4.766  20.643  0.00  0.00    +0.000 C 
ATOM     10  C   UNL     1       0.970   3.509  19.850  0.00  0.00    +0.000 C 
ATOM     11  C   UNL     1       1.938   3.537  18.714  0.00  0.00    +0.000 A 
ATOM     12  C   UNL     1       2.171   2.541  17.776  0.00  0.00    +0.000 A 
ATOM     13  C   UNL     1       3.067   2.804  16.741  0.00  0.00    +0.000 A 
ATOM     14  C   UNL     1       3.704   4.050  16.650  0.00  0.00    +0.000 A 
ATOM     15  C   UNL     1       3.445   5.057  17.590  0.00  0.00    +0.000 A 
ATOM     16  C   UNL     1       2.555   4.787  18.616  0.00  0.00    +0.000 A 
ATOM     17  N   UNL     1       2.116   5.626  19.667  0.00  0.00    +0.000 N 
ATOM     18  C   UNL     1       2.296   6.998  19.704  0.00  0.00    +0.000 C 
ATOM     19  O   UNL     1       2.871   7.637  18.817  0.00  0.00    +0.000 OA
ENDBRANCH   7  18
ENDBRANCH   1   7
BRANCH   4  20
ATOM     20  C   UNL     1      -1.216  11.517  21.815  0.00  0.00    +0.000 C 
BRANCH  20  21
ATOM     21  C   UNL     1      -1.802  12.485  22.825  0.00  0.00    +0.000 A 
ATOM     22  C   UNL     1      -3.096  12.282  23.351  0.00  0.00    +0.000 A 
ATOM     23  C   UNL     1      -3.674  13.210  24.226  0.00  0.00    +0.000 A 
ATOM     24  C   UNL     1      -2.930  14.319  24.571  0.00  0.00    +0.000 A 
ATOM     25  C   UNL     1      -1.662  14.515  24.078  0.00  0.00    +0.000 A 
ATOM     26  C   UNL     1      -1.070  13.626  23.210  0.00  0.00    +0.000 A 
ATOM     27  O   UNL     1      -1.099  15.668  24.539  0.00  0.00    +0.000 OA
ATOM     28  C   UNL     1      -2.165  16.173  25.370  0.00  0.00    +0.000 C 
ATOM     29  O   UNL     1      -3.332  15.326  25.389  0.00  0.00    +0.000 OA
ENDBRANCH  20  21
ENDBRANCH   4  20
TORSDOF 4
ENDMDL
MODEL 5
REMARK VINA RESULT:      -7.4      1.722     10.796
REMARK  Name = 
REMARK  5 active torsions:
REMARK  status: ('A' for Active; 'I' for Inactive)
REMARK    1  A    between atoms: C_1  and  C_2
REMARK    2  A    between atoms: C_11  and  C_13
REMARK    3  A    between atoms: C_13  and  N_14
REMARK    4  A    between atoms: N_17  and  C_18
REMARK    5  A    between atoms: C_18  and  C_19
REMARK                            x       y       z     vdW  Elec       q    Type
REMARK                         _______ _______ _______ _____ _____    ______ ____
ROOT
ATOM      1  N   UNL     1       0.069  11.073  22.332  0.00  0.00    +0.000 NA
ATOM      2  C   UNL     1      -0.023   9.729  22.952  0.00  0.00    +0.000 C 
ATOM      3  C   UNL     1      -0.488   8.590  22.002  0.00  0.00    +0.000 C 
ATOM      4  N   UNL     1       0.263   8.499  20.722  0.00  0.00    +0.000 NA
ATOM      5  C   UNL     1       0.291   9.844  20.114  0.00  0.00    +0.000 C 
ATOM      6  C   UNL     1       0.818  10.952  21.058  0.00  0.00    +0.000 C 
ENDROOT
BRANCH   1   7
ATOM      7  C   UNL     1      -1.268  11.663  22.085  0.00  0.00    +0.000 C 
BRANCH   7  18
ATOM      8  C   UNL     1      -4.002  13.496  20.693  0.00  0.00    +0.000 C 
ATOM      9  C   UNL     1      -3.972  13.042  22.155  0.00  0.00    +0.000 C 
ATOM     10  C   UNL     1      -5.166  13.638  22.935  0.00  0.00    +0.000 C 
ATOM     11  C   UNL     1      -4.521  14.799  23.618  0.00  0.00    +0.000 A 
ATOM     12  C   UNL     1      -5.145  15.829  24.306  0.00  0.00    +0.000 A 
ATOM     13  C   UNL     1      -4.347  16.778  24.943  0.00  0.00    +0.000 A 
ATOM     14  C   UNL     1      -2.950  16.680  24.895  0.00  0.00    +0.000 A 
ATOM     15  C   UNL     1      -2.328  15.623  24.216  0.00  0.00    +0.000 A 
ATOM     16  C   UNL     1      -3.128  14.686  23.584  0.00  0.00    +0.000 A 
ATOM     17  N   UNL     1      -2.755  13.532  22.856  0.00  0.00    +0.000 N 
ATOM     18  C   UNL     1      -1.491  12.966  22.874  0.00  0.00    +0.000 C 
ATOM     19  O   UNL     1      -0.548  13.421  23.530  0.00  0.00    +0.000 OA
ENDBRANCH   7  18
ENDBRANCH   1   7
BRANCH   4  20
ATOM     20  C   UNL     1       1.612   7.955  20.971  0.00  0.00    +0.000 C 
BRANCH  20  21
ATOM     21  C   UNL     1       1.988   6.752  20.126  0.00  0.00    +0.000 A 
ATOM     22  C   UNL     1       2.572   6.921  18.853  0.00  0.00    +0.000 A 
ATOM     23  C   UNL     1       2.854   5.819  18.035  0.00  0.00    +0.000 A 
ATOM     24  C   UNL     1       2.557   4.563  18.524  0.00  0.00    +0.000 A 
ATOM     25  C   UNL     1       2.005   4.390  19.771  0.00  0.00    +0.000 A 
ATOM     26  C   UNL     1       1.710   5.453  20.594  0.00  0.00    +0.000 A 
ATOM     27  O   UNL     1       1.789   3.076  20.063  0.00  0.00    +0.000 OA
ATOM     28  C   UNL     1       2.262   2.450  18.853  0.00  0.00    +0.000 C 
ATOM     29  O   UNL     1       2.744   3.388  17.869  0.00  0.00    +0.000 OA
ENDBRANCH  20  21
ENDBRANCH   4  20
TORSDOF 4
ENDMDL
MODEL 6
REMARK VINA RESULT:      -7.4      0.714      1.291
REMARK  Name = 
REMARK  5 active torsions:
REMARK  status: ('A' for Active; 'I' for Inactive)
REMARK    1  A    between atoms: C_1  and  C_2
REMARK    2  A    between atoms: C_11  and  C_13
REMARK    3  A    between atoms: C_13  and  N_14
REMARK    4  A    between atoms: N_17  and  C_18
REMARK    5  A    between atoms: C_18  and  C_19
REMARK                            x       y       z     vdW  Elec       q    Type
REMARK                         _______ _______ _______ _____ _____    ______ ____
ROOT
ATOM      1  N   UNL     1       0.118   8.755  20.885  0.00  0.00    +0.000 NA
ATOM      2  C   UNL     1      -0.656   8.726  22.149  0.00  0.00    +0.000 C 
ATOM      3  C   UNL     1      -0.267   9.812  23.192  0.00  0.00    +0.000 C 
ATOM      4  N   UNL     1      -0.228  11.200  22.661  0.00  0.00    +0.000 NA
ATOM      5  C   UNL     1       0.590  11.195  21.432  0.00  0.00    +0.000 C 
ATOM      6  C   UNL     1       0.144  10.149  20.382  0.00  0.00    +0.000 C 
ENDROOT
BRANCH   1   7
ATOM      7  C   UNL     1       1.500   8.252  21.068  0.00  0.00    +0.000 C 
BRANCH   7  18
ATOM      8  C   UNL     1       1.858   8.499  17.521  0.00  0.00    +0.000 C 
ATOM      9  C   UNL     1       2.927   7.866  18.416  0.00  0.00    +0.000 C 
ATOM     10  C   UNL     1       4.039   7.216  17.562  0.00  0.00    +0.000 C 
ATOM     11  C   UNL     1       3.627   5.780  17.585  0.00  0.00    +0.000 A 
ATOM     12  C   UNL     1       4.138   4.742  16.821  0.00  0.00    +0.000 A 
ATOM     13  C   UNL     1       3.664   3.452  17.058  0.00  0.00    +0.000 A 
ATOM     14  C   UNL     1       2.706   3.217  18.053  0.00  0.00    +0.000 A 
ATOM     15  C   UNL     1       2.213   4.270  18.835  0.00  0.00    +0.000 A 
ATOM     16  C   UNL     1       2.686   5.548  18.592  0.00  0.00    +0.000 A 
ATOM     17  N   UNL     1       2.366   6.764  19.243  0.00  0.00    +0.000 N 
ATOM     18  C   UNL     1       1.704   6.854  20.456  0.00  0.00    +0.000 C 
ATOM     19  O   UNL     1       1.315   5.872  21.097  0.00  0.00    +0.000 OA
ENDBRANCH   7  18
ENDBRANCH   1   7
BRANCH   4  20
ATOM     20  C   UNL     1      -1.602  11.687  22.433  0.00  0.00    +0.000 C 
BRANCH  20  21
ATOM     21  C   UNL     1      -1.901  13.061  23.002  0.00  0.00    +0.000 A 
ATOM     22  C   UNL     1      -0.860  13.985  23.239  0.00  0.00    +0.000 A 
ATOM     23  C   UNL     1      -1.118  15.227  23.833  0.00  0.00    +0.000 A 
ATOM     24  C   UNL     1      -2.424  15.524  24.162  0.00  0.00    +0.000 A 
ATOM     25  C   UNL     1      -3.446  14.638  23.917  0.00  0.00    +0.000 A 
ATOM     26  C   UNL     1      -3.223  13.407  23.342  0.00  0.00    +0.000 A 
ATOM     27  O   UNL     1      -4.657  15.121  24.315  0.00  0.00    +0.000 OA
ATOM     28  C   UNL     1      -4.273  16.406  24.843  0.00  0.00    +0.000 C 
ATOM     29  O   UNL     1      -2.857  16.666  24.756  0.00  0.00    +0.000 OA
ENDBRANCH  20  21
ENDBRANCH   4  20
TORSDOF 4
ENDMDL
MODEL 7
REMARK VINA RESULT:      -7.4      2.799     10.232
REMARK  Name = 
REMARK  5 active torsions:
REMARK  status: ('A' for Active; 'I' for Inactive)
REMARK    1  A    between atoms: C_1  and  C_2
REMARK    2  A    between atoms: C_11  and  C_13
REMARK    3  A    between atoms: C_13  and  N_14
REMARK    4  A    between atoms: N_17  and  C_18
REMARK    5  A    between atoms: C_18  and  C_19
REMARK                            x       y       z     vdW  Elec       q    Type
REMARK                         _______ _______ _______ _____ _____    ______ ____
ROOT
ATOM      1  N   UNL     1      -1.178  12.297  18.834  0.00  0.00    +0.000 NA
ATOM      2  C   UNL     1       0.264  12.524  18.573  0.00  0.00    +0.000 C 
ATOM      3  C   UNL     1       1.238  11.751  19.506  0.00  0.00    +0.000 C 
ATOM      4  N   UNL     1       0.974  10.292  19.613  0.00  0.00    +0.000 NA
ATOM      5  C   UNL     1      -0.459  10.110  19.920  0.00  0.00    +0.000 C 
ATOM      6  C   UNL     1      -1.411  10.837  18.940  0.00  0.00    +0.000 C 
ENDROOT
BRANCH   1   7
ATOM      7  C   UNL     1      -1.632  12.979  20.069  0.00  0.00    +0.000 C 
BRANCH   7  18
ATOM      8  C   UNL     1      -2.144  11.534  23.298  0.00  0.00    +0.000 C 
ATOM      9  C   UNL     1      -2.760  12.874  22.886  0.00  0.00    +0.000 C 
ATOM     10  C   UNL     1      -3.741  13.379  23.969  0.00  0.00    +0.000 C 
ATOM     11  C   UNL     1      -5.055  12.964  23.393  0.00  0.00    +0.000 A 
ATOM     12  C   UNL     1      -6.293  12.974  24.018  0.00  0.00    +0.000 A 
ATOM     13  C   UNL     1      -7.414  12.619  23.270  0.00  0.00    +0.000 A 
ATOM     14  C   UNL     1      -7.287  12.274  21.918  0.00  0.00    +0.000 A 
ATOM     15  C   UNL     1      -6.035  12.288  21.289  0.00  0.00    +0.000 A 
ATOM     16  C   UNL     1      -4.926  12.639  22.040  0.00  0.00    +0.000 A 
ATOM     17  N   UNL     1      -3.571  12.746  21.646  0.00  0.00    +0.000 N 
ATOM     18  C   UNL     1      -3.136  12.782  20.331  0.00  0.00    +0.000 C 
ATOM     19  O   UNL     1      -3.895  12.716  19.358  0.00  0.00    +0.000 OA
ENDBRANCH   7  18
ENDBRANCH   1   7
BRANCH   4  20
ATOM     20  C   UNL     1       1.382   9.617  18.366  0.00  0.00    +0.000 C 
BRANCH  20  21
ATOM     21  C   UNL     1       2.107   8.298  18.556  0.00  0.00    +0.000 A 
ATOM     22  C   UNL     1       1.929   7.541  19.733  0.00  0.00    +0.000 A 
ATOM     23  C   UNL     1       2.650   6.360  19.949  0.00  0.00    +0.000 A 
ATOM     24  C   UNL     1       3.528   5.953  18.964  0.00  0.00    +0.000 A 
ATOM     25  C   UNL     1       3.693   6.675  17.807  0.00  0.00    +0.000 A 
ATOM     26  C   UNL     1       3.004   7.843  17.569  0.00  0.00    +0.000 A 
ATOM     27  O   UNL     1       4.603   6.105  16.966  0.00  0.00    +0.000 OA
ATOM     28  C   UNL     1       4.992   4.949  17.735  0.00  0.00    +0.000 C 
ATOM     29  O   UNL     1       4.319   4.850  19.008  0.00  0.00    +0.000 OA
ENDBRANCH  20  21
ENDBRANCH   4  20
TORSDOF 4
ENDMDL
MODEL 8
REMARK VINA RESULT:      -7.4      2.570     10.446
REMARK  Name = 
REMARK  5 active torsions:
REMARK  status: ('A' for Active; 'I' for Inactive)
REMARK    1  A    between atoms: C_1  and  C_2
REMARK    2  A    between atoms: C_11  and  C_13
REMARK    3  A    between atoms: C_13  and  N_14
REMARK    4  A    between atoms: N_17  and  C_18
REMARK    5  A    between atoms: C_18  and  C_19
REMARK                            x       y       z     vdW  Elec       q    Type
REMARK                         _______ _______ _______ _____ _____    ______ ____
ROOT
ATOM      1  N   UNL     1      -0.268   9.767  20.188  0.00  0.00    +0.000 NA
ATOM      2  C   UNL     1       0.256   9.895  18.806  0.00  0.00    +0.000 C 
ATOM      3  C   UNL     1       1.777   9.613  18.644  0.00  0.00    +0.000 C 
ATOM      4  N   UNL     1       2.241   8.331  19.238  0.00  0.00    +0.000 NA
ATOM      5  C   UNL     1       1.740   8.264  20.625  0.00  0.00    +0.000 C 
ATOM      6  C   UNL     1       0.213   8.484  20.755  0.00  0.00    +0.000 C 
ENDROOT
BRANCH   1   7
ATOM      7  C   UNL     1       0.154  10.897  21.048  0.00  0.00    +0.000 C 
BRANCH   7  18
ATOM      8  C   UNL     1      -1.557  13.886  20.092  0.00  0.00    +0.000 C 
ATOM      9  C   UNL     1      -2.286  12.562  20.344  0.00  0.00    +0.000 C 
ATOM     10  C   UNL     1      -3.817  12.767  20.306  0.00  0.00    +0.000 C 
ATOM     11  C   UNL     1      -4.139  12.852  21.762  0.00  0.00    +0.000 A 
ATOM     12  C   UNL     1      -5.342  13.232  22.341  0.00  0.00    +0.000 A 
ATOM     13  C   UNL     1      -5.457  13.165  23.729  0.00  0.00    +0.000 A 
ATOM     14  C   UNL     1      -4.386  12.713  24.511  0.00  0.00    +0.000 A 
ATOM     15  C   UNL     1      -3.183  12.310  23.914  0.00  0.00    +0.000 A 
ATOM     16  C   UNL     1      -3.075  12.382  22.536  0.00  0.00    +0.000 A 
ATOM     17  N   UNL     1      -1.991  12.025  21.700  0.00  0.00    +0.000 N 
ATOM     18  C   UNL     1      -0.907  11.263  22.102  0.00  0.00    +0.000 C 
ATOM     19  O   UNL     1      -0.771  10.817  23.246  0.00  0.00    +0.000 OA
ENDBRANCH   7  18
ENDBRANCH   1   7
BRANCH   4  20
ATOM     20  C   UNL     1       1.782   7.201  18.408  0.00  0.00    +0.000 C 
BRANCH  20  21
ATOM     21  C   UNL     1       2.887   6.345  17.818  0.00  0.00    +0.000 A 
ATOM     22  C   UNL     1       2.764   4.940  17.774  0.00  0.00    +0.000 A 
ATOM     23  C   UNL     1       3.810   4.138  17.299  0.00  0.00    +0.000 A 
ATOM     24  C   UNL     1       4.957   4.768  16.861  0.00  0.00    +0.000 A 
ATOM     25  C   UNL     1       5.077   6.137  16.884  0.00  0.00    +0.000 A 
ATOM     26  C   UNL     1       4.070   6.951  17.351  0.00  0.00    +0.000 A 
ATOM     27  O   UNL     1       6.284   6.559  16.410  0.00  0.00    +0.000 OA
ATOM     28  C   UNL     1       6.905   5.296  16.096  0.00  0.00    +0.000 C 
ATOM     29  O   UNL     1       6.072   4.155  16.387  0.00  0.00    +0.000 OA
ENDBRANCH  20  21
ENDBRANCH   4  20
TORSDOF 4
ENDMDL
MODEL 9
REMARK VINA RESULT:      -7.4      2.701     10.095
REMARK  Name = 
REMARK  5 active torsions:
REMARK  status: ('A' for Active; 'I' for Inactive)
REMARK    1  A    between atoms: C_1  and  C_2
REMARK    2  A    between atoms: C_11  and  C_13
REMARK    3  A    between atoms: C_13  and  N_14
REMARK    4  A    between atoms: N_17  and  C_18
REMARK    5  A    between atoms: C_18  and  C_19
REMARK                            x       y       z     vdW  Elec       q    Type
REMARK                         _______ _______ _______ _____ _____    ______ ____
ROOT
ATOM      1  N   UNL     1      -1.224  12.333  18.815  0.00  0.00    +0.000 NA
ATOM      2  C   UNL     1       0.215  12.593  18.568  0.00  0.00    +0.000 C 
ATOM      3  C   UNL     1       1.197  11.842  19.511  0.00  0.00    +0.000 C 
ATOM      4  N   UNL     1       0.965  10.378  19.615  0.00  0.00    +0.000 NA
ATOM      5  C   UNL     1      -0.465  10.163  19.908  0.00  0.00    +0.000 C 
ATOM      6  C   UNL     1      -1.424  10.868  18.918  0.00  0.00    +0.000 C 
ENDROOT
BRANCH   1   7
ATOM      7  C   UNL     1      -1.706  13.003  20.045  0.00  0.00    +0.000 C 
BRANCH   7  18
ATOM      8  C   UNL     1      -2.222  11.616  23.298  0.00  0.00    +0.000 C 
ATOM      9  C   UNL     1      -2.868  12.930  22.849  0.00  0.00    +0.000 C 
ATOM     10  C   UNL     1      -3.876  13.431  23.908  0.00  0.00    +0.000 C 
ATOM     11  C   UNL     1      -5.171  12.967  23.325  0.00  0.00    +0.000 A 
ATOM     12  C   UNL     1      -6.417  12.958  23.934  0.00  0.00    +0.000 A 
ATOM     13  C   UNL     1      -7.518  12.556  23.179  0.00  0.00    +0.000 A 
ATOM     14  C   UNL     1      -7.364  12.185  21.837  0.00  0.00    +0.000 A 
ATOM     15  C   UNL     1      -6.104  12.220  21.224  0.00  0.00    +0.000 A 
ATOM     16  C   UNL     1      -5.015  12.617  21.981  0.00  0.00    +0.000 A 
ATOM     17  N   UNL     1      -3.659  12.753  21.602  0.00  0.00    +0.000 N 
ATOM     18  C   UNL     1      -3.208  12.771  20.292  0.00  0.00    +0.000 C 
ATOM     19  O   UNL     1      -3.951  12.664  19.311  0.00  0.00    +0.000 OA
ENDBRANCH   7  18
ENDBRANCH   1   7
BRANCH   4  20
ATOM     20  C   UNL     1       1.402   9.713  18.372  0.00  0.00    +0.000 C 
BRANCH  20  21
ATOM     21  C   UNL     1       2.113   8.387  18.567  0.00  0.00    +0.000 A 
ATOM     22  C   UNL     1       3.078   7.944  17.637  0.00  0.00    +0.000 A 
ATOM     23  C   UNL     1       3.685   6.689  17.768  0.00  0.00    +0.000 A 
ATOM     24  C   UNL     1       3.321   5.907  18.846  0.00  0.00    +0.000 A 
ATOM     25  C   UNL     1       2.395   6.339  19.766  0.00  0.00    +0.000 A 
ATOM     26  C   UNL     1       1.776   7.564  19.659  0.00  0.00    +0.000 A 
ATOM     27  O   UNL     1       2.176   5.422  20.750  0.00  0.00    +0.000 OA
ATOM     28  C   UNL     1       3.065   4.365  20.335  0.00  0.00    +0.000 C 
ATOM     29  O   UNL     1       3.789   4.663  19.123  0.00  0.00    +0.000 OA
ENDBRANCH  20  21
ENDBRANCH   4  20
TORSDOF 4
ENDMDL
