MODEL 1
REMARK VINA RESULT:      -7.7      0.000      0.000
REMARK  Name = 
REMARK  6 active torsions:
REMARK  status: ('A' for Active; 'I' for Inactive)
REMARK    1  A    between atoms: C_1  and  C_2
REMARK    2  A    between atoms: C_7  and  C_8
REMARK    3  A    between atoms: N_9  and  N_10
REMARK    4  A    between atoms: C_11  and  C_13
REMARK    5  A    between atoms: C_16  and  O_17
REMARK    6  A    between atoms: C_18  and  O_19
REMARK                            x       y       z     vdW  Elec       q    Type
REMARK                         _______ _______ _______ _____ _____    ______ ____
ROOT
ATOM      1  N   UNL     1       4.994   5.916  18.637  0.00  0.00    +0.000 N 
ATOM      2  C   UNL     1       5.934   5.024  18.162  0.00  0.00    +0.000 C 
ATOM      3  O   UNL     1       6.659   4.436  18.970  0.00  0.00    +0.000 OA
ATOM      4  H   UNL     1       4.945   6.006  19.646  0.00  0.00    +0.000 HD
ENDROOT
BRANCH   2   5
ATOM      5  C   UNL     1       6.123   4.767  16.702  0.00  0.00    +0.000 A 
ATOM      6  C   UNL     1       5.311   3.775  16.119  0.00  0.00    +0.000 A 
ATOM      7  C   UNL     1       5.427   3.442  14.766  0.00  0.00    +0.000 A 
ATOM      8  C   UNL     1       6.371   4.101  13.991  0.00  0.00    +0.000 A 
ATOM      9  C   UNL     1       7.200   5.060  14.566  0.00  0.00    +0.000 A 
ATOM     10  C   UNL     1       7.093   5.393  15.912  0.00  0.00    +0.000 A 
BRANCH   8  11
ATOM     11  O   UNL     1       6.532   3.828  12.662  0.00  0.00    +0.000 OA
ATOM     12  H   UNL     1       7.023   2.991  12.583  0.00  0.00    +0.000 HD
ENDBRANCH   8  11
BRANCH   9  13
ATOM     13  O   UNL     1       8.144   5.681  13.794  0.00  0.00    +0.000 OA
ATOM     14  H   UNL     1       8.966   5.176  13.959  0.00  0.00    +0.000 HD
ENDBRANCH   9  13
ENDBRANCH   2   5
BRANCH   1  16
ATOM     15  C   UNL     1       2.855   5.960  17.852  0.00  0.00    +0.000 C 
ATOM     16  N   UNL     1       4.037   6.496  17.891  0.00  0.00    +0.000 NA
BRANCH  15  23
ATOM     17  C   UNL     1       1.734   6.182  20.805  0.00  0.00    +0.000 C 
ATOM     18  C   UNL     1       1.674   4.961  19.929  0.00  0.00    +0.000 A 
ATOM     19  C   UNL     1       0.989   3.844  20.451  0.00  0.00    +0.000 A 
ATOM     20  C   UNL     1       0.811   2.681  19.704  0.00  0.00    +0.000 A 
ATOM     21  C   UNL     1       1.340   2.597  18.424  0.00  0.00    +0.000 A 
ATOM     22  C   UNL     1       2.043   3.679  17.894  0.00  0.00    +0.000 A 
ATOM     23  C   UNL     1       2.223   4.863  18.634  0.00  0.00    +0.000 A 
ENDBRANCH  15  23
ENDBRANCH   1  16
TORSDOF 5
ENDMDL
MODEL 2
REMARK VINA RESULT:      -7.4      0.649      1.678
REMARK  Name = 
REMARK  6 active torsions:
REMARK  status: ('A' for Active; 'I' for Inactive)
REMARK    1  A    between atoms: C_1  and  C_2
REMARK    2  A    between atoms: C_7  and  C_8
REMARK    3  A    between atoms: N_9  and  N_10
REMARK    4  A    between atoms: C_11  and  C_13
REMARK    5  A    between atoms: C_16  and  O_17
REMARK    6  A    between atoms: C_18  and  O_19
REMARK                            x       y       z     vdW  Elec       q    Type
REMARK                         _______ _______ _______ _____ _____    ______ ____
ROOT
ATOM      1  N   UNL     1       4.914   5.610  18.446  0.00  0.00    +0.000 N 
ATOM      2  C   UNL     1       5.977   4.888  17.945  0.00  0.00    +0.000 C 
ATOM      3  O   UNL     1       6.793   4.403  18.735  0.00  0.00    +0.000 OA
ATOM      4  H   UNL     1       4.860   5.669  19.458  0.00  0.00    +0.000 HD
ENDROOT
BRANCH   2   5
ATOM      5  C   UNL     1       6.191   4.697  16.479  0.00  0.00    +0.000 A 
ATOM      6  C   UNL     1       5.386   3.736  15.836  0.00  0.00    +0.000 A 
ATOM      7  C   UNL     1       5.525   3.465  14.472  0.00  0.00    +0.000 A 
ATOM      8  C   UNL     1       6.485   4.155  13.745  0.00  0.00    +0.000 A 
ATOM      9  C   UNL     1       7.307   5.083  14.377  0.00  0.00    +0.000 A 
ATOM     10  C   UNL     1       7.178   5.354  15.735  0.00  0.00    +0.000 A 
BRANCH   8  11
ATOM     11  O   UNL     1       6.669   3.942  12.407  0.00  0.00    +0.000 OA
ATOM     12  H   UNL     1       7.364   3.270  12.302  0.00  0.00    +0.000 HD
ENDBRANCH   8  11
BRANCH   9  13
ATOM     13  O   UNL     1       8.266   5.734  13.652  0.00  0.00    +0.000 OA
ATOM     14  H   UNL     1       7.870   5.843  12.763  0.00  0.00    +0.000 HD
ENDBRANCH   9  13
ENDBRANCH   2   5
BRANCH   1  16
ATOM     15  C   UNL     1       2.713   5.479  17.866  0.00  0.00    +0.000 C 
ATOM     16  N   UNL     1       3.871   6.050  17.719  0.00  0.00    +0.000 NA
BRANCH  15  23
ATOM     17  C   UNL     1       2.561   2.344  17.443  0.00  0.00    +0.000 C 
ATOM     18  C   UNL     1       2.175   3.085  18.694  0.00  0.00    +0.000 A 
ATOM     19  C   UNL     1       1.782   2.297  19.796  0.00  0.00    +0.000 A 
ATOM     20  C   UNL     1       1.467   2.869  21.027  0.00  0.00    +0.000 A 
ATOM     21  C   UNL     1       1.510   4.248  21.178  0.00  0.00    +0.000 A 
ATOM     22  C   UNL     1       1.872   5.051  20.095  0.00  0.00    +0.000 A 
ATOM     23  C   UNL     1       2.201   4.486  18.848  0.00  0.00    +0.000 A 
ENDBRANCH  15  23
ENDBRANCH   1  16
TORSDOF 5
ENDMDL
MODEL 3
REMARK VINA RESULT:      -7.1      2.085      3.288
REMARK  Name = 
REMARK  6 active torsions:
REMARK  status: ('A' for Active; 'I' for Inactive)
REMARK    1  A    between atoms: C_1  and  C_2
REMARK    2  A    between atoms: C_7  and  C_8
REMARK    3  A    between atoms: N_9  and  N_10
REMARK    4  A    between atoms: C_11  and  C_13
REMARK    5  A    between atoms: C_16  and  O_17
REMARK    6  A    between atoms: C_18  and  O_19
REMARK                            x       y       z     vdW  Elec       q    Type
REMARK                         _______ _______ _______ _____ _____    ______ ____
ROOT
ATOM      1  N   UNL     1       3.202   2.070  18.916  0.00  0.00    +0.000 N 
ATOM      2  C   UNL     1       4.451   2.574  19.217  0.00  0.00    +0.000 C 
ATOM      3  O   UNL     1       5.060   2.116  20.189  0.00  0.00    +0.000 OA
ATOM      4  H   UNL     1       2.877   1.317  19.514  0.00  0.00    +0.000 HD
ENDROOT
BRANCH   2   5
ATOM      5  C   UNL     1       5.079   3.675  18.425  0.00  0.00    +0.000 A 
ATOM      6  C   UNL     1       5.524   4.803  19.142  0.00  0.00    +0.000 A 
ATOM      7  C   UNL     1       6.103   5.897  18.492  0.00  0.00    +0.000 A 
ATOM      8  C   UNL     1       6.229   5.866  17.110  0.00  0.00    +0.000 A 
ATOM      9  C   UNL     1       5.762   4.771  16.390  0.00  0.00    +0.000 A 
ATOM     10  C   UNL     1       5.181   3.681  17.030  0.00  0.00    +0.000 A 
BRANCH   8  11
ATOM     11  O   UNL     1       6.791   6.900  16.414  0.00  0.00    +0.000 OA
ATOM     12  H   UNL     1       6.092   7.321  15.883  0.00  0.00    +0.000 HD
ENDBRANCH   8  11
BRANCH   9  13
ATOM     13  O   UNL     1       5.869   4.769  15.027  0.00  0.00    +0.000 OA
ATOM     14  H   UNL     1       6.733   5.194  14.848  0.00  0.00    +0.000 HD
ENDBRANCH   9  13
ENDBRANCH   2   5
BRANCH   1  16
ATOM     15  C   UNL     1       1.846   3.473  17.739  0.00  0.00    +0.000 C 
ATOM     16  N   UNL     1       2.505   2.356  17.802  0.00  0.00    +0.000 NA
BRANCH  15  23
ATOM     17  C   UNL     1       1.079   3.523  20.811  0.00  0.00    +0.000 C 
ATOM     18  C   UNL     1       1.530   4.703  19.996  0.00  0.00    +0.000 A 
ATOM     19  C   UNL     1       1.695   5.921  20.689  0.00  0.00    +0.000 A 
ATOM     20  C   UNL     1       2.173   7.065  20.053  0.00  0.00    +0.000 A 
ATOM     21  C   UNL     1       2.472   7.026  18.698  0.00  0.00    +0.000 A 
ATOM     22  C   UNL     1       2.293   5.840  17.984  0.00  0.00    +0.000 A 
ATOM     23  C   UNL     1       1.819   4.675  18.616  0.00  0.00    +0.000 A 
ENDBRANCH  15  23
ENDBRANCH   1  16
TORSDOF 5
ENDMDL
MODEL 4
REMARK VINA RESULT:      -6.9      1.511      2.279
REMARK  Name = 
REMARK  6 active torsions:
REMARK  status: ('A' for Active; 'I' for Inactive)
REMARK    1  A    between atoms: C_1  and  C_2
REMARK    2  A    between atoms: C_7  and  C_8
REMARK    3  A    between atoms: N_9  and  N_10
REMARK    4  A    between atoms: C_11  and  C_13
REMARK    5  A    between atoms: C_16  and  O_17
REMARK    6  A    between atoms: C_18  and  O_19
REMARK                            x       y       z     vdW  Elec       q    Type
REMARK                         _______ _______ _______ _____ _____    ______ ____
ROOT
ATOM      1  N   UNL     1       5.118   5.411  18.937  0.00  0.00    +0.000 N 
ATOM      2  C   UNL     1       5.203   6.100  17.744  0.00  0.00    +0.000 C 
ATOM      3  O   UNL     1       4.898   7.296  17.725  0.00  0.00    +0.000 OA
ATOM      4  H   UNL     1       4.831   5.959  19.741  0.00  0.00    +0.000 HD
ENDROOT
BRANCH   2   5
ATOM      5  C   UNL     1       5.623   5.441  16.470  0.00  0.00    +0.000 A 
ATOM      6  C   UNL     1       4.844   4.354  16.028  0.00  0.00    +0.000 A 
ATOM      7  C   UNL     1       5.167   3.655  14.861  0.00  0.00    +0.000 A 
ATOM      8  C   UNL     1       6.285   4.041  14.135  0.00  0.00    +0.000 A 
ATOM      9  C   UNL     1       7.079   5.093  14.582  0.00  0.00    +0.000 A 
ATOM     10  C   UNL     1       6.766   5.790  15.744  0.00  0.00    +0.000 A 
BRANCH   8  11
ATOM     11  O   UNL     1       6.653   3.404  12.983  0.00  0.00    +0.000 OA
ATOM     12  H   UNL     1       6.060   3.701  12.272  0.00  0.00    +0.000 HD
ENDBRANCH   8  11
BRANCH   9  13
ATOM     13  O   UNL     1       8.192   5.444  13.869  0.00  0.00    +0.000 OA
ATOM     14  H   UNL     1       7.960   6.300  13.456  0.00  0.00    +0.000 HD
ENDBRANCH   9  13
ENDBRANCH   2   5
BRANCH   1  16
ATOM     15  C   UNL     1       4.739   3.240  19.521  0.00  0.00    +0.000 C 
ATOM     16  N   UNL     1       5.571   4.161  19.137  0.00  0.00    +0.000 NA
BRANCH  15  23
ATOM     17  C   UNL     1       2.716   2.142  17.346  0.00  0.00    +0.000 C 
ATOM     18  C   UNL     1       2.347   2.681  18.701  0.00  0.00    +0.000 A 
ATOM     19  C   UNL     1       0.983   2.617  19.053  0.00  0.00    +0.000 A 
ATOM     20  C   UNL     1       0.532   3.024  20.307  0.00  0.00    +0.000 A 
ATOM     21  C   UNL     1       1.434   3.532  21.232  0.00  0.00    +0.000 A 
ATOM     22  C   UNL     1       2.786   3.628  20.898  0.00  0.00    +0.000 A 
ATOM     23  C   UNL     1       3.256   3.213  19.638  0.00  0.00    +0.000 A 
ENDBRANCH  15  23
ENDBRANCH   1  16
TORSDOF 5
ENDMDL
MODEL 5
REMARK VINA RESULT:      -6.9      1.541      1.762
REMARK  Name = 
REMARK  6 active torsions:
REMARK  status: ('A' for Active; 'I' for Inactive)
REMARK    1  A    between atoms: C_1  and  C_2
REMARK    2  A    between atoms: C_7  and  C_8
REMARK    3  A    between atoms: N_9  and  N_10
REMARK    4  A    between atoms: C_11  and  C_13
REMARK    5  A    between atoms: C_16  and  O_17
REMARK    6  A    between atoms: C_18  and  O_19
REMARK                            x       y       z     vdW  Elec       q    Type
REMARK                         _______ _______ _______ _____ _____    ______ ____
ROOT
ATOM      1  N   UNL     1       4.663   5.770  18.965  0.00  0.00    +0.000 N 
ATOM      2  C   UNL     1       4.617   6.283  17.685  0.00  0.00    +0.000 C 
ATOM      3  O   UNL     1       4.042   7.359  17.495  0.00  0.00    +0.000 OA
ATOM      4  H   UNL     1       4.235   6.345  19.684  0.00  0.00    +0.000 HD
ENDROOT
BRANCH   2   5
ATOM      5  C   UNL     1       5.212   5.566  16.517  0.00  0.00    +0.000 A 
ATOM      6  C   UNL     1       4.526   4.429  16.049  0.00  0.00    +0.000 A 
ATOM      7  C   UNL     1       5.013   3.674  14.977  0.00  0.00    +0.000 A 
ATOM      8  C   UNL     1       6.203   4.056  14.374  0.00  0.00    +0.000 A 
ATOM      9  C   UNL     1       6.905   5.159  14.850  0.00  0.00    +0.000 A 
ATOM     10  C   UNL     1       6.429   5.912  15.918  0.00  0.00    +0.000 A 
BRANCH   8  11
ATOM     11  O   UNL     1       6.731   3.366  13.319  0.00  0.00    +0.000 OA
ATOM     12  H   UNL     1       6.004   2.901  12.869  0.00  0.00    +0.000 HD
ENDBRANCH   8  11
BRANCH   9  13
ATOM     13  O   UNL     1       8.090   5.506  14.261  0.00  0.00    +0.000 OA
ATOM     14  H   UNL     1       7.830   5.917  13.411  0.00  0.00    +0.000 HD
ENDBRANCH   9  13
ENDBRANCH   2   5
BRANCH   1  16
ATOM     15  C   UNL     1       4.779   3.597  19.642  0.00  0.00    +0.000 C 
ATOM     16  N   UNL     1       5.390   4.703  19.341  0.00  0.00    +0.000 NA
BRANCH  15  23
ATOM     17  C   UNL     1       2.314   4.650  21.329  0.00  0.00    +0.000 C 
ATOM     18  C   UNL     1       2.251   3.656  20.203  0.00  0.00    +0.000 A 
ATOM     19  C   UNL     1       0.966   3.216  19.822  0.00  0.00    +0.000 A 
ATOM     20  C   UNL     1       0.779   2.348  18.748  0.00  0.00    +0.000 A 
ATOM     21  C   UNL     1       1.877   1.875  18.045  0.00  0.00    +0.000 A 
ATOM     22  C   UNL     1       3.161   2.276  18.417  0.00  0.00    +0.000 A 
ATOM     23  C   UNL     1       3.365   3.158  19.495  0.00  0.00    +0.000 A 
ENDBRANCH  15  23
ENDBRANCH   1  16
TORSDOF 5
ENDMDL
MODEL 6
REMARK VINA RESULT:      -6.9      2.144      3.767
REMARK  Name = 
REMARK  6 active torsions:
REMARK  status: ('A' for Active; 'I' for Inactive)
REMARK    1  A    between atoms: C_1  and  C_2
REMARK    2  A    between atoms: C_7  and  C_8
REMARK    3  A    between atoms: N_9  and  N_10
REMARK    4  A    between atoms: C_11  and  C_13
REMARK    5  A    between atoms: C_16  and  O_17
REMARK    6  A    between atoms: C_18  and  O_19
REMARK                            x       y       z     vdW  Elec       q    Type
REMARK                         _______ _______ _______ _____ _____    ______ ____
ROOT
ATOM      1  N   UNL     1       3.428   4.838  17.244  0.00  0.00    +0.000 N 
ATOM      2  C   UNL     1       4.764   4.569  17.028  0.00  0.00    +0.000 C 
ATOM      3  O   UNL     1       5.069   3.598  16.328  0.00  0.00    +0.000 OA
ATOM      4  H   UNL     1       2.773   4.221  16.776  0.00  0.00    +0.000 HD
ENDROOT
BRANCH   2   5
ATOM      5  C   UNL     1       5.853   5.393  17.635  0.00  0.00    +0.000 A 
ATOM      6  C   UNL     1       6.272   6.527  16.913  0.00  0.00    +0.000 A 
ATOM      7  C   UNL     1       7.300   7.350  17.382  0.00  0.00    +0.000 A 
ATOM      8  C   UNL     1       7.922   7.029  18.581  0.00  0.00    +0.000 A 
ATOM      9  C   UNL     1       7.537   5.893  19.285  0.00  0.00    +0.000 A 
ATOM     10  C   UNL     1       6.518   5.067  18.822  0.00  0.00    +0.000 A 
BRANCH   8  11
ATOM     11  O   UNL     1       8.929   7.795  19.099  0.00  0.00    +0.000 OA
ATOM     12  H   UNL     1       9.599   7.197  19.474  0.00  0.00    +0.000 HD
ENDBRANCH   8  11
BRANCH   9  13
ATOM     13  O   UNL     1       8.178   5.576  20.451  0.00  0.00    +0.000 OA
ATOM     14  H   UNL     1       8.562   4.691  20.287  0.00  0.00    +0.000 HD
ENDBRANCH   9  13
ENDBRANCH   2   5
BRANCH   1  16
ATOM     15  C   UNL     1       2.215   5.824  18.903  0.00  0.00    +0.000 C 
ATOM     16  N   UNL     1       2.954   5.946  17.842  0.00  0.00    +0.000 NA
BRANCH  15  23
ATOM     17  C   UNL     1       0.713   3.188  17.997  0.00  0.00    +0.000 C 
ATOM     18  C   UNL     1       1.266   3.460  19.369  0.00  0.00    +0.000 A 
ATOM     19  C   UNL     1       1.167   2.411  20.307  0.00  0.00    +0.000 A 
ATOM     20  C   UNL     1       1.704   2.524  21.588  0.00  0.00    +0.000 A 
ATOM     21  C   UNL     1       2.330   3.702  21.972  0.00  0.00    +0.000 A 
ATOM     22  C   UNL     1       2.418   4.763  21.070  0.00  0.00    +0.000 A 
ATOM     23  C   UNL     1       1.887   4.660  19.770  0.00  0.00    +0.000 A 
ENDBRANCH  15  23
ENDBRANCH   1  16
TORSDOF 5
ENDMDL
MODEL 7
REMARK VINA RESULT:      -6.9      2.195      3.402
REMARK  Name = 
REMARK  6 active torsions:
REMARK  status: ('A' for Active; 'I' for Inactive)
REMARK    1  A    between atoms: C_1  and  C_2
REMARK    2  A    between atoms: C_7  and  C_8
REMARK    3  A    between atoms: N_9  and  N_10
REMARK    4  A    between atoms: C_11  and  C_13
REMARK    5  A    between atoms: C_16  and  O_17
REMARK    6  A    between atoms: C_18  and  O_19
REMARK                            x       y       z     vdW  Elec       q    Type
REMARK                         _______ _______ _______ _____ _____    ______ ____
ROOT
ATOM      1  N   UNL     1       1.770   5.016  17.525  0.00  0.00    +0.000 N 
ATOM      2  C   UNL     1       2.852   5.727  18.001  0.00  0.00    +0.000 C 
ATOM      3  O   UNL     1       2.650   6.779  18.616  0.00  0.00    +0.000 OA
ATOM      4  H   UNL     1       0.858   5.404  17.744  0.00  0.00    +0.000 HD
ENDROOT
BRANCH   2   5
ATOM      5  C   UNL     1       4.261   5.283  17.774  0.00  0.00    +0.000 A 
ATOM      6  C   UNL     1       5.144   5.379  18.867  0.00  0.00    +0.000 A 
ATOM      7  C   UNL     1       6.488   5.013  18.752  0.00  0.00    +0.000 A 
ATOM      8  C   UNL     1       6.955   4.554  17.528  0.00  0.00    +0.000 A 
ATOM      9  C   UNL     1       6.099   4.486  16.434  0.00  0.00    +0.000 A 
ATOM     10  C   UNL     1       4.761   4.853  16.541  0.00  0.00    +0.000 A 
BRANCH   8  11
ATOM     11  O   UNL     1       8.256   4.174  17.349  0.00  0.00    +0.000 OA
ATOM     12  H   UNL     1       8.270   3.214  17.186  0.00  0.00    +0.000 HD
ENDBRANCH   8  11
BRANCH   9  13
ATOM     13  O   UNL     1       6.582   4.057  15.228  0.00  0.00    +0.000 OA
ATOM     14  H   UNL     1       7.190   4.768  14.941  0.00  0.00    +0.000 HD
ENDBRANCH   9  13
ENDBRANCH   2   5
BRANCH   1  16
ATOM     15  C   UNL     1       2.074   2.770  17.764  0.00  0.00    +0.000 C 
ATOM     16  N   UNL     1       1.834   3.784  16.989  0.00  0.00    +0.000 NA
BRANCH  15  23
ATOM     17  C   UNL     1       4.606   1.893  19.453  0.00  0.00    +0.000 C 
ATOM     18  C   UNL     1       3.267   2.290  20.011  0.00  0.00    +0.000 A 
ATOM     19  C   UNL     1       3.164   2.345  21.417  0.00  0.00    +0.000 A 
ATOM     20  C   UNL     1       1.994   2.765  22.048  0.00  0.00    +0.000 A 
ATOM     21  C   UNL     1       0.887   3.113  21.286  0.00  0.00    +0.000 A 
ATOM     22  C   UNL     1       0.957   3.043  19.894  0.00  0.00    +0.000 A 
ATOM     23  C   UNL     1       2.134   2.629  19.244  0.00  0.00    +0.000 A 
ENDBRANCH  15  23
ENDBRANCH   1  16
TORSDOF 5
ENDMDL
MODEL 8
REMARK VINA RESULT:      -6.7      2.179      3.534
REMARK  Name = 
REMARK  6 active torsions:
REMARK  status: ('A' for Active; 'I' for Inactive)
REMARK    1  A    between atoms: C_1  and  C_2
REMARK    2  A    between atoms: C_7  and  C_8
REMARK    3  A    between atoms: N_9  and  N_10
REMARK    4  A    between atoms: C_11  and  C_13
REMARK    5  A    between atoms: C_16  and  O_17
REMARK    6  A    between atoms: C_18  and  O_19
REMARK                            x       y       z     vdW  Elec       q    Type
REMARK                         _______ _______ _______ _____ _____    ______ ____
ROOT
ATOM      1  N   UNL     1       1.812   5.100  17.565  0.00  0.00    +0.000 N 
ATOM      2  C   UNL     1       2.853   5.832  18.098  0.00  0.00    +0.000 C 
ATOM      3  O   UNL     1       2.595   6.865  18.724  0.00  0.00    +0.000 OA
ATOM      4  H   UNL     1       0.881   5.457  17.755  0.00  0.00    +0.000 HD
ENDROOT
BRANCH   2   5
ATOM      5  C   UNL     1       4.282   5.433  17.920  0.00  0.00    +0.000 A 
ATOM      6  C   UNL     1       4.656   4.953  16.649  0.00  0.00    +0.000 A 
ATOM      7  C   UNL     1       5.962   4.531  16.386  0.00  0.00    +0.000 A 
ATOM      8  C   UNL     1       6.902   4.581  17.407  0.00  0.00    +0.000 A 
ATOM      9  C   UNL     1       6.534   5.023  18.674  0.00  0.00    +0.000 A 
ATOM     10  C   UNL     1       5.235   5.439  18.944  0.00  0.00    +0.000 A 
BRANCH   8  11
ATOM     11  O   UNL     1       8.197   4.190  17.215  0.00  0.00    +0.000 OA
ATOM     12  H   UNL     1       8.406   3.504  17.873  0.00  0.00    +0.000 HD
ENDBRANCH   8  11
BRANCH   9  13
ATOM     13  O   UNL     1       7.465   5.040  19.675  0.00  0.00    +0.000 OA
ATOM     14  H   UNL     1       8.127   4.371  19.406  0.00  0.00    +0.000 HD
ENDBRANCH   9  13
ENDBRANCH   2   5
BRANCH   1  16
ATOM     15  C   UNL     1       2.166   2.858  17.773  0.00  0.00    +0.000 C 
ATOM     16  N   UNL     1       1.933   3.882  17.008  0.00  0.00    +0.000 NA
BRANCH  15  23
ATOM     17  C   UNL     1       4.633   1.980  19.555  0.00  0.00    +0.000 C 
ATOM     18  C   UNL     1       3.266   2.348  20.062  0.00  0.00    +0.000 A 
ATOM     19  C   UNL     1       3.100   2.373  21.462  0.00  0.00    +0.000 A 
ATOM     20  C   UNL     1       1.898   2.765  22.049  0.00  0.00    +0.000 A 
ATOM     21  C   UNL     1       0.821   3.114  21.246  0.00  0.00    +0.000 A 
ATOM     22  C   UNL     1       0.952   3.073  19.857  0.00  0.00    +0.000 A 
ATOM     23  C   UNL     1       2.163   2.688  19.251  0.00  0.00    +0.000 A 
ENDBRANCH  15  23
ENDBRANCH   1  16
TORSDOF 5
ENDMDL
MODEL 9
REMARK VINA RESULT:      -6.7      2.750      6.133
REMARK  Name = 
REMARK  6 active torsions:
REMARK  status: ('A' for Active; 'I' for Inactive)
REMARK    1  A    between atoms: C_1  and  C_2
REMARK    2  A    between atoms: C_7  and  C_8
REMARK    3  A    between atoms: N_9  and  N_10
REMARK    4  A    between atoms: C_11  and  C_13
REMARK    5  A    between atoms: C_16  and  O_17
REMARK    6  A    between atoms: C_18  and  O_19
REMARK                            x       y       z     vdW  Elec       q    Type
REMARK                         _______ _______ _______ _____ _____    ______ ____
ROOT
ATOM      1  N   UNL     1       4.631   6.371  19.358  0.00  0.00    +0.000 N 
ATOM      2  C   UNL     1       3.329   6.317  18.906  0.00  0.00    +0.000 C 
ATOM      3  O   UNL     1       2.803   7.351  18.482  0.00  0.00    +0.000 OA
ATOM      4  H   UNL     1       5.087   7.274  19.280  0.00  0.00    +0.000 HD
ENDROOT
BRANCH   2   5
ATOM      5  C   UNL     1       2.524   5.059  18.940  0.00  0.00    +0.000 A 
ATOM      6  C   UNL     1       2.258   4.439  17.703  0.00  0.00    +0.000 A 
ATOM      7  C   UNL     1       1.494   3.271  17.624  0.00  0.00    +0.000 A 
ATOM      8  C   UNL     1       0.982   2.723  18.792  0.00  0.00    +0.000 A 
ATOM      9  C   UNL     1       1.212   3.346  20.015  0.00  0.00    +0.000 A 
ATOM     10  C   UNL     1       1.968   4.511  20.100  0.00  0.00    +0.000 A 
BRANCH   8  11
ATOM     11  O   UNL     1       0.232   1.580  18.786  0.00  0.00    +0.000 OA
ATOM     12  H   UNL     1      -0.707   1.836  18.796  0.00  0.00    +0.000 HD
ENDBRANCH   8  11
BRANCH   9  13
ATOM     13  O   UNL     1       0.678   2.808  21.153  0.00  0.00    +0.000 OA
ATOM     14  H   UNL     1       0.376   1.917  20.885  0.00  0.00    +0.000 HD
ENDBRANCH   9  13
ENDBRANCH   2   5
BRANCH   1  16
ATOM     15  C   UNL     1       5.944   4.610  18.746  0.00  0.00    +0.000 C 
ATOM     16  N   UNL     1       5.376   5.300  19.689  0.00  0.00    +0.000 NA
BRANCH  15  23
ATOM     17  C   UNL     1       7.573   6.976  17.414  0.00  0.00    +0.000 C 
ATOM     18  C   UNL     1       6.872   5.866  16.681  0.00  0.00    +0.000 A 
ATOM     19  C   UNL     1       7.023   5.845  15.278  0.00  0.00    +0.000 A 
ATOM     20  C   UNL     1       6.476   4.826  14.500  0.00  0.00    +0.000 A 
ATOM     21  C   UNL     1       5.738   3.817  15.104  0.00  0.00    +0.000 A 
ATOM     22  C   UNL     1       5.554   3.830  16.487  0.00  0.00    +0.000 A 
ATOM     23  C   UNL     1       6.108   4.848  17.287  0.00  0.00    +0.000 A 
ENDBRANCH  15  23
ENDBRANCH   1  16
TORSDOF 5
ENDMDL
