MODEL 1
REMARK VINA RESULT:      -7.1      0.000      0.000
REMARK  Name = 
REMARK  9 active torsions:
REMARK  status: ('A' for Active; 'I' for Inactive)
REMARK    1  A    between atoms: C_1  and  C_2
REMARK    2  A    between atoms: C_2  and  C_3
REMARK    3  A    between atoms: C_3  and  N_4
REMARK    4  A    between atoms: N_4  and  C_5
REMARK    5  A    between atoms: N_4  and  C_9
REMARK    6  A    between atoms: C_5  and  C_6
REMARK    7  A    between atoms: C_17  and  O_18
REMARK    8  A    between atoms: O_18  and  C_19
REMARK    9  A    between atoms: C_22  and  C_23
REMARK                            x       y       z     vdW  Elec       q    Type
REMARK                         _______ _______ _______ _____ _____    ______ ____
ROOT
ATOM      1  C   UNL     1       4.917   4.236  17.045  0.00  0.00    +0.000 A 
ATOM      2  N   UNL     1       4.522   2.973  17.324  0.00  0.00    +0.000 NA
ATOM      3  C   UNL     1       3.567   2.740  18.242  0.00  0.00    +0.000 A 
ATOM      4  N   UNL     1       3.283   1.380  18.425  0.00  0.00    +0.000 N 
ATOM      5  C   UNL     1       2.920   3.753  18.972  0.00  0.00    +0.000 A 
ATOM      6  C   UNL     1       1.878   3.566  19.920  0.00  0.00    +0.000 A 
ATOM      7  N   UNL     1       1.327   2.304  20.176  0.00  0.00    +0.000 N 
ATOM      8  N   UNL     1       1.285   4.568  20.595  0.00  0.00    +0.000 NA
ATOM      9  C   UNL     1       1.726   5.813  20.347  0.00  0.00    +0.000 A 
ATOM     10  C   UNL     1       2.720   6.110  19.438  0.00  0.00    +0.000 A 
ATOM     11  C   UNL     1       3.343   5.070  18.716  0.00  0.00    +0.000 A 
ATOM     12  C   UNL     1       4.347   5.309  17.739  0.00  0.00    +0.000 A 
ATOM     13  H   UNL     1       3.823   0.874  17.726  0.00  0.00    +0.000 HD
ATOM     14  H   UNL     1       2.282   1.219  18.326  0.00  0.00    +0.000 HD
ATOM     15  H   UNL     1       2.068   1.643  20.406  0.00  0.00    +0.000 HD
ATOM     16  H   UNL     1       0.658   2.414  20.934  0.00  0.00    +0.000 HD
ENDROOT
BRANCH   9  17
ATOM     17  O   UNL     1       1.176   6.895  21.004  0.00  0.00    +0.000 OA
ATOM     18  C   UNL     1       1.606   8.149  20.492  0.00  0.00    +0.000 C 
ENDBRANCH   9  17
BRANCH  12  19
ATOM     19  C   UNL     1       4.672   6.662  17.384  0.00  0.00    +0.000 C 
ATOM     20  N   UNL     1       4.887   7.766  17.111  0.00  0.00    +0.000 NA
ENDBRANCH  12  19
BRANCH   1  21
ATOM     21  N   UNL     1       5.797   4.392  15.981  0.00  0.00    +0.000 N 
BRANCH  21  22
ATOM     22  C   UNL     1       7.096   5.000  16.300  0.00  0.00    +0.000 C 
BRANCH  22  24
ATOM     23  C   UNL     1       7.843   5.595  18.731  0.00  0.00    +0.000 C 
ATOM     24  C   UNL     1       7.656   4.529  17.656  0.00  0.00    +0.000 C 
ENDBRANCH  22  24
ENDBRANCH  21  22
BRANCH  21  25
ATOM     25  C   UNL     1       5.314   4.456  14.594  0.00  0.00    +0.000 C 
BRANCH  25  26
ATOM     26  C   UNL     1       6.054   3.576  13.616  0.00  0.00    +0.000 C 
ATOM     27  C   UNL     1       5.389   3.382  12.267  0.00  0.00    +0.000 C 
ATOM     28  C   UNL     1       6.730   4.046  12.340  0.00  0.00    +0.000 C 
ENDBRANCH  25  26
ENDBRANCH  21  25
ENDBRANCH   1  21
TORSDOF 7
ENDMDL
MODEL 2
REMARK VINA RESULT:      -6.9      1.367      3.132
REMARK  Name = 
REMARK  9 active torsions:
REMARK  status: ('A' for Active; 'I' for Inactive)
REMARK    1  A    between atoms: C_1  and  C_2
REMARK    2  A    between atoms: C_2  and  C_3
REMARK    3  A    between atoms: C_3  and  N_4
REMARK    4  A    between atoms: N_4  and  C_5
REMARK    5  A    between atoms: N_4  and  C_9
REMARK    6  A    between atoms: C_5  and  C_6
REMARK    7  A    between atoms: C_17  and  O_18
REMARK    8  A    between atoms: O_18  and  C_19
REMARK    9  A    between atoms: C_22  and  C_23
REMARK                            x       y       z     vdW  Elec       q    Type
REMARK                         _______ _______ _______ _____ _____    ______ ____
ROOT
ATOM      1  C   UNL     1       4.586   5.177  16.694  0.00  0.00    +0.000 A 
ATOM      2  N   UNL     1       4.382   6.507  16.834  0.00  0.00    +0.000 NA
ATOM      3  C   UNL     1       3.576   6.979  17.802  0.00  0.00    +0.000 A 
ATOM      4  N   UNL     1       3.458   8.375  17.803  0.00  0.00    +0.000 N 
ATOM      5  C   UNL     1       2.893   6.161  18.719  0.00  0.00    +0.000 A 
ATOM      6  C   UNL     1       2.065   6.609  19.784  0.00  0.00    +0.000 A 
ATOM      7  N   UNL     1       1.900   7.969  20.073  0.00  0.00    +0.000 N 
ATOM      8  N   UNL     1       1.432   5.788  20.642  0.00  0.00    +0.000 NA
ATOM      9  C   UNL     1       1.601   4.467  20.457  0.00  0.00    +0.000 A 
ATOM     10  C   UNL     1       2.392   3.924  19.466  0.00  0.00    +0.000 A 
ATOM     11  C   UNL     1       3.070   4.775  18.566  0.00  0.00    +0.000 A 
ATOM     12  C   UNL     1       3.929   4.283  17.547  0.00  0.00    +0.000 A 
ATOM     13  H   UNL     1       4.109   8.723  17.101  0.00  0.00    +0.000 HD
ATOM     14  H   UNL     1       3.666   8.739  18.731  0.00  0.00    +0.000 HD
ATOM     15  H   UNL     1       1.610   8.469  19.233  0.00  0.00    +0.000 HD
ATOM     16  H   UNL     1       1.215   8.038  20.821  0.00  0.00    +0.000 HD
ENDROOT
BRANCH   9  17
ATOM     17  O   UNL     1       0.978   3.558  21.287  0.00  0.00    +0.000 OA
ATOM     18  C   UNL     1       1.838   2.522  21.742  0.00  0.00    +0.000 C 
ENDBRANCH   9  17
BRANCH  12  19
ATOM     19  C   UNL     1       4.215   2.876  17.487  0.00  0.00    +0.000 C 
ATOM     20  N   UNL     1       4.410   1.736  17.477  0.00  0.00    +0.000 NA
ENDBRANCH  12  19
BRANCH   1  21
ATOM     21  N   UNL     1       5.548   4.789  15.769  0.00  0.00    +0.000 N 
BRANCH  21  22
ATOM     22  C   UNL     1       6.929   5.197  16.064  0.00  0.00    +0.000 C 
BRANCH  22  24
ATOM     23  C   UNL     1       7.656   5.606  18.539  0.00  0.00    +0.000 C 
ATOM     24  C   UNL     1       7.448   4.619  17.395  0.00  0.00    +0.000 C 
ENDBRANCH  22  24
ENDBRANCH  21  22
BRANCH  21  25
ATOM     25  C   UNL     1       5.190   4.480  14.378  0.00  0.00    +0.000 C 
BRANCH  25  26
ATOM     26  C   UNL     1       6.239   3.728  13.597  0.00  0.00    +0.000 C 
ATOM     27  C   UNL     1       5.807   3.204  12.241  0.00  0.00    +0.000 C 
ATOM     28  C   UNL     1       6.911   4.213  12.325  0.00  0.00    +0.000 C 
ENDBRANCH  25  26
ENDBRANCH  21  25
ENDBRANCH   1  21
TORSDOF 7
ENDMDL
MODEL 3
REMARK VINA RESULT:      -6.8      2.832      6.893
REMARK  Name = 
REMARK  9 active torsions:
REMARK  status: ('A' for Active; 'I' for Inactive)
REMARK    1  A    between atoms: C_1  and  C_2
REMARK    2  A    between atoms: C_2  and  C_3
REMARK    3  A    between atoms: C_3  and  N_4
REMARK    4  A    between atoms: N_4  and  C_5
REMARK    5  A    between atoms: N_4  and  C_9
REMARK    6  A    between atoms: C_5  and  C_6
REMARK    7  A    between atoms: C_17  and  O_18
REMARK    8  A    between atoms: O_18  and  C_19
REMARK    9  A    between atoms: C_22  and  C_23
REMARK                            x       y       z     vdW  Elec       q    Type
REMARK                         _______ _______ _______ _____ _____    ______ ____
ROOT
ATOM      1  C   UNL     1       4.622   5.229  17.856  0.00  0.00    +0.000 A 
ATOM      2  N   UNL     1       5.736   5.995  17.821  0.00  0.00    +0.000 NA
ATOM      3  C   UNL     1       6.551   5.971  16.751  0.00  0.00    +0.000 A 
ATOM      4  N   UNL     1       7.668   6.808  16.878  0.00  0.00    +0.000 N 
ATOM      5  C   UNL     1       6.329   5.172  15.616  0.00  0.00    +0.000 A 
ATOM      6  C   UNL     1       7.134   5.140  14.445  0.00  0.00    +0.000 A 
ATOM      7  N   UNL     1       8.234   5.991  14.278  0.00  0.00    +0.000 N 
ATOM      8  N   UNL     1       6.881   4.359  13.379  0.00  0.00    +0.000 NA
ATOM      9  C   UNL     1       5.800   3.563  13.450  0.00  0.00    +0.000 A 
ATOM     10  C   UNL     1       4.944   3.524  14.531  0.00  0.00    +0.000 A 
ATOM     11  C   UNL     1       5.192   4.346  15.651  0.00  0.00    +0.000 A 
ATOM     12  C   UNL     1       4.330   4.382  16.780  0.00  0.00    +0.000 A 
ATOM     13  H   UNL     1       7.545   7.328  17.745  0.00  0.00    +0.000 HD
ATOM     14  H   UNL     1       7.732   7.424  16.068  0.00  0.00    +0.000 HD
ATOM     15  H   UNL     1       8.860   5.907  15.078  0.00  0.00    +0.000 HD
ATOM     16  H   UNL     1       8.685   5.733  13.405  0.00  0.00    +0.000 HD
ENDROOT
BRANCH   9  17
ATOM     17  O   UNL     1       5.476   2.725  12.403  0.00  0.00    +0.000 OA
ATOM     18  C   UNL     1       4.441   3.230  11.570  0.00  0.00    +0.000 C 
ENDBRANCH   9  17
BRANCH  12  19
ATOM     19  C   UNL     1       3.099   3.643  16.749  0.00  0.00    +0.000 C 
ATOM     20  N   UNL     1       2.127   3.014  16.759  0.00  0.00    +0.000 NA
ENDBRANCH  12  19
BRANCH   1  21
ATOM     21  N   UNL     1       3.762   5.430  18.929  0.00  0.00    +0.000 N 
BRANCH  21  22
ATOM     22  C   UNL     1       3.299   6.809  19.136  0.00  0.00    +0.000 C 
BRANCH  22  24
ATOM     23  C   UNL     1       2.207   8.778  17.813  0.00  0.00    +0.000 C 
ATOM     24  C   UNL     1       2.313   7.275  18.048  0.00  0.00    +0.000 C 
ENDBRANCH  22  24
ENDBRANCH  21  22
BRANCH  21  25
ATOM     25  C   UNL     1       3.731   4.501  20.068  0.00  0.00    +0.000 C 
BRANCH  25  26
ATOM     26  C   UNL     1       2.452   4.510  20.868  0.00  0.00    +0.000 C 
ATOM     27  C   UNL     1       1.254   3.855  20.207  0.00  0.00    +0.000 C 
ATOM     28  C   UNL     1       1.789   3.293  21.488  0.00  0.00    +0.000 C 
ENDBRANCH  25  26
ENDBRANCH  21  25
ENDBRANCH   1  21
TORSDOF 7
ENDMDL
MODEL 4
REMARK VINA RESULT:      -6.7      2.570      6.441
REMARK  Name = 
REMARK  9 active torsions:
REMARK  status: ('A' for Active; 'I' for Inactive)
REMARK    1  A    between atoms: C_1  and  C_2
REMARK    2  A    between atoms: C_2  and  C_3
REMARK    3  A    between atoms: C_3  and  N_4
REMARK    4  A    between atoms: N_4  and  C_5
REMARK    5  A    between atoms: N_4  and  C_9
REMARK    6  A    between atoms: C_5  and  C_6
REMARK    7  A    between atoms: C_17  and  O_18
REMARK    8  A    between atoms: O_18  and  C_19
REMARK    9  A    between atoms: C_22  and  C_23
REMARK                            x       y       z     vdW  Elec       q    Type
REMARK                         _______ _______ _______ _____ _____    ______ ____
ROOT
ATOM      1  C   UNL     1       3.659   4.858  19.471  0.00  0.00    +0.000 A 
ATOM      2  N   UNL     1       4.924   5.037  19.914  0.00  0.00    +0.000 NA
ATOM      3  C   UNL     1       5.966   4.948  19.067  0.00  0.00    +0.000 A 
ATOM      4  N   UNL     1       7.209   5.142  19.684  0.00  0.00    +0.000 N 
ATOM      5  C   UNL     1       5.838   4.666  17.695  0.00  0.00    +0.000 A 
ATOM      6  C   UNL     1       6.898   4.602  16.752  0.00  0.00    +0.000 A 
ATOM      7  N   UNL     1       8.222   4.895  17.103  0.00  0.00    +0.000 N 
ATOM      8  N   UNL     1       6.728   4.331  15.445  0.00  0.00    +0.000 NA
ATOM      9  C   UNL     1       5.470   4.103  15.030  0.00  0.00    +0.000 A 
ATOM     10  C   UNL     1       4.366   4.153  15.856  0.00  0.00    +0.000 A 
ATOM     11  C   UNL     1       4.530   4.446  17.227  0.00  0.00    +0.000 A 
ATOM     12  C   UNL     1       3.434   4.550  18.124  0.00  0.00    +0.000 A 
ATOM     13  H   UNL     1       7.017   5.407  20.648  0.00  0.00    +0.000 HD
ATOM     14  H   UNL     1       7.733   5.860  19.187  0.00  0.00    +0.000 HD
ATOM     15  H   UNL     1       8.499   4.333  17.908  0.00  0.00    +0.000 HD
ATOM     16  H   UNL     1       8.799   4.712  16.287  0.00  0.00    +0.000 HD
ENDROOT
BRANCH   9  17
ATOM     17  O   UNL     1       5.211   3.809  13.707  0.00  0.00    +0.000 OA
ATOM     18  C   UNL     1       6.383   3.687  12.912  0.00  0.00    +0.000 C 
ENDBRANCH   9  17
BRANCH  12  19
ATOM     19  C   UNL     1       2.095   4.463  17.611  0.00  0.00    +0.000 C 
ATOM     20  N   UNL     1       0.999   4.410  17.244  0.00  0.00    +0.000 NA
ENDBRANCH  12  19
BRANCH   1  21
ATOM     21  N   UNL     1       2.640   5.117  20.379  0.00  0.00    +0.000 N 
BRANCH  21  22
ATOM     22  C   UNL     1       2.277   4.009  21.275  0.00  0.00    +0.000 C 
BRANCH  22  24
ATOM     23  C   UNL     1       1.331   2.003  19.896  0.00  0.00    +0.000 C 
ATOM     24  C   UNL     1       1.053   3.218  20.775  0.00  0.00    +0.000 C 
ENDBRANCH  22  24
ENDBRANCH  21  22
BRANCH  21  25
ATOM     25  C   UNL     1       1.651   6.177  20.137  0.00  0.00    +0.000 C 
BRANCH  25  26
ATOM     26  C   UNL     1       2.228   7.550  19.900  0.00  0.00    +0.000 C 
ATOM     27  C   UNL     1       2.202   8.040  18.464  0.00  0.00    +0.000 C 
ATOM     28  C   UNL     1       1.436   8.787  19.512  0.00  0.00    +0.000 C 
ENDBRANCH  25  26
ENDBRANCH  21  25
ENDBRANCH   1  21
TORSDOF 7
ENDMDL
MODEL 5
REMARK VINA RESULT:      -6.7      1.065      1.093
REMARK  Name = 
REMARK  9 active torsions:
REMARK  status: ('A' for Active; 'I' for Inactive)
REMARK    1  A    between atoms: C_1  and  C_2
REMARK    2  A    between atoms: C_2  and  C_3
REMARK    3  A    between atoms: C_3  and  N_4
REMARK    4  A    between atoms: N_4  and  C_5
REMARK    5  A    between atoms: N_4  and  C_9
REMARK    6  A    between atoms: C_5  and  C_6
REMARK    7  A    between atoms: C_17  and  O_18
REMARK    8  A    between atoms: O_18  and  C_19
REMARK    9  A    between atoms: C_22  and  C_23
REMARK                            x       y       z     vdW  Elec       q    Type
REMARK                         _______ _______ _______ _____ _____    ______ ____
ROOT
ATOM      1  C   UNL     1       5.199   4.808  17.477  0.00  0.00    +0.000 A 
ATOM      2  N   UNL     1       5.326   3.614  18.100  0.00  0.00    +0.000 NA
ATOM      3  C   UNL     1       4.554   3.307  19.159  0.00  0.00    +0.000 A 
ATOM      4  N   UNL     1       4.820   2.043  19.700  0.00  0.00    +0.000 N 
ATOM      5  C   UNL     1       3.583   4.172  19.695  0.00  0.00    +0.000 A 
ATOM      6  C   UNL     1       2.715   3.882  20.782  0.00  0.00    +0.000 A 
ATOM      7  N   UNL     1       2.698   2.626  21.403  0.00  0.00    +0.000 N 
ATOM      8  N   UNL     1       1.797   4.741  21.262  0.00  0.00    +0.000 NA
ATOM      9  C   UNL     1       1.719   5.943  20.667  0.00  0.00    +0.000 A 
ATOM     10  C   UNL     1       2.502   6.324  19.597  0.00  0.00    +0.000 A 
ATOM     11  C   UNL     1       3.462   5.429  19.077  0.00  0.00    +0.000 A 
ATOM     12  C   UNL     1       4.274   5.743  17.955  0.00  0.00    +0.000 A 
ATOM     13  H   UNL     1       5.497   1.599  19.083  0.00  0.00    +0.000 HD
ATOM     14  H   UNL     1       3.956   1.507  19.768  0.00  0.00    +0.000 HD
ATOM     15  H   UNL     1       3.641   2.371  21.693  0.00  0.00    +0.000 HD
ATOM     16  H   UNL     1       2.055   2.686  22.188  0.00  0.00    +0.000 HD
ENDROOT
BRANCH   9  17
ATOM     17  O   UNL     1       0.810   6.884  21.105  0.00  0.00    +0.000 OA
ATOM     18  C   UNL     1       1.281   8.221  20.999  0.00  0.00    +0.000 C 
ENDBRANCH   9  17
BRANCH  12  19
ATOM     19  C   UNL     1       4.047   6.971  17.245  0.00  0.00    +0.000 C 
ATOM     20  N   UNL     1       3.913   7.959  16.657  0.00  0.00    +0.000 NA
ENDBRANCH  12  19
BRANCH   1  21
ATOM     21  N   UNL     1       5.927   4.978  16.306  0.00  0.00    +0.000 N 
BRANCH  21  22
ATOM     22  C   UNL     1       7.002   5.979  16.354  0.00  0.00    +0.000 C 
BRANCH  22  24
ATOM     23  C   UNL     1       8.005   7.610  18.131  0.00  0.00    +0.000 C 
ATOM     24  C   UNL     1       7.548   6.198  17.778  0.00  0.00    +0.000 C 
ENDBRANCH  22  24
ENDBRANCH  21  22
BRANCH  21  25
ATOM     25  C   UNL     1       5.366   4.613  14.997  0.00  0.00    +0.000 C 
BRANCH  25  26
ATOM     26  C   UNL     1       6.295   3.839  14.095  0.00  0.00    +0.000 C 
ATOM     27  C   UNL     1       5.740   3.472  12.732  0.00  0.00    +0.000 C 
ATOM     28  C   UNL     1       6.938   4.367  12.825  0.00  0.00    +0.000 C 
ENDBRANCH  25  26
ENDBRANCH  21  25
ENDBRANCH   1  21
TORSDOF 7
ENDMDL
MODEL 6
REMARK VINA RESULT:      -6.7      1.340      3.108
REMARK  Name = 
REMARK  9 active torsions:
REMARK  status: ('A' for Active; 'I' for Inactive)
REMARK    1  A    between atoms: C_1  and  C_2
REMARK    2  A    between atoms: C_2  and  C_3
REMARK    3  A    between atoms: C_3  and  N_4
REMARK    4  A    between atoms: N_4  and  C_5
REMARK    5  A    between atoms: N_4  and  C_9
REMARK    6  A    between atoms: C_5  and  C_6
REMARK    7  A    between atoms: C_17  and  O_18
REMARK    8  A    between atoms: O_18  and  C_19
REMARK    9  A    between atoms: C_22  and  C_23
REMARK                            x       y       z     vdW  Elec       q    Type
REMARK                         _______ _______ _______ _____ _____    ______ ____
ROOT
ATOM      1  C   UNL     1       5.276   4.810  17.747  0.00  0.00    +0.000 A 
ATOM      2  N   UNL     1       5.439   3.647  18.418  0.00  0.00    +0.000 NA
ATOM      3  C   UNL     1       4.630   3.329  19.445  0.00  0.00    +0.000 A 
ATOM      4  N   UNL     1       4.940   2.101  20.045  0.00  0.00    +0.000 N 
ATOM      5  C   UNL     1       3.582   4.150  19.899  0.00  0.00    +0.000 A 
ATOM      6  C   UNL     1       2.675   3.844  20.948  0.00  0.00    +0.000 A 
ATOM      7  N   UNL     1       2.697   2.611  21.612  0.00  0.00    +0.000 N 
ATOM      8  N   UNL     1       1.683   4.661  21.348  0.00  0.00    +0.000 NA
ATOM      9  C   UNL     1       1.567   5.836  20.707  0.00  0.00    +0.000 A 
ATOM     10  C   UNL     1       2.384   6.229  19.667  0.00  0.00    +0.000 A 
ATOM     11  C   UNL     1       3.421   5.377  19.231  0.00  0.00    +0.000 A 
ATOM     12  C   UNL     1       4.274   5.703  18.142  0.00  0.00    +0.000 A 
ATOM     13  H   UNL     1       5.675   1.679  19.480  0.00  0.00    +0.000 HD
ATOM     14  H   UNL     1       4.106   1.517  20.086  0.00  0.00    +0.000 HD
ATOM     15  H   UNL     1       3.637   2.422  21.960  0.00  0.00    +0.000 HD
ATOM     16  H   UNL     1       2.010   2.658  22.360  0.00  0.00    +0.000 HD
ENDROOT
BRANCH   9  17
ATOM     17  O   UNL     1       0.582   6.735  21.063  0.00  0.00    +0.000 OA
ATOM     18  C   UNL     1       1.053   8.068  21.203  0.00  0.00    +0.000 C 
ENDBRANCH   9  17
BRANCH  12  19
ATOM     19  C   UNL     1       4.013   6.890  17.377  0.00  0.00    +0.000 C 
ATOM     20  N   UNL     1       3.767   7.821  16.735  0.00  0.00    +0.000 NA
ENDBRANCH  12  19
BRANCH   1  21
ATOM     21  N   UNL     1       6.056   4.986  16.610  0.00  0.00    +0.000 N 
BRANCH  21  22
ATOM     22  C   UNL     1       6.002   3.904  15.616  0.00  0.00    +0.000 C 
BRANCH  22  24
ATOM     23  C   UNL     1       6.088   3.568  13.028  0.00  0.00    +0.000 C 
ATOM     24  C   UNL     1       5.615   4.405  14.212  0.00  0.00    +0.000 C 
ENDBRANCH  22  24
ENDBRANCH  21  22
BRANCH  21  25
ATOM     25  C   UNL     1       7.225   5.876  16.615  0.00  0.00    +0.000 C 
BRANCH  25  26
ATOM     26  C   UNL     1       7.135   7.048  17.561  0.00  0.00    +0.000 C 
ATOM     27  C   UNL     1       8.207   7.117  18.632  0.00  0.00    +0.000 C 
ATOM     28  C   UNL     1       8.105   8.215  17.618  0.00  0.00    +0.000 C 
ENDBRANCH  25  26
ENDBRANCH  21  25
ENDBRANCH   1  21
TORSDOF 7
ENDMDL
MODEL 7
REMARK VINA RESULT:      -6.6      2.623      6.618
REMARK  Name = 
REMARK  9 active torsions:
REMARK  status: ('A' for Active; 'I' for Inactive)
REMARK    1  A    between atoms: C_1  and  C_2
REMARK    2  A    between atoms: C_2  and  C_3
REMARK    3  A    between atoms: C_3  and  N_4
REMARK    4  A    between atoms: N_4  and  C_5
REMARK    5  A    between atoms: N_4  and  C_9
REMARK    6  A    between atoms: C_5  and  C_6
REMARK    7  A    between atoms: C_17  and  O_18
REMARK    8  A    between atoms: O_18  and  C_19
REMARK    9  A    between atoms: C_22  and  C_23
REMARK                            x       y       z     vdW  Elec       q    Type
REMARK                         _______ _______ _______ _____ _____    ______ ____
ROOT
ATOM      1  C   UNL     1       3.593   5.174  19.340  0.00  0.00    +0.000 A 
ATOM      2  N   UNL     1       4.843   5.374  19.815  0.00  0.00    +0.000 NA
ATOM      3  C   UNL     1       5.917   5.147  19.036  0.00  0.00    +0.000 A 
ATOM      4  N   UNL     1       7.138   5.386  19.680  0.00  0.00    +0.000 N 
ATOM      5  C   UNL     1       5.838   4.692  17.708  0.00  0.00    +0.000 A 
ATOM      6  C   UNL     1       6.935   4.476  16.831  0.00  0.00    +0.000 A 
ATOM      7  N   UNL     1       8.252   4.776  17.204  0.00  0.00    +0.000 N 
ATOM      8  N   UNL     1       6.812   4.041  15.564  0.00  0.00    +0.000 NA
ATOM      9  C   UNL     1       5.566   3.795  15.124  0.00  0.00    +0.000 A 
ATOM     10  C   UNL     1       4.431   3.983  15.884  0.00  0.00    +0.000 A 
ATOM     11  C   UNL     1       4.545   4.449  17.211  0.00  0.00    +0.000 A 
ATOM     12  C   UNL     1       3.415   4.698  18.035  0.00  0.00    +0.000 A 
ATOM     13  H   UNL     1       6.914   5.781  20.592  0.00  0.00    +0.000 HD
ATOM     14  H   UNL     1       7.706   6.019  19.119  0.00  0.00    +0.000 HD
ATOM     15  H   UNL     1       8.475   4.317  18.086  0.00  0.00    +0.000 HD
ATOM     16  H   UNL     1       8.857   4.472  16.445  0.00  0.00    +0.000 HD
ENDROOT
BRANCH   9  17
ATOM     17  O   UNL     1       5.355   3.337  13.839  0.00  0.00    +0.000 OA
ATOM     18  C   UNL     1       6.379   3.709  12.927  0.00  0.00    +0.000 C 
ENDBRANCH   9  17
BRANCH  12  19
ATOM     19  C   UNL     1       2.097   4.582  17.476  0.00  0.00    +0.000 C 
ATOM     20  N   UNL     1       1.058   4.473  16.980  0.00  0.00    +0.000 NA
ENDBRANCH  12  19
BRANCH   1  21
ATOM     21  N   UNL     1       2.545   5.577  20.158  0.00  0.00    +0.000 N 
BRANCH  21  22
ATOM     22  C   UNL     1       2.237   7.014  20.153  0.00  0.00    +0.000 C 
BRANCH  22  24
ATOM     23  C   UNL     1       1.155   8.785  21.739  0.00  0.00    +0.000 C 
ATOM     24  C   UNL     1       1.110   7.385  21.136  0.00  0.00    +0.000 C 
ENDBRANCH  22  24
ENDBRANCH  21  22
BRANCH  21  25
ATOM     25  C   UNL     1       2.127   4.774  21.317  0.00  0.00    +0.000 C 
BRANCH  25  26
ATOM     26  C   UNL     1       2.325   3.286  21.171  0.00  0.00    +0.000 C 
ATOM     27  C   UNL     1       1.311   2.411  21.883  0.00  0.00    +0.000 C 
ATOM     28  C   UNL     1       1.423   2.346  20.390  0.00  0.00    +0.000 C 
ENDBRANCH  25  26
ENDBRANCH  21  25
ENDBRANCH   1  21
TORSDOF 7
ENDMDL
MODEL 8
REMARK VINA RESULT:      -6.6      3.082      7.348
REMARK  Name = 
REMARK  9 active torsions:
REMARK  status: ('A' for Active; 'I' for Inactive)
REMARK    1  A    between atoms: C_1  and  C_2
REMARK    2  A    between atoms: C_2  and  C_3
REMARK    3  A    between atoms: C_3  and  N_4
REMARK    4  A    between atoms: N_4  and  C_5
REMARK    5  A    between atoms: N_4  and  C_9
REMARK    6  A    between atoms: C_5  and  C_6
REMARK    7  A    between atoms: C_17  and  O_18
REMARK    8  A    between atoms: O_18  and  C_19
REMARK    9  A    between atoms: C_22  and  C_23
REMARK                            x       y       z     vdW  Elec       q    Type
REMARK                         _______ _______ _______ _____ _____    ______ ____
ROOT
ATOM      1  C   UNL     1       1.482   8.172  19.913  0.00  0.00    +0.000 A 
ATOM      2  N   UNL     1       1.563   7.033  20.638  0.00  0.00    +0.000 NA
ATOM      3  C   UNL     1       2.368   6.028  20.247  0.00  0.00    +0.000 A 
ATOM      4  N   UNL     1       2.326   4.913  21.096  0.00  0.00    +0.000 N 
ATOM      5  C   UNL     1       3.164   6.068  19.089  0.00  0.00    +0.000 A 
ATOM      6  C   UNL     1       4.060   5.054  18.654  0.00  0.00    +0.000 A 
ATOM      7  N   UNL     1       4.295   3.898  19.410  0.00  0.00    +0.000 N 
ATOM      8  N   UNL     1       4.806   5.136  17.537  0.00  0.00    +0.000 NA
ATOM      9  C   UNL     1       4.673   6.251  16.798  0.00  0.00    +0.000 A 
ATOM     10  C   UNL     1       3.845   7.302  17.134  0.00  0.00    +0.000 A 
ATOM     11  C   UNL     1       3.065   7.233  18.308  0.00  0.00    +0.000 A 
ATOM     12  C   UNL     1       2.220   8.294  18.730  0.00  0.00    +0.000 A 
ATOM     13  H   UNL     1       1.745   5.174  21.890  0.00  0.00    +0.000 HD
ATOM     14  H   UNL     1       3.271   4.661  21.381  0.00  0.00    +0.000 HD
ATOM     15  H   UNL     1       3.409   3.445  19.633  0.00  0.00    +0.000 HD
ATOM     16  H   UNL     1       4.910   3.300  18.864  0.00  0.00    +0.000 HD
ENDROOT
BRANCH   9  17
ATOM     17  O   UNL     1       5.396   6.410  15.634  0.00  0.00    +0.000 OA
ATOM     18  C   UNL     1       5.798   5.182  15.043  0.00  0.00    +0.000 C 
ENDBRANCH   9  17
BRANCH  12  19
ATOM     19  C   UNL     1       2.232   9.534  18.004  0.00  0.00    +0.000 C 
ATOM     20  N   UNL     1       2.219  10.555  17.460  0.00  0.00    +0.000 NA
ENDBRANCH  12  19
BRANCH   1  21
ATOM     21  N   UNL     1       0.746   9.211  20.468  0.00  0.00    +0.000 N 
BRANCH  21  22
ATOM     22  C   UNL     1       0.975   9.473  21.897  0.00  0.00    +0.000 C 
BRANCH  22  24
ATOM     23  C   UNL     1      -1.008  10.578  23.188  0.00  0.00    +0.000 C 
ATOM     24  C   UNL     1      -0.299   9.302  22.745  0.00  0.00    +0.000 C 
ENDBRANCH  22  24
ENDBRANCH  21  22
BRANCH  21  25
ATOM     25  C   UNL     1      -0.518   9.661  19.867  0.00  0.00    +0.000 C 
BRANCH  25  26
ATOM     26  C   UNL     1      -0.599  11.138  19.574  0.00  0.00    +0.000 C 
ATOM     27  C   UNL     1      -1.377  11.524  18.330  0.00  0.00    +0.000 C 
ATOM     28  C   UNL     1      -1.851  11.992  19.673  0.00  0.00    +0.000 C 
ENDBRANCH  25  26
ENDBRANCH  21  25
ENDBRANCH   1  21
TORSDOF 7
ENDMDL
MODEL 9
REMARK VINA RESULT:      -6.5      1.193      1.396
REMARK  Name = 
REMARK  9 active torsions:
REMARK  status: ('A' for Active; 'I' for Inactive)
REMARK    1  A    between atoms: C_1  and  C_2
REMARK    2  A    between atoms: C_2  and  C_3
REMARK    3  A    between atoms: C_3  and  N_4
REMARK    4  A    between atoms: N_4  and  C_5
REMARK    5  A    between atoms: N_4  and  C_9
REMARK    6  A    between atoms: C_5  and  C_6
REMARK    7  A    between atoms: C_17  and  O_18
REMARK    8  A    between atoms: O_18  and  C_19
REMARK    9  A    between atoms: C_22  and  C_23
REMARK                            x       y       z     vdW  Elec       q    Type
REMARK                         _______ _______ _______ _____ _____    ______ ____
ROOT
ATOM      1  C   UNL     1       5.163   4.314  17.626  0.00  0.00    +0.000 A 
ATOM      2  N   UNL     1       4.834   3.359  18.526  0.00  0.00    +0.000 NA
ATOM      3  C   UNL     1       3.907   3.597  19.471  0.00  0.00    +0.000 A 
ATOM      4  N   UNL     1       3.693   2.514  20.334  0.00  0.00    +0.000 N 
ATOM      5  C   UNL     1       3.224   4.819  19.606  0.00  0.00    +0.000 A 
ATOM      6  C   UNL     1       2.208   5.109  20.557  0.00  0.00    +0.000 A 
ATOM      7  N   UNL     1       1.723   4.138  21.443  0.00  0.00    +0.000 N 
ATOM      8  N   UNL     1       1.578   6.294  20.649  0.00  0.00    +0.000 NA
ATOM      9  C   UNL     1       1.954   7.251  19.783  0.00  0.00    +0.000 A 
ATOM     10  C   UNL     1       2.917   7.074  18.811  0.00  0.00    +0.000 A 
ATOM     11  C   UNL     1       3.578   5.832  18.698  0.00  0.00    +0.000 A 
ATOM     12  C   UNL     1       4.552   5.572  17.697  0.00  0.00    +0.000 A 
ATOM     13  H   UNL     1       4.244   1.740  19.970  0.00  0.00    +0.000 HD
ATOM     14  H   UNL     1       2.699   2.292  20.370  0.00  0.00    +0.000 HD
ATOM     15  H   UNL     1       2.500   3.713  21.949  0.00  0.00    +0.000 HD
ATOM     16  H   UNL     1       1.063   4.599  22.063  0.00  0.00    +0.000 HD
ENDROOT
BRANCH   9  17
ATOM     17  O   UNL     1       1.364   8.498  19.816  0.00  0.00    +0.000 OA
ATOM     18  C   UNL     1       1.499   9.224  18.602  0.00  0.00    +0.000 C 
ENDBRANCH   9  17
BRANCH  12  19
ATOM     19  C   UNL     1       4.806   6.562  16.688  0.00  0.00    +0.000 C 
ATOM     20  N   UNL     1       4.967   7.345  15.852  0.00  0.00    +0.000 NA
ENDBRANCH  12  19
BRANCH   1  21
ATOM     21  N   UNL     1       6.016   3.932  16.598  0.00  0.00    +0.000 N 
BRANCH  21  22
ATOM     22  C   UNL     1       7.334   4.583  16.576  0.00  0.00    +0.000 C 
BRANCH  22  24
ATOM     23  C   UNL     1       7.906   6.080  18.639  0.00  0.00    +0.000 C 
ATOM     24  C   UNL     1       7.959   4.706  17.979  0.00  0.00    +0.000 C 
ENDBRANCH  22  24
ENDBRANCH  21  22
BRANCH  21  25
ATOM     25  C   UNL     1       5.497   3.356  15.349  0.00  0.00    +0.000 C 
BRANCH  25  26
ATOM     26  C   UNL     1       5.661   4.224  14.126  0.00  0.00    +0.000 C 
ATOM     27  C   UNL     1       6.579   3.681  13.047  0.00  0.00    +0.000 C 
ATOM     28  C   UNL     1       5.130   3.906  12.739  0.00  0.00    +0.000 C 
ENDBRANCH  25  26
ENDBRANCH  21  25
ENDBRANCH   1  21
TORSDOF 7
ENDMDL
