MODEL 1
REMARK VINA RESULT:      -7.8      0.000      0.000
REMARK  Name = 
REMARK  10 active torsions:
REMARK  status: ('A' for Active; 'I' for Inactive)
REMARK    1  A    between atoms: C_1  and  N_2
REMARK    2  A    between atoms: N_2  and  C_3
REMARK    3  A    between atoms: N_2  and  S_4
REMARK    4  A    between atoms: S_4  and  C_7
REMARK    5  A    between atoms: C_13  and  C_14
REMARK    6  A    between atoms: C_14  and  N_15
REMARK    7  A    between atoms: C_16  and  C_18
REMARK    8  A    between atoms: C_20  and  C_21
REMARK    9  A    between atoms: N_27  and  C_28
REMARK   10  A    between atoms: C_31  and  O_32
REMARK                            x       y       z     vdW  Elec       q    Type
REMARK                         _______ _______ _______ _____ _____    ______ ____
ROOT
ATOM      1  N   UNL     1       2.164   8.062  19.147  0.00  0.00    +0.000 N 
ATOM      2  C   UNL     1       1.959   7.038  20.049  0.00  0.00    +0.000 C 
ATOM      3  O   UNL     1       1.521   7.237  21.173  0.00  0.00    +0.000 OA
ATOM      4  H   UNL     1       2.767   7.836  18.365  0.00  0.00    +0.000 HD
ENDROOT
BRANCH   2   5
ATOM      5  C   UNL     1       2.363   5.666  19.504  0.00  0.00    +0.000 A 
ATOM      6  N   UNL     1       3.492   5.574  18.699  0.00  0.00    +0.000 NA
ATOM      7  C   UNL     1       3.846   4.404  18.244  0.00  0.00    +0.000 A 
ATOM      8  N   UNL     1       3.162   3.244  18.540  0.00  0.00    +0.000 N 
ATOM      9  C   UNL     1       3.522   1.887  18.139  0.00  0.00    +0.000 C 
ATOM     10  C   UNL     1       1.978   3.308  19.251  0.00  0.00    +0.000 A 
ATOM     11  O   UNL     1       1.232   2.349  19.465  0.00  0.00    +0.000 OA
ATOM     12  C   UNL     1       1.566   4.623  19.779  0.00  0.00    +0.000 A 
BRANCH   7  13
ATOM     13  C   UNL     1       5.054   4.400  17.282  0.00  0.00    +0.000 C 
ATOM     14  C   UNL     1       6.380   4.576  18.043  0.00  0.00    +0.000 C 
ATOM     15  C   UNL     1       7.562   4.718  17.099  0.00  0.00    +0.000 C 
ATOM     16  O   UNL     1       7.304   5.741  16.144  0.00  0.00    +0.000 OA
ATOM     17  C   UNL     1       6.226   5.398  15.276  0.00  0.00    +0.000 C 
ATOM     18  C   UNL     1       4.918   5.316  16.056  0.00  0.00    +0.000 C 
ENDBRANCH   7  13
BRANCH  12  19
ATOM     19  O   UNL     1       0.379   4.664  20.481  0.00  0.00    +0.000 OA
ATOM     20  H   UNL     1       0.403   5.496  20.997  0.00  0.00    +0.000 HD
ENDBRANCH  12  19
ENDBRANCH   2   5
BRANCH   1  21
ATOM     21  C   UNL     1       1.918   9.453  19.471  0.00  0.00    +0.000 C 
BRANCH  21  28
ATOM     22  C   UNL     1      -0.297  10.810  19.833  0.00  0.00    +0.000 A 
ATOM     23  C   UNL     1      -1.608  11.095  19.395  0.00  0.00    +0.000 A 
ATOM     24  C   UNL     1      -2.083  10.563  18.205  0.00  0.00    +0.000 A 
ATOM     25  F   UNL     1      -3.332  10.836  17.809  0.00  0.00    +0.000 F 
ATOM     26  C   UNL     1      -1.279   9.749  17.429  0.00  0.00    +0.000 A 
ATOM     27  C   UNL     1       0.014   9.447  17.863  0.00  0.00    +0.000 A 
ATOM     28  C   UNL     1       0.533   9.944  19.087  0.00  0.00    +0.000 A 
BRANCH  22  29
ATOM     29  S   UNL     1       0.137  11.520  21.424  0.00  0.00    +0.000 S 
ATOM     30  O   UNL     1       1.100  12.579  21.215  0.00  0.00    +0.000 OA
ATOM     31  O   UNL     1       0.453  10.420  22.314  0.00  0.00    +0.000 OA
BRANCH  29  33
ATOM     32  C   UNL     1      -1.942  11.622  23.147  0.00  0.00    +0.000 C 
ATOM     33  N   UNL     1      -1.308  12.226  21.972  0.00  0.00    +0.000 NA
ATOM     34  C   UNL     1      -1.412  13.693  21.952  0.00  0.00    +0.000 C 
ENDBRANCH  29  33
ENDBRANCH  22  29
ENDBRANCH  21  28
ENDBRANCH   1  21
TORSDOF 7
ENDMDL
MODEL 2
REMARK VINA RESULT:      -7.8      3.403      8.780
REMARK  Name = 
REMARK  10 active torsions:
REMARK  status: ('A' for Active; 'I' for Inactive)
REMARK    1  A    between atoms: C_1  and  N_2
REMARK    2  A    between atoms: N_2  and  C_3
REMARK    3  A    between atoms: N_2  and  S_4
REMARK    4  A    between atoms: S_4  and  C_7
REMARK    5  A    between atoms: C_13  and  C_14
REMARK    6  A    between atoms: C_14  and  N_15
REMARK    7  A    between atoms: C_16  and  C_18
REMARK    8  A    between atoms: C_20  and  C_21
REMARK    9  A    between atoms: N_27  and  C_28
REMARK   10  A    between atoms: C_31  and  O_32
REMARK                            x       y       z     vdW  Elec       q    Type
REMARK                         _______ _______ _______ _____ _____    ______ ____
ROOT
ATOM      1  N   UNL     1       2.779   8.142  18.686  0.00  0.00    +0.000 N 
ATOM      2  C   UNL     1       1.725   8.967  18.355  0.00  0.00    +0.000 C 
ATOM      3  O   UNL     1       1.388   9.164  17.196  0.00  0.00    +0.000 OA
ATOM      4  H   UNL     1       3.140   8.256  19.625  0.00  0.00    +0.000 HD
ENDROOT
BRANCH   2   5
ATOM      5  C   UNL     1       1.063   9.617  19.574  0.00  0.00    +0.000 A 
ATOM      6  N   UNL     1       0.784  10.977  19.534  0.00  0.00    +0.000 NA
ATOM      7  C   UNL     1       0.209  11.531  20.566  0.00  0.00    +0.000 A 
ATOM      8  N   UNL     1      -0.154  10.824  21.692  0.00  0.00    +0.000 N 
ATOM      9  C   UNL     1      -0.864  11.341  22.860  0.00  0.00    +0.000 C 
ATOM     10  C   UNL     1       0.198   9.494  21.812  0.00  0.00    +0.000 A 
ATOM     11  O   UNL     1       0.028   8.807  22.822  0.00  0.00    +0.000 OA
ATOM     12  C   UNL     1       0.844   8.850  20.651  0.00  0.00    +0.000 A 
BRANCH   7  13
ATOM     13  C   UNL     1       0.019  13.062  20.482  0.00  0.00    +0.000 C 
ATOM     14  C   UNL     1      -0.200  13.522  19.030  0.00  0.00    +0.000 C 
ATOM     15  C   UNL     1      -0.246  15.036  18.915  0.00  0.00    +0.000 C 
ATOM     16  O   UNL     1       0.901  15.608  19.535  0.00  0.00    +0.000 OA
ATOM     17  C   UNL     1       0.911  15.382  20.943  0.00  0.00    +0.000 C 
ATOM     18  C   UNL     1       1.061  13.894  21.244  0.00  0.00    +0.000 C 
ENDBRANCH   7  13
BRANCH  12  19
ATOM     19  O   UNL     1       1.192   7.522  20.795  0.00  0.00    +0.000 OA
ATOM     20  H   UNL     1       0.815   7.062  20.016  0.00  0.00    +0.000 HD
ENDBRANCH  12  19
ENDBRANCH   2   5
BRANCH   1  21
ATOM     21  C   UNL     1       3.596   7.476  17.691  0.00  0.00    +0.000 C 
BRANCH  21  28
ATOM     22  C   UNL     1       4.400   5.021  17.236  0.00  0.00    +0.000 A 
ATOM     23  C   UNL     1       4.074   3.649  17.179  0.00  0.00    +0.000 A 
ATOM     24  C   UNL     1       2.826   3.205  17.594  0.00  0.00    +0.000 A 
ATOM     25  F   UNL     1       2.531   1.901  17.525  0.00  0.00    +0.000 F 
ATOM     26  C   UNL     1       1.885   4.098  18.071  0.00  0.00    +0.000 A 
ATOM     27  C   UNL     1       2.192   5.461  18.114  0.00  0.00    +0.000 A 
ATOM     28  C   UNL     1       3.443   5.965  17.673  0.00  0.00    +0.000 A 
BRANCH  22  29
ATOM     29  S   UNL     1       6.026   5.436  16.599  0.00  0.00    +0.000 S 
ATOM     30  O   UNL     1       5.872   6.320  15.464  0.00  0.00    +0.000 OA
ATOM     31  O   UNL     1       6.760   4.194  16.455  0.00  0.00    +0.000 OA
BRANCH  29  33
ATOM     32  C   UNL     1       7.414   5.551  18.914  0.00  0.00    +0.000 C 
ATOM     33  N   UNL     1       6.752   6.318  17.857  0.00  0.00    +0.000 NA
ATOM     34  C   UNL     1       7.466   7.557  17.510  0.00  0.00    +0.000 C 
ENDBRANCH  29  33
ENDBRANCH  22  29
ENDBRANCH  21  28
ENDBRANCH   1  21
TORSDOF 7
ENDMDL
MODEL 3
REMARK VINA RESULT:      -7.6      0.858      1.098
REMARK  Name = 
REMARK  10 active torsions:
REMARK  status: ('A' for Active; 'I' for Inactive)
REMARK    1  A    between atoms: C_1  and  N_2
REMARK    2  A    between atoms: N_2  and  C_3
REMARK    3  A    between atoms: N_2  and  S_4
REMARK    4  A    between atoms: S_4  and  C_7
REMARK    5  A    between atoms: C_13  and  C_14
REMARK    6  A    between atoms: C_14  and  N_15
REMARK    7  A    between atoms: C_16  and  C_18
REMARK    8  A    between atoms: C_20  and  C_21
REMARK    9  A    between atoms: N_27  and  C_28
REMARK   10  A    between atoms: C_31  and  O_32
REMARK                            x       y       z     vdW  Elec       q    Type
REMARK                         _______ _______ _______ _____ _____    ______ ____
ROOT
ATOM      1  N   UNL     1       2.238   7.887  19.086  0.00  0.00    +0.000 N 
ATOM      2  C   UNL     1       1.999   6.857  19.972  0.00  0.00    +0.000 C 
ATOM      3  O   UNL     1       1.536   7.050  21.088  0.00  0.00    +0.000 OA
ATOM      4  H   UNL     1       2.857   7.662  18.317  0.00  0.00    +0.000 HD
ENDROOT
BRANCH   2   5
ATOM      5  C   UNL     1       2.402   5.485  19.424  0.00  0.00    +0.000 A 
ATOM      6  N   UNL     1       3.529   5.395  18.618  0.00  0.00    +0.000 NA
ATOM      7  C   UNL     1       3.881   4.225  18.159  0.00  0.00    +0.000 A 
ATOM      8  N   UNL     1       3.197   3.065  18.455  0.00  0.00    +0.000 N 
ATOM      9  C   UNL     1       3.556   1.708  18.051  0.00  0.00    +0.000 C 
ATOM     10  C   UNL     1       2.015   3.128  19.168  0.00  0.00    +0.000 A 
ATOM     11  O   UNL     1       1.268   2.169  19.382  0.00  0.00    +0.000 OA
ATOM     12  C   UNL     1       1.604   4.443  19.699  0.00  0.00    +0.000 A 
BRANCH   7  13
ATOM     13  C   UNL     1       5.088   4.222  17.195  0.00  0.00    +0.000 C 
ATOM     14  C   UNL     1       6.403   4.514  17.938  0.00  0.00    +0.000 C 
ATOM     15  C   UNL     1       7.576   4.656  16.983  0.00  0.00    +0.000 C 
ATOM     16  O   UNL     1       7.265   5.602  15.966  0.00  0.00    +0.000 OA
ATOM     17  C   UNL     1       6.206   5.150  15.126  0.00  0.00    +0.000 C 
ATOM     18  C   UNL     1       4.904   5.051  15.915  0.00  0.00    +0.000 C 
ENDBRANCH   7  13
BRANCH  12  19
ATOM     19  O   UNL     1       0.418   4.483  20.403  0.00  0.00    +0.000 OA
ATOM     20  H   UNL     1      -0.287   4.298  19.748  0.00  0.00    +0.000 HD
ENDBRANCH  12  19
ENDBRANCH   2   5
BRANCH   1  21
ATOM     21  C   UNL     1       1.998   9.278  19.416  0.00  0.00    +0.000 C 
BRANCH  21  28
ATOM     22  C   UNL     1      -0.283  10.460  19.937  0.00  0.00    +0.000 A 
ATOM     23  C   UNL     1      -1.599  10.755  19.518  0.00  0.00    +0.000 A 
ATOM     24  C   UNL     1      -2.027  10.403  18.247  0.00  0.00    +0.000 A 
ATOM     25  F   UNL     1      -3.281  10.681  17.869  0.00  0.00    +0.000 F 
ATOM     26  C   UNL     1      -1.173   9.761  17.370  0.00  0.00    +0.000 A 
ATOM     27  C   UNL     1       0.126   9.450  17.781  0.00  0.00    +0.000 A 
ATOM     28  C   UNL     1       0.599   9.763  19.082  0.00  0.00    +0.000 A 
BRANCH  22  29
ATOM     29  S   UNL     1       0.089  10.922  21.632  0.00  0.00    +0.000 S 
ATOM     30  O   UNL     1       1.168  10.089  22.116  0.00  0.00    +0.000 OA
ATOM     31  O   UNL     1      -1.169  10.966  22.351  0.00  0.00    +0.000 OA
BRANCH  29  33
ATOM     32  C   UNL     1       1.633  12.794  20.445  0.00  0.00    +0.000 C 
ATOM     33  N   UNL     1       0.668  12.514  21.511  0.00  0.00    +0.000 NA
ATOM     34  C   UNL     1      -0.283  13.614  21.731  0.00  0.00    +0.000 C 
ENDBRANCH  29  33
ENDBRANCH  22  29
ENDBRANCH  21  28
ENDBRANCH   1  21
TORSDOF 7
ENDMDL
MODEL 4
REMARK VINA RESULT:      -7.5      1.312      1.544
REMARK  Name = 
REMARK  10 active torsions:
REMARK  status: ('A' for Active; 'I' for Inactive)
REMARK    1  A    between atoms: C_1  and  N_2
REMARK    2  A    between atoms: N_2  and  C_3
REMARK    3  A    between atoms: N_2  and  S_4
REMARK    4  A    between atoms: S_4  and  C_7
REMARK    5  A    between atoms: C_13  and  C_14
REMARK    6  A    between atoms: C_14  and  N_15
REMARK    7  A    between atoms: C_16  and  C_18
REMARK    8  A    between atoms: C_20  and  C_21
REMARK    9  A    between atoms: N_27  and  C_28
REMARK   10  A    between atoms: C_31  and  O_32
REMARK                            x       y       z     vdW  Elec       q    Type
REMARK                         _______ _______ _______ _____ _____    ______ ____
ROOT
ATOM      1  N   UNL     1       2.049   8.500  18.585  0.00  0.00    +0.000 N 
ATOM      2  C   UNL     1       2.057   7.693  19.704  0.00  0.00    +0.000 C 
ATOM      3  O   UNL     1       1.779   8.116  20.817  0.00  0.00    +0.000 OA
ATOM      4  H   UNL     1       2.543   8.132  17.782  0.00  0.00    +0.000 HD
ENDROOT
BRANCH   2   5
ATOM      5  C   UNL     1       2.476   6.251  19.403  0.00  0.00    +0.000 A 
ATOM      6  N   UNL     1       3.544   6.033  18.543  0.00  0.00    +0.000 NA
ATOM      7  C   UNL     1       3.911   4.806  18.294  0.00  0.00    +0.000 A 
ATOM      8  N   UNL     1       3.299   3.709  18.864  0.00  0.00    +0.000 N 
ATOM      9  C   UNL     1       3.685   2.310  18.704  0.00  0.00    +0.000 C 
ATOM     10  C   UNL     1       2.171   3.880  19.642  0.00  0.00    +0.000 A 
ATOM     11  O   UNL     1       1.482   2.963  20.097  0.00  0.00    +0.000 OA
ATOM     12  C   UNL     1       1.745   5.262  19.938  0.00  0.00    +0.000 A 
BRANCH   7  13
ATOM     13  C   UNL     1       5.044   4.645  17.256  0.00  0.00    +0.000 C 
ATOM     14  C   UNL     1       6.427   4.635  17.930  0.00  0.00    +0.000 C 
ATOM     15  C   UNL     1       7.554   4.622  16.911  0.00  0.00    +0.000 C 
ATOM     16  O   UNL     1       7.377   5.677  15.973  0.00  0.00    +0.000 OA
ATOM     17  C   UNL     1       6.209   5.489  15.178  0.00  0.00    +0.000 C 
ATOM     18  C   UNL     1       4.954   5.580  16.041  0.00  0.00    +0.000 C 
ENDBRANCH   7  13
BRANCH  12  19
ATOM     19  O   UNL     1       0.613   5.408  20.713  0.00  0.00    +0.000 OA
ATOM     20  H   UNL     1       0.619   4.654  21.338  0.00  0.00    +0.000 HD
ENDBRANCH  12  19
ENDBRANCH   2   5
BRANCH   1  21
ATOM     21  C   UNL     1       1.752   9.917  18.643  0.00  0.00    +0.000 C 
BRANCH  21  28
ATOM     22  C   UNL     1      -0.476  11.128  19.313  0.00  0.00    +0.000 A 
ATOM     23  C   UNL     1      -1.870  11.254  19.126  0.00  0.00    +0.000 A 
ATOM     24  C   UNL     1      -2.510  10.550  18.117  0.00  0.00    +0.000 A 
ATOM     25  F   UNL     1      -3.834  10.674  17.960  0.00  0.00    +0.000 F 
ATOM     26  C   UNL     1      -1.795   9.716  17.279  0.00  0.00    +0.000 A 
ATOM     27  C   UNL     1      -0.417   9.571  17.467  0.00  0.00    +0.000 A 
ATOM     28  C   UNL     1       0.276  10.248  18.503  0.00  0.00    +0.000 A 
BRANCH  22  29
ATOM     29  S   UNL     1       0.185  12.053  20.703  0.00  0.00    +0.000 S 
ATOM     30  O   UNL     1       1.164  11.236  21.384  0.00  0.00    +0.000 OA
ATOM     31  O   UNL     1      -0.944  12.591  21.436  0.00  0.00    +0.000 OA
BRANCH  29  33
ATOM     32  C   UNL     1       2.464  13.333  20.018  0.00  0.00    +0.000 C 
ATOM     33  N   UNL     1       0.999  13.359  19.983  0.00  0.00    +0.000 NA
ATOM     34  C   UNL     1       0.463  13.899  18.724  0.00  0.00    +0.000 C 
ENDBRANCH  29  33
ENDBRANCH  22  29
ENDBRANCH  21  28
ENDBRANCH   1  21
TORSDOF 7
ENDMDL
MODEL 5
REMARK VINA RESULT:      -7.5      3.258      8.784
REMARK  Name = 
REMARK  10 active torsions:
REMARK  status: ('A' for Active; 'I' for Inactive)
REMARK    1  A    between atoms: C_1  and  N_2
REMARK    2  A    between atoms: N_2  and  C_3
REMARK    3  A    between atoms: N_2  and  S_4
REMARK    4  A    between atoms: S_4  and  C_7
REMARK    5  A    between atoms: C_13  and  C_14
REMARK    6  A    between atoms: C_14  and  N_15
REMARK    7  A    between atoms: C_16  and  C_18
REMARK    8  A    between atoms: C_20  and  C_21
REMARK    9  A    between atoms: N_27  and  C_28
REMARK   10  A    between atoms: C_31  and  O_32
REMARK                            x       y       z     vdW  Elec       q    Type
REMARK                         _______ _______ _______ _____ _____    ______ ____
ROOT
ATOM      1  N   UNL     1       1.751   7.769  19.756  0.00  0.00    +0.000 N 
ATOM      2  C   UNL     1       0.825   8.216  20.675  0.00  0.00    +0.000 C 
ATOM      3  O   UNL     1       0.429   7.517  21.596  0.00  0.00    +0.000 OA
ATOM      4  H   UNL     1       1.807   8.308  18.900  0.00  0.00    +0.000 HD
ENDROOT
BRANCH   2   5
ATOM      5  C   UNL     1       0.338   9.641  20.395  0.00  0.00    +0.000 A 
ATOM      6  N   UNL     1      -0.546   9.849  19.344  0.00  0.00    +0.000 NA
ATOM      7  C   UNL     1      -0.971  11.060  19.112  0.00  0.00    +0.000 A 
ATOM      8  N   UNL     1      -0.599  12.147  19.874  0.00  0.00    +0.000 N 
ATOM      9  C   UNL     1      -1.078  13.520  19.736  0.00  0.00    +0.000 C 
ATOM     10  C   UNL     1       0.356  11.998  20.862  0.00  0.00    +0.000 A 
ATOM     11  O   UNL     1       0.844  12.923  21.516  0.00  0.00    +0.000 OA
ATOM     12  C   UNL     1       0.844  10.633  21.142  0.00  0.00    +0.000 A 
BRANCH   7  13
ATOM     13  C   UNL     1      -1.876  11.222  17.870  0.00  0.00    +0.000 C 
ATOM     14  C   UNL     1      -3.325  11.551  18.269  0.00  0.00    +0.000 C 
ATOM     15  C   UNL     1      -4.255  11.571  17.067  0.00  0.00    +0.000 C 
ATOM     16  O   UNL     1      -4.120  10.364  16.326  0.00  0.00    +0.000 OA
ATOM     17  C   UNL     1      -2.825  10.242  15.742  0.00  0.00    +0.000 C 
ATOM     18  C   UNL     1      -1.761  10.101  16.826  0.00  0.00    +0.000 C 
ENDBRANCH   7  13
BRANCH  12  19
ATOM     19  O   UNL     1       1.802  10.509  22.128  0.00  0.00    +0.000 OA
ATOM     20  H   UNL     1       2.373   9.762  21.852  0.00  0.00    +0.000 HD
ENDBRANCH  12  19
ENDBRANCH   2   5
BRANCH   1  21
ATOM     21  C   UNL     1       2.297   6.426  19.783  0.00  0.00    +0.000 C 
BRANCH  21  28
ATOM     22  C   UNL     1       3.264   4.776  17.988  0.00  0.00    +0.000 A 
ATOM     23  C   UNL     1       4.140   4.575  16.900  0.00  0.00    +0.000 A 
ATOM     24  C   UNL     1       4.826   5.644  16.343  0.00  0.00    +0.000 A 
ATOM     25  F   UNL     1       5.659   5.434  15.317  0.00  0.00    +0.000 F 
ATOM     26  C   UNL     1       4.661   6.922  16.842  0.00  0.00    +0.000 A 
ATOM     27  C   UNL     1       3.809   7.129  17.931  0.00  0.00    +0.000 A 
ATOM     28  C   UNL     1       3.109   6.062  18.552  0.00  0.00    +0.000 A 
BRANCH  22  29
ATOM     29  S   UNL     1       2.508   3.281  18.634  0.00  0.00    +0.000 S 
ATOM     30  O   UNL     1       2.858   2.172  17.774  0.00  0.00    +0.000 OA
ATOM     31  O   UNL     1       1.114   3.582  18.895  0.00  0.00    +0.000 OA
BRANCH  29  33
ATOM     32  C   UNL     1       2.406   2.886  21.305  0.00  0.00    +0.000 C 
ATOM     33  N   UNL     1       3.271   3.044  20.133  0.00  0.00    +0.000 NA
ATOM     34  C   UNL     1       4.460   2.178  20.174  0.00  0.00    +0.000 C 
ENDBRANCH  29  33
ENDBRANCH  22  29
ENDBRANCH  21  28
ENDBRANCH   1  21
TORSDOF 7
ENDMDL
MODEL 6
REMARK VINA RESULT:      -7.4      3.392      9.079
REMARK  Name = 
REMARK  10 active torsions:
REMARK  status: ('A' for Active; 'I' for Inactive)
REMARK    1  A    between atoms: C_1  and  N_2
REMARK    2  A    between atoms: N_2  and  C_3
REMARK    3  A    between atoms: N_2  and  S_4
REMARK    4  A    between atoms: S_4  and  C_7
REMARK    5  A    between atoms: C_13  and  C_14
REMARK    6  A    between atoms: C_14  and  N_15
REMARK    7  A    between atoms: C_16  and  C_18
REMARK    8  A    between atoms: C_20  and  C_21
REMARK    9  A    between atoms: N_27  and  C_28
REMARK   10  A    between atoms: C_31  and  O_32
REMARK                            x       y       z     vdW  Elec       q    Type
REMARK                         _______ _______ _______ _____ _____    ______ ____
ROOT
ATOM      1  N   UNL     1       1.832   8.555  19.417  0.00  0.00    +0.000 N 
ATOM      2  C   UNL     1       0.922   9.487  18.964  0.00  0.00    +0.000 C 
ATOM      3  O   UNL     1       0.556   9.530  17.798  0.00  0.00    +0.000 OA
ATOM      4  H   UNL     1       2.264   8.769  20.307  0.00  0.00    +0.000 HD
ENDROOT
BRANCH   2   5
ATOM      5  C   UNL     1       0.461  10.458  20.055  0.00  0.00    +0.000 A 
ATOM      6  N   UNL     1       0.581  11.822  19.827  0.00  0.00    +0.000 NA
ATOM      7  C   UNL     1       0.177  12.652  20.749  0.00  0.00    +0.000 A 
ATOM      8  N   UNL     1      -0.385  12.237  21.938  0.00  0.00    +0.000 N 
ATOM      9  C   UNL     1      -0.930  13.087  22.993  0.00  0.00    +0.000 C 
ATOM     10  C   UNL     1      -0.427  10.891  22.245  0.00  0.00    +0.000 A 
ATOM     11  O   UNL     1      -0.797  10.425  23.326  0.00  0.00    +0.000 OA
ATOM     12  C   UNL     1       0.021   9.938  21.210  0.00  0.00    +0.000 A 
BRANCH   7  13
ATOM     13  C   UNL     1       0.431  14.148  20.459  0.00  0.00    +0.000 C 
ATOM     14  C   UNL     1      -0.562  14.696  19.421  0.00  0.00    +0.000 C 
ATOM     15  C   UNL     1      -0.234  16.124  19.020  0.00  0.00    +0.000 C 
ATOM     16  O   UNL     1       1.128  16.219  18.621  0.00  0.00    +0.000 OA
ATOM     17  C   UNL     1       2.018  15.966  19.706  0.00  0.00    +0.000 C 
ATOM     18  C   UNL     1       1.894  14.519  20.172  0.00  0.00    +0.000 C 
ENDBRANCH   7  13
BRANCH  12  19
ATOM     19  O   UNL     1      -0.026   8.599  21.540  0.00  0.00    +0.000 OA
ATOM     20  H   UNL     1      -0.906   8.455  21.947  0.00  0.00    +0.000 HD
ENDBRANCH  12  19
ENDBRANCH   2   5
BRANCH   1  21
ATOM     21  C   UNL     1       2.457   7.581  18.544  0.00  0.00    +0.000 C 
BRANCH  21  28
ATOM     22  C   UNL     1       3.765   5.331  18.866  0.00  0.00    +0.000 A 
ATOM     23  C   UNL     1       3.844   4.077  19.510  0.00  0.00    +0.000 A 
ATOM     24  C   UNL     1       2.949   3.746  20.517  0.00  0.00    +0.000 A 
ATOM     25  F   UNL     1       3.033   2.549  21.111  0.00  0.00    +0.000 F 
ATOM     26  C   UNL     1       1.969   4.639  20.908  0.00  0.00    +0.000 A 
ATOM     27  C   UNL     1       1.872   5.876  20.265  0.00  0.00    +0.000 A 
ATOM     28  C   UNL     1       2.745   6.247  19.209  0.00  0.00    +0.000 A 
BRANCH  22  29
ATOM     29  S   UNL     1       4.952   5.574  17.541  0.00  0.00    +0.000 S 
ATOM     30  O   UNL     1       5.125   6.993  17.323  0.00  0.00    +0.000 OA
ATOM     31  O   UNL     1       4.550   4.717  16.442  0.00  0.00    +0.000 OA
BRANCH  29  33
ATOM     32  C   UNL     1       7.398   4.477  17.202  0.00  0.00    +0.000 C 
ATOM     33  N   UNL     1       6.406   4.958  18.167  0.00  0.00    +0.000 NA
ATOM     34  C   UNL     1       7.009   5.646  19.319  0.00  0.00    +0.000 C 
ENDBRANCH  29  33
ENDBRANCH  22  29
ENDBRANCH  21  28
ENDBRANCH   1  21
TORSDOF 7
ENDMDL
MODEL 7
REMARK VINA RESULT:      -7.4      3.468      8.805
REMARK  Name = 
REMARK  10 active torsions:
REMARK  status: ('A' for Active; 'I' for Inactive)
REMARK    1  A    between atoms: C_1  and  N_2
REMARK    2  A    between atoms: N_2  and  C_3
REMARK    3  A    between atoms: N_2  and  S_4
REMARK    4  A    between atoms: S_4  and  C_7
REMARK    5  A    between atoms: C_13  and  C_14
REMARK    6  A    between atoms: C_14  and  N_15
REMARK    7  A    between atoms: C_16  and  C_18
REMARK    8  A    between atoms: C_20  and  C_21
REMARK    9  A    between atoms: N_27  and  C_28
REMARK   10  A    between atoms: C_31  and  O_32
REMARK                            x       y       z     vdW  Elec       q    Type
REMARK                         _______ _______ _______ _____ _____    ______ ____
ROOT
ATOM      1  N   UNL     1       2.032   8.067  19.770  0.00  0.00    +0.000 N 
ATOM      2  C   UNL     1       1.338   9.088  19.155  0.00  0.00    +0.000 C 
ATOM      3  O   UNL     1       1.229   9.163  17.939  0.00  0.00    +0.000 OA
ATOM      4  H   UNL     1       2.290   8.238  20.734  0.00  0.00    +0.000 HD
ENDROOT
BRANCH   2   5
ATOM      5  C   UNL     1       0.765  10.108  20.143  0.00  0.00    +0.000 A 
ATOM      6  N   UNL     1       1.050  11.453  19.952  0.00  0.00    +0.000 NA
ATOM      7  C   UNL     1       0.553  12.325  20.786  0.00  0.00    +0.000 A 
ATOM      8  N   UNL     1      -0.263  11.975  21.841  0.00  0.00    +0.000 N 
ATOM      9  C   UNL     1      -0.922  12.882  22.777  0.00  0.00    +0.000 C 
ATOM     10  C   UNL     1      -0.485  10.641  22.124  0.00  0.00    +0.000 A 
ATOM     11  O   UNL     1      -1.096  10.222  23.110  0.00  0.00    +0.000 OA
ATOM     12  C   UNL     1       0.066   9.642  21.188  0.00  0.00    +0.000 A 
BRANCH   7  13
ATOM     13  C   UNL     1       0.992  13.789  20.561  0.00  0.00    +0.000 C 
ATOM     14  C   UNL     1       0.665  14.262  19.134  0.00  0.00    +0.000 C 
ATOM     15  C   UNL     1       1.219  15.649  18.854  0.00  0.00    +0.000 C 
ATOM     16  O   UNL     1       2.605  15.694  19.173  0.00  0.00    +0.000 OA
ATOM     17  C   UNL     1       2.834  15.520  20.569  0.00  0.00    +0.000 C 
ATOM     18  C   UNL     1       2.424  14.118  21.008  0.00  0.00    +0.000 C 
ENDBRANCH   7  13
BRANCH  12  19
ATOM     19  O   UNL     1      -0.164   8.316  21.493  0.00  0.00    +0.000 OA
ATOM     20  H   UNL     1      -0.593   7.930  20.701  0.00  0.00    +0.000 HD
ENDBRANCH  12  19
ENDBRANCH   2   5
BRANCH   1  21
ATOM     21  C   UNL     1       2.719   7.028  19.028  0.00  0.00    +0.000 C 
BRANCH  21  28
ATOM     22  C   UNL     1       3.541   4.614  19.639  0.00  0.00    +0.000 A 
ATOM     23  C   UNL     1       3.219   3.332  20.138  0.00  0.00    +0.000 A 
ATOM     24  C   UNL     1       1.959   3.078  20.659  0.00  0.00    +0.000 A 
ATOM     25  F   UNL     1       1.667   1.854  21.119  0.00  0.00    +0.000 F 
ATOM     26  C   UNL     1       1.001   4.073  20.700  0.00  0.00    +0.000 A 
ATOM     27  C   UNL     1       1.304   5.339  20.193  0.00  0.00    +0.000 A 
ATOM     28  C   UNL     1       2.569   5.639  19.624  0.00  0.00    +0.000 A 
BRANCH  22  29
ATOM     29  S   UNL     1       5.188   4.758  18.940  0.00  0.00    +0.000 S 
ATOM     30  O   UNL     1       5.807   3.451  18.929  0.00  0.00    +0.000 OA
ATOM     31  O   UNL     1       5.844   5.863  19.610  0.00  0.00    +0.000 OA
BRANCH  29  33
ATOM     32  C   UNL     1       5.799   6.252  16.773  0.00  0.00    +0.000 C 
ATOM     33  N   UNL     1       4.916   5.223  17.329  0.00  0.00    +0.000 NA
ATOM     34  C   UNL     1       4.568   4.176  16.356  0.00  0.00    +0.000 C 
ENDBRANCH  29  33
ENDBRANCH  22  29
ENDBRANCH  21  28
ENDBRANCH   1  21
TORSDOF 7
ENDMDL
MODEL 8
REMARK VINA RESULT:      -7.4      3.249      9.090
REMARK  Name = 
REMARK  10 active torsions:
REMARK  status: ('A' for Active; 'I' for Inactive)
REMARK    1  A    between atoms: C_1  and  N_2
REMARK    2  A    between atoms: N_2  and  C_3
REMARK    3  A    between atoms: N_2  and  S_4
REMARK    4  A    between atoms: S_4  and  C_7
REMARK    5  A    between atoms: C_13  and  C_14
REMARK    6  A    between atoms: C_14  and  N_15
REMARK    7  A    between atoms: C_16  and  C_18
REMARK    8  A    between atoms: C_20  and  C_21
REMARK    9  A    between atoms: N_27  and  C_28
REMARK   10  A    between atoms: C_31  and  O_32
REMARK                            x       y       z     vdW  Elec       q    Type
REMARK                         _______ _______ _______ _____ _____    ______ ____
ROOT
ATOM      1  N   UNL     1       2.242   8.641  18.826  0.00  0.00    +0.000 N 
ATOM      2  C   UNL     1       1.103   9.374  18.567  0.00  0.00    +0.000 C 
ATOM      3  O   UNL     1       0.645   9.494  17.438  0.00  0.00    +0.000 OA
ATOM      4  H   UNL     1       2.680   8.823  19.721  0.00  0.00    +0.000 HD
ENDROOT
BRANCH   2   5
ATOM      5  C   UNL     1       0.512  10.032  19.817  0.00  0.00    +0.000 A 
ATOM      6  N   UNL     1       0.328  11.408  19.822  0.00  0.00    +0.000 NA
ATOM      7  C   UNL     1      -0.187  11.969  20.881  0.00  0.00    +0.000 A 
ATOM      8  N   UNL     1      -0.578  11.256  21.994  0.00  0.00    +0.000 N 
ATOM      9  C   UNL     1      -1.228  11.785  23.191  0.00  0.00    +0.000 C 
ATOM     10  C   UNL     1      -0.317   9.901  22.068  0.00  0.00    +0.000 A 
ATOM     11  O   UNL     1      -0.516   9.197  23.062  0.00  0.00    +0.000 OA
ATOM     12  C   UNL     1       0.260   9.249  20.876  0.00  0.00    +0.000 A 
BRANCH   7  13
ATOM     13  C   UNL     1      -0.272  13.512  20.845  0.00  0.00    +0.000 C 
ATOM     14  C   UNL     1      -0.615  14.023  19.435  0.00  0.00    +0.000 C 
ATOM     15  C   UNL     1      -0.560  15.539  19.352  0.00  0.00    +0.000 C 
ATOM     16  O   UNL     1       0.687  16.011  19.850  0.00  0.00    +0.000 OA
ATOM     17  C   UNL     1       0.835  15.749  21.244  0.00  0.00    +0.000 C 
ATOM     18  C   UNL     1       0.907  14.247  21.500  0.00  0.00    +0.000 C 
ENDBRANCH   7  13
BRANCH  12  19
ATOM     19  O   UNL     1       0.517   7.897  20.974  0.00  0.00    +0.000 OA
ATOM     20  H   UNL     1       1.270   7.813  21.595  0.00  0.00    +0.000 HD
ENDBRANCH  12  19
ENDBRANCH   2   5
BRANCH   1  21
ATOM     21  C   UNL     1       3.009   7.989  17.783  0.00  0.00    +0.000 C 
BRANCH  21  28
ATOM     22  C   UNL     1       4.091   5.624  17.452  0.00  0.00    +0.000 A 
ATOM     23  C   UNL     1       3.948   4.222  17.540  0.00  0.00    +0.000 A 
ATOM     24  C   UNL     1       2.813   3.666  18.111  0.00  0.00    +0.000 A 
ATOM     25  F   UNL     1       2.689   2.334  18.178  0.00  0.00    +0.000 F 
ATOM     26  C   UNL     1       1.806   4.474  18.604  0.00  0.00    +0.000 A 
ATOM     27  C   UNL     1       1.930   5.863  18.506  0.00  0.00    +0.000 A 
ATOM     28  C   UNL     1       3.059   6.476  17.904  0.00  0.00    +0.000 A 
BRANCH  22  29
ATOM     29  S   UNL     1       5.586   6.178  16.626  0.00  0.00    +0.000 S 
ATOM     30  O   UNL     1       6.331   7.027  17.529  0.00  0.00    +0.000 OA
ATOM     31  O   UNL     1       5.196   6.676  15.322  0.00  0.00    +0.000 OA
BRANCH  29  33
ATOM     32  C   UNL     1       6.705   4.333  15.000  0.00  0.00    +0.000 C 
ATOM     33  N   UNL     1       6.480   4.754  16.386  0.00  0.00    +0.000 NA
ATOM     34  C   UNL     1       7.640   4.510  17.257  0.00  0.00    +0.000 C 
ENDBRANCH  29  33
ENDBRANCH  22  29
ENDBRANCH  21  28
ENDBRANCH   1  21
TORSDOF 7
ENDMDL
MODEL 9
REMARK VINA RESULT:      -7.4      3.422      9.077
REMARK  Name = 
REMARK  10 active torsions:
REMARK  status: ('A' for Active; 'I' for Inactive)
REMARK    1  A    between atoms: C_1  and  N_2
REMARK    2  A    between atoms: N_2  and  C_3
REMARK    3  A    between atoms: N_2  and  S_4
REMARK    4  A    between atoms: S_4  and  C_7
REMARK    5  A    between atoms: C_13  and  C_14
REMARK    6  A    between atoms: C_14  and  N_15
REMARK    7  A    between atoms: C_16  and  C_18
REMARK    8  A    between atoms: C_20  and  C_21
REMARK    9  A    between atoms: N_27  and  C_28
REMARK   10  A    between atoms: C_31  and  O_32
REMARK                            x       y       z     vdW  Elec       q    Type
REMARK                         _______ _______ _______ _____ _____    ______ ____
ROOT
ATOM      1  N   UNL     1       2.421   8.021  18.732  0.00  0.00    +0.000 N 
ATOM      2  C   UNL     1       1.765   9.211  18.493  0.00  0.00    +0.000 C 
ATOM      3  O   UNL     1       1.844   9.796  17.422  0.00  0.00    +0.000 OA
ATOM      4  H   UNL     1       2.511   7.764  19.707  0.00  0.00    +0.000 HD
ENDROOT
BRANCH   2   5
ATOM      5  C   UNL     1       0.975   9.717  19.702  0.00  0.00    +0.000 A 
ATOM      6  N   UNL     1       0.203  10.862  19.562  0.00  0.00    +0.000 NA
ATOM      7  C   UNL     1      -0.481  11.289  20.588  0.00  0.00    +0.000 A 
ATOM      8  N   UNL     1      -0.490  10.643  21.806  0.00  0.00    +0.000 N 
ATOM      9  C   UNL     1      -1.277  11.001  22.983  0.00  0.00    +0.000 C 
ATOM     10  C   UNL     1       0.344   9.561  22.015  0.00  0.00    +0.000 A 
ATOM     11  O   UNL     1       0.500   8.990  23.098  0.00  0.00    +0.000 OA
ATOM     12  C   UNL     1       1.121   9.062  20.863  0.00  0.00    +0.000 A 
BRANCH   7  13
ATOM     13  C   UNL     1      -1.239  12.619  20.379  0.00  0.00    +0.000 C 
ATOM     14  C   UNL     1      -0.531  13.787  21.087  0.00  0.00    +0.000 C 
ATOM     15  C   UNL     1      -1.339  15.071  21.011  0.00  0.00    +0.000 C 
ATOM     16  O   UNL     1      -2.667  14.840  21.466  0.00  0.00    +0.000 OA
ATOM     17  C   UNL     1      -3.375  13.950  20.606  0.00  0.00    +0.000 C 
ATOM     18  C   UNL     1      -2.750  12.559  20.644  0.00  0.00    +0.000 C 
ENDBRANCH   7  13
BRANCH  12  19
ATOM     19  O   UNL     1       1.950   7.984  21.097  0.00  0.00    +0.000 OA
ATOM     20  H   UNL     1       1.649   7.279  20.487  0.00  0.00    +0.000 HD
ENDBRANCH  12  19
ENDBRANCH   2   5
BRANCH   1  21
ATOM     21  C   UNL     1       3.285   7.391  17.753  0.00  0.00    +0.000 C 
BRANCH  21  28
ATOM     22  C   UNL     1       4.095   4.977  17.124  0.00  0.00    +0.000 A 
ATOM     23  C   UNL     1       3.808   3.596  17.076  0.00  0.00    +0.000 A 
ATOM     24  C   UNL     1       2.645   3.099  17.648  0.00  0.00    +0.000 A 
ATOM     25  F   UNL     1       2.384   1.788  17.585  0.00  0.00    +0.000 F 
ATOM     26  C   UNL     1       1.752   3.948  18.274  0.00  0.00    +0.000 A 
ATOM     27  C   UNL     1       2.019   5.319  18.312  0.00  0.00    +0.000 A 
ATOM     28  C   UNL     1       3.179   5.877  17.715  0.00  0.00    +0.000 A 
BRANCH  22  29
ATOM     29  S   UNL     1       5.602   5.463  16.279  0.00  0.00    +0.000 S 
ATOM     30  O   UNL     1       5.331   6.635  15.476  0.00  0.00    +0.000 OA
ATOM     31  O   UNL     1       6.151   4.273  15.660  0.00  0.00    +0.000 OA
BRANCH  29  33
ATOM     32  C   UNL     1       7.132   7.304  17.533  0.00  0.00    +0.000 C 
ATOM     33  N   UNL     1       6.653   5.919  17.534  0.00  0.00    +0.000 NA
ATOM     34  C   UNL     1       6.381   5.405  18.885  0.00  0.00    +0.000 C 
ENDBRANCH  29  33
ENDBRANCH  22  29
ENDBRANCH  21  28
ENDBRANCH   1  21
TORSDOF 7
ENDMDL
