MODEL 1
REMARK VINA RESULT:      -6.7      0.000      0.000
REMARK  Name = 
REMARK  16 active torsions:
REMARK  status: ('A' for Active; 'I' for Inactive)
REMARK    1  A    between atoms: C_1  and  O_2
REMARK    2  A    between atoms: O_2  and  C_3
REMARK    3  A    between atoms: C_5  and  C_6
REMARK    4  A    between atoms: C_7  and  O_8
REMARK    5  A    between atoms: O_8  and  C_9
REMARK    6  A    between atoms: N_17  and  C_18
REMARK    7  A    between atoms: C_20  and  O_21
REMARK    8  A    between atoms: O_21  and  C_22
REMARK    9  A    between atoms: C_23  and  O_24
REMARK   10  A    between atoms: O_24  and  C_25
REMARK   11  A    between atoms: C_26  and  O_27
REMARK   12  A    between atoms: O_27  and  C_28
REMARK   13  A    between atoms: C_31  and  O_32
REMARK   14  A    between atoms: O_32  and  C_33
REMARK   15  A    between atoms: C_34  and  O_35
REMARK   16  A    between atoms: O_35  and  C_36
REMARK                            x       y       z     vdW  Elec       q    Type
REMARK                         _______ _______ _______ _____ _____    ______ ____
ROOT
ATOM      1  C   UNL     1      -0.588  12.213  20.572  0.00  0.00    +0.000 C 
ATOM      2  C   UNL     1       0.307  10.952  20.807  0.00  0.00    +0.000 C 
ATOM      3  C   UNL     1      -0.146  11.067  22.274  0.00  0.00    +0.000 C 
ATOM      4  O   UNL     1      -0.007  10.399  23.274  0.00  0.00    +0.000 OA
ATOM      5  N   UNL     1      -0.730  12.271  22.033  0.00  0.00    +0.000 N 
ENDROOT
BRANCH   1   8
ATOM      6  C   UNL     1      -3.272  11.071  17.937  0.00  0.00    +0.000 A 
ATOM      7  C   UNL     1      -2.047  11.369  18.556  0.00  0.00    +0.000 A 
ATOM      8  C   UNL     1      -1.954  12.083  19.761  0.00  0.00    +0.000 A 
ATOM      9  C   UNL     1      -3.160  12.606  20.245  0.00  0.00    +0.000 A 
ATOM     10  C   UNL     1      -4.392  12.426  19.588  0.00  0.00    +0.000 A 
ATOM     11  C   UNL     1      -4.465  11.642  18.418  0.00  0.00    +0.000 A 
BRANCH   6  13
ATOM     12  C   UNL     1      -2.747  10.756  15.649  0.00  0.00    +0.000 C 
ATOM     13  O   UNL     1      -3.293  10.220  16.860  0.00  0.00    +0.000 OA
ENDBRANCH   6  13
BRANCH  10  14
ATOM     14  O   UNL     1      -5.408  13.048  20.272  0.00  0.00    +0.000 OA
ATOM     15  C   UNL     1      -5.906  14.290  19.799  0.00  0.00    +0.000 C 
ENDBRANCH  10  14
BRANCH  11  16
ATOM     16  O   UNL     1      -5.711  11.484  17.879  0.00  0.00    +0.000 OA
ATOM     17  C   UNL     1      -6.671  10.639  18.489  0.00  0.00    +0.000 C 
ENDBRANCH  11  16
ENDBRANCH   1   8
BRANCH   5  18
ATOM     18  C   UNL     1      -1.411  13.158  22.867  0.00  0.00    +0.000 A 
ATOM     19  C   UNL     1      -2.653  12.792  23.379  0.00  0.00    +0.000 A 
ATOM     20  C   UNL     1      -3.365  13.626  24.245  0.00  0.00    +0.000 A 
ATOM     21  C   UNL     1      -2.851  14.892  24.578  0.00  0.00    +0.000 A 
ATOM     22  C   UNL     1      -1.607  15.285  24.041  0.00  0.00    +0.000 A 
ATOM     23  C   UNL     1      -0.890  14.406  23.212  0.00  0.00    +0.000 A 
BRANCH  20  24
ATOM     24  O   UNL     1      -4.577  13.263  24.785  0.00  0.00    +0.000 OA
ATOM     25  C   UNL     1      -5.645  13.100  23.853  0.00  0.00    +0.000 C 
ENDBRANCH  20  24
BRANCH  21  26
ATOM     26  O   UNL     1      -3.672  15.671  25.357  0.00  0.00    +0.000 OA
ATOM     27  C   UNL     1      -4.475  16.641  24.697  0.00  0.00    +0.000 C 
ENDBRANCH  21  26
BRANCH  22  28
ATOM     28  O   UNL     1      -1.117  16.523  24.372  0.00  0.00    +0.000 OA
ATOM     29  C   UNL     1      -0.334  16.614  25.558  0.00  0.00    +0.000 C 
ENDBRANCH  22  28
ENDBRANCH   5  18
BRANCH   2  30
ATOM     30  O   UNL     1      -0.060   9.710  20.166  0.00  0.00    +0.000 OA
BRANCH  30  31
ATOM     31  C   UNL     1       0.934   8.948  19.608  0.00  0.00    +0.000 A 
ATOM     32  C   UNL     1       1.547   7.856  20.226  0.00  0.00    +0.000 A 
ATOM     33  C   UNL     1       2.546   7.146  19.559  0.00  0.00    +0.000 A 
ATOM     34  C   UNL     1       2.937   7.522  18.276  0.00  0.00    +0.000 A 
ATOM     35  C   UNL     1       2.322   8.608  17.654  0.00  0.00    +0.000 A 
ATOM     36  C   UNL     1       1.324   9.320  18.322  0.00  0.00    +0.000 A 
ENDBRANCH  30  31
ENDBRANCH   2  30
TORSDOF 10
ENDMDL
MODEL 2
REMARK VINA RESULT:      -6.7      0.650      2.321
REMARK  Name = 
REMARK  16 active torsions:
REMARK  status: ('A' for Active; 'I' for Inactive)
REMARK    1  A    between atoms: C_1  and  O_2
REMARK    2  A    between atoms: O_2  and  C_3
REMARK    3  A    between atoms: C_5  and  C_6
REMARK    4  A    between atoms: C_7  and  O_8
REMARK    5  A    between atoms: O_8  and  C_9
REMARK    6  A    between atoms: N_17  and  C_18
REMARK    7  A    between atoms: C_20  and  O_21
REMARK    8  A    between atoms: O_21  and  C_22
REMARK    9  A    between atoms: C_23  and  O_24
REMARK   10  A    between atoms: O_24  and  C_25
REMARK   11  A    between atoms: C_26  and  O_27
REMARK   12  A    between atoms: O_27  and  C_28
REMARK   13  A    between atoms: C_31  and  O_32
REMARK   14  A    between atoms: O_32  and  C_33
REMARK   15  A    between atoms: C_34  and  O_35
REMARK   16  A    between atoms: O_35  and  C_36
REMARK                            x       y       z     vdW  Elec       q    Type
REMARK                         _______ _______ _______ _____ _____    ______ ____
ROOT
ATOM      1  C   UNL     1      -0.466  11.990  20.720  0.00  0.00    +0.000 C 
ATOM      2  C   UNL     1       0.382  10.711  21.026  0.00  0.00    +0.000 C 
ATOM      3  C   UNL     1      -0.208  10.819  22.444  0.00  0.00    +0.000 C 
ATOM      4  O   UNL     1      -0.177  10.139  23.445  0.00  0.00    +0.000 OA
ATOM      5  N   UNL     1      -0.747  12.036  22.162  0.00  0.00    +0.000 N 
ENDROOT
BRANCH   1   8
ATOM      6  C   UNL     1      -2.890  10.942  17.810  0.00  0.00    +0.000 A 
ATOM      7  C   UNL     1      -1.729  11.215  18.551  0.00  0.00    +0.000 A 
ATOM      8  C   UNL     1      -1.749  11.891  19.781  0.00  0.00    +0.000 A 
ATOM      9  C   UNL     1      -2.995  12.405  20.164  0.00  0.00    +0.000 A 
ATOM     10  C   UNL     1      -4.159  12.251  19.389  0.00  0.00    +0.000 A 
ATOM     11  C   UNL     1      -4.122  11.503  18.194  0.00  0.00    +0.000 A 
BRANCH   6  13
ATOM     12  C   UNL     1      -2.831  10.799  15.446  0.00  0.00    +0.000 C 
ATOM     13  O   UNL     1      -2.810  10.124  16.710  0.00  0.00    +0.000 OA
ENDBRANCH   6  13
BRANCH  10  14
ATOM     14  O   UNL     1      -5.235  12.856  19.993  0.00  0.00    +0.000 OA
ATOM     15  C   UNL     1      -6.157  12.066  20.726  0.00  0.00    +0.000 C 
ENDBRANCH  10  14
BRANCH  11  16
ATOM     16  O   UNL     1      -5.312  11.367  17.535  0.00  0.00    +0.000 OA
ATOM     17  C   UNL     1      -5.978  12.491  16.985  0.00  0.00    +0.000 C 
ENDBRANCH  11  16
ENDBRANCH   1   8
BRANCH   5  18
ATOM     18  C   UNL     1      -1.491  12.926  22.937  0.00  0.00    +0.000 A 
ATOM     19  C   UNL     1      -1.009  14.216  23.142  0.00  0.00    +0.000 A 
ATOM     20  C   UNL     1      -1.728  15.159  23.881  0.00  0.00    +0.000 A 
ATOM     21  C   UNL     1      -2.946  14.797  24.482  0.00  0.00    +0.000 A 
ATOM     22  C   UNL     1      -3.429  13.484  24.306  0.00  0.00    +0.000 A 
ATOM     23  C   UNL     1      -2.710  12.570  23.517  0.00  0.00    +0.000 A 
BRANCH  20  24
ATOM     24  O   UNL     1      -1.280  16.447  24.064  0.00  0.00    +0.000 OA
ATOM     25  C   UNL     1      -0.192  16.600  24.974  0.00  0.00    +0.000 C 
ENDBRANCH  20  24
BRANCH  21  26
ATOM     26  O   UNL     1      -3.523  15.767  25.266  0.00  0.00    +0.000 OA
ATOM     27  C   UNL     1      -4.538  16.570  24.678  0.00  0.00    +0.000 C 
ENDBRANCH  21  26
BRANCH  22  28
ATOM     28  O   UNL     1      -4.618  13.141  24.899  0.00  0.00    +0.000 OA
ATOM     29  C   UNL     1      -5.767  13.084  24.060  0.00  0.00    +0.000 C 
ENDBRANCH  22  28
ENDBRANCH   5  18
BRANCH   2  30
ATOM     30  O   UNL     1       0.059   9.482  20.339  0.00  0.00    +0.000 OA
BRANCH  30  31
ATOM     31  C   UNL     1       1.033   8.887  19.579  0.00  0.00    +0.000 A 
ATOM     32  C   UNL     1       1.447   9.328  18.321  0.00  0.00    +0.000 A 
ATOM     33  C   UNL     1       2.457   8.646  17.640  0.00  0.00    +0.000 A 
ATOM     34  C   UNL     1       3.056   7.525  18.211  0.00  0.00    +0.000 A 
ATOM     35  C   UNL     1       2.649   7.088  19.470  0.00  0.00    +0.000 A 
ATOM     36  C   UNL     1       1.637   7.767  20.151  0.00  0.00    +0.000 A 
ENDBRANCH  30  31
ENDBRANCH   2  30
TORSDOF 10
ENDMDL
MODEL 3
REMARK VINA RESULT:      -6.6      0.511      2.132
REMARK  Name = 
REMARK  16 active torsions:
REMARK  status: ('A' for Active; 'I' for Inactive)
REMARK    1  A    between atoms: C_1  and  O_2
REMARK    2  A    between atoms: O_2  and  C_3
REMARK    3  A    between atoms: C_5  and  C_6
REMARK    4  A    between atoms: C_7  and  O_8
REMARK    5  A    between atoms: O_8  and  C_9
REMARK    6  A    between atoms: N_17  and  C_18
REMARK    7  A    between atoms: C_20  and  O_21
REMARK    8  A    between atoms: O_21  and  C_22
REMARK    9  A    between atoms: C_23  and  O_24
REMARK   10  A    between atoms: O_24  and  C_25
REMARK   11  A    between atoms: C_26  and  O_27
REMARK   12  A    between atoms: O_27  and  C_28
REMARK   13  A    between atoms: C_31  and  O_32
REMARK   14  A    between atoms: O_32  and  C_33
REMARK   15  A    between atoms: C_34  and  O_35
REMARK   16  A    between atoms: O_35  and  C_36
REMARK                            x       y       z     vdW  Elec       q    Type
REMARK                         _______ _______ _______ _____ _____    ______ ____
ROOT
ATOM      1  C   UNL     1      -0.518  12.100  20.372  0.00  0.00    +0.000 C 
ATOM      2  C   UNL     1       0.445  10.880  20.553  0.00  0.00    +0.000 C 
ATOM      3  C   UNL     1       0.116  11.012  22.051  0.00  0.00    +0.000 C 
ATOM      4  O   UNL     1       0.368  10.373  23.048  0.00  0.00    +0.000 OA
ATOM      5  N   UNL     1      -0.535  12.187  21.838  0.00  0.00    +0.000 N 
ENDROOT
BRANCH   1   8
ATOM      6  C   UNL     1      -4.302  12.566  19.418  0.00  0.00    +0.000 A 
ATOM      7  C   UNL     1      -3.091  12.573  20.129  0.00  0.00    +0.000 A 
ATOM      8  C   UNL     1      -1.942  11.898  19.687  0.00  0.00    +0.000 A 
ATOM      9  C   UNL     1      -2.115  11.095  18.552  0.00  0.00    +0.000 A 
ATOM     10  C   UNL     1      -3.346  10.973  17.879  0.00  0.00    +0.000 A 
ATOM     11  C   UNL     1      -4.464  11.720  18.305  0.00  0.00    +0.000 A 
BRANCH   6  13
ATOM     12  C   UNL     1      -4.971  14.352  20.822  0.00  0.00    +0.000 C 
ATOM     13  O   UNL     1      -5.323  13.391  19.819  0.00  0.00    +0.000 OA
ENDBRANCH   6  13
BRANCH  10  14
ATOM     14  O   UNL     1      -3.238  10.119  16.808  0.00  0.00    +0.000 OA
ATOM     15  C   UNL     1      -2.811  10.627  15.554  0.00  0.00    +0.000 C 
ENDBRANCH  10  14
BRANCH  11  16
ATOM     16  O   UNL     1      -5.601  11.573  17.561  0.00  0.00    +0.000 OA
ATOM     17  C   UNL     1      -6.783  11.032  18.127  0.00  0.00    +0.000 C 
ENDBRANCH  11  16
ENDBRANCH   1   8
BRANCH   5  18
ATOM     18  C   UNL     1      -1.177  13.066  22.712  0.00  0.00    +0.000 A 
ATOM     19  C   UNL     1      -2.331  12.648  23.369  0.00  0.00    +0.000 A 
ATOM     20  C   UNL     1      -2.996  13.474  24.279  0.00  0.00    +0.000 A 
ATOM     21  C   UNL     1      -2.530  14.780  24.510  0.00  0.00    +0.000 A 
ATOM     22  C   UNL     1      -1.379  15.224  23.826  0.00  0.00    +0.000 A 
ATOM     23  C   UNL     1      -0.701  14.355  22.953  0.00  0.00    +0.000 A 
BRANCH  20  24
ATOM     24  O   UNL     1      -4.118  13.063  24.961  0.00  0.00    +0.000 OA
ATOM     25  C   UNL     1      -5.253  12.752  24.154  0.00  0.00    +0.000 C 
ENDBRANCH  20  24
BRANCH  21  26
ATOM     26  O   UNL     1      -3.311  15.541  25.347  0.00  0.00    +0.000 OA
ATOM     27  C   UNL     1      -4.257  16.416  24.747  0.00  0.00    +0.000 C 
ENDBRANCH  21  26
BRANCH  22  28
ATOM     28  O   UNL     1      -0.935  16.501  24.058  0.00  0.00    +0.000 OA
ATOM     29  C   UNL     1       0.439  16.767  23.795  0.00  0.00    +0.000 C 
ENDBRANCH  22  28
ENDBRANCH   5  18
BRANCH   2  30
ATOM     30  O   UNL     1       0.075   9.611  19.970  0.00  0.00    +0.000 OA
BRANCH  30  31
ATOM     31  C   UNL     1       1.069   8.812  19.468  0.00  0.00    +0.000 A 
ATOM     32  C   UNL     1       1.664   7.750  20.151  0.00  0.00    +0.000 A 
ATOM     33  C   UNL     1       2.666   6.997  19.536  0.00  0.00    +0.000 A 
ATOM     34  C   UNL     1       3.076   7.301  18.240  0.00  0.00    +0.000 A 
ATOM     35  C   UNL     1       2.478   8.357  17.553  0.00  0.00    +0.000 A 
ATOM     36  C   UNL     1       1.478   9.112  18.168  0.00  0.00    +0.000 A 
ENDBRANCH  30  31
ENDBRANCH   2  30
TORSDOF 10
ENDMDL
MODEL 4
REMARK VINA RESULT:      -6.6      0.971      2.295
REMARK  Name = 
REMARK  16 active torsions:
REMARK  status: ('A' for Active; 'I' for Inactive)
REMARK    1  A    between atoms: C_1  and  O_2
REMARK    2  A    between atoms: O_2  and  C_3
REMARK    3  A    between atoms: C_5  and  C_6
REMARK    4  A    between atoms: C_7  and  O_8
REMARK    5  A    between atoms: O_8  and  C_9
REMARK    6  A    between atoms: N_17  and  C_18
REMARK    7  A    between atoms: C_20  and  O_21
REMARK    8  A    between atoms: O_21  and  C_22
REMARK    9  A    between atoms: C_23  and  O_24
REMARK   10  A    between atoms: O_24  and  C_25
REMARK   11  A    between atoms: C_26  and  O_27
REMARK   12  A    between atoms: O_27  and  C_28
REMARK   13  A    between atoms: C_31  and  O_32
REMARK   14  A    between atoms: O_32  and  C_33
REMARK   15  A    between atoms: C_34  and  O_35
REMARK   16  A    between atoms: O_35  and  C_36
REMARK                            x       y       z     vdW  Elec       q    Type
REMARK                         _______ _______ _______ _____ _____    ______ ____
ROOT
ATOM      1  C   UNL     1      -0.134  12.004  20.232  0.00  0.00    +0.000 C 
ATOM      2  C   UNL     1       0.713  10.732  20.563  0.00  0.00    +0.000 C 
ATOM      3  C   UNL     1       0.306  11.003  22.023  0.00  0.00    +0.000 C 
ATOM      4  O   UNL     1       0.444  10.425  23.078  0.00  0.00    +0.000 OA
ATOM      5  N   UNL     1      -0.232  12.205  21.684  0.00  0.00    +0.000 N 
ENDROOT
BRANCH   1   8
ATOM      6  C   UNL     1      -2.951  10.713  17.814  0.00  0.00    +0.000 A 
ATOM      7  C   UNL     1      -1.694  11.007  18.368  0.00  0.00    +0.000 A 
ATOM      8  C   UNL     1      -1.526  11.861  19.470  0.00  0.00    +0.000 A 
ATOM      9  C   UNL     1      -2.684  12.518  19.904  0.00  0.00    +0.000 A 
ATOM     10  C   UNL     1      -3.942  12.336  19.298  0.00  0.00    +0.000 A 
ATOM     11  C   UNL     1      -4.093  11.416  18.240  0.00  0.00    +0.000 A 
BRANCH   6  13
ATOM     12  C   UNL     1      -2.765  10.161  15.518  0.00  0.00    +0.000 C 
ATOM     13  O   UNL     1      -3.052   9.735  16.856  0.00  0.00    +0.000 OA
ENDBRANCH   6  13
BRANCH  10  14
ATOM     14  O   UNL     1      -4.900  13.104  19.915  0.00  0.00    +0.000 OA
ATOM     15  C   UNL     1      -5.337  12.756  21.219  0.00  0.00    +0.000 C 
ENDBRANCH  10  14
BRANCH  11  16
ATOM     16  O   UNL     1      -5.361  11.272  17.748  0.00  0.00    +0.000 OA
ATOM     17  C   UNL     1      -6.332  10.505  18.440  0.00  0.00    +0.000 C 
ENDBRANCH  11  16
ENDBRANCH   1   8
BRANCH   5  18
ATOM     18  C   UNL     1      -0.852  13.195  22.447  0.00  0.00    +0.000 A 
ATOM     19  C   UNL     1      -0.270  14.458  22.524  0.00  0.00    +0.000 A 
ATOM     20  C   UNL     1      -0.864  15.496  23.245  0.00  0.00    +0.000 A 
ATOM     21  C   UNL     1      -2.053  15.263  23.959  0.00  0.00    +0.000 A 
ATOM     22  C   UNL     1      -2.634  13.979  23.913  0.00  0.00    +0.000 A 
ATOM     23  C   UNL     1      -2.042  12.966  23.139  0.00  0.00    +0.000 A 
BRANCH  20  24
ATOM     24  O   UNL     1      -0.318  16.758  23.303  0.00  0.00    +0.000 OA
ATOM     25  C   UNL     1       0.984  16.895  22.737  0.00  0.00    +0.000 C 
ENDBRANCH  20  24
BRANCH  21  26
ATOM     26  O   UNL     1      -2.500  16.321  24.713  0.00  0.00    +0.000 OA
ATOM     27  C   UNL     1      -1.963  16.469  26.021  0.00  0.00    +0.000 C 
ENDBRANCH  21  26
BRANCH  22  28
ATOM     28  O   UNL     1      -3.793  13.763  24.615  0.00  0.00    +0.000 OA
ATOM     29  C   UNL     1      -4.249  12.418  24.715  0.00  0.00    +0.000 C 
ENDBRANCH  22  28
ENDBRANCH   5  18
BRANCH   2  30
ATOM     30  O   UNL     1       0.276   9.453  20.051  0.00  0.00    +0.000 OA
BRANCH  30  31
ATOM     31  C   UNL     1       1.216   8.616  19.506  0.00  0.00    +0.000 A 
ATOM     32  C   UNL     1       1.777   7.515  20.155  0.00  0.00    +0.000 A 
ATOM     33  C   UNL     1       2.723   6.725  19.499  0.00  0.00    +0.000 A 
ATOM     34  C   UNL     1       3.110   7.031  18.196  0.00  0.00    +0.000 A 
ATOM     35  C   UNL     1       2.546   8.127  17.544  0.00  0.00    +0.000 A 
ATOM     36  C   UNL     1       1.602   8.919  18.200  0.00  0.00    +0.000 A 
ENDBRANCH  30  31
ENDBRANCH   2  30
TORSDOF 10
ENDMDL
MODEL 5
REMARK VINA RESULT:      -6.5      0.619      2.960
REMARK  Name = 
REMARK  16 active torsions:
REMARK  status: ('A' for Active; 'I' for Inactive)
REMARK    1  A    between atoms: C_1  and  O_2
REMARK    2  A    between atoms: O_2  and  C_3
REMARK    3  A    between atoms: C_5  and  C_6
REMARK    4  A    between atoms: C_7  and  O_8
REMARK    5  A    between atoms: O_8  and  C_9
REMARK    6  A    between atoms: N_17  and  C_18
REMARK    7  A    between atoms: C_20  and  O_21
REMARK    8  A    between atoms: O_21  and  C_22
REMARK    9  A    between atoms: C_23  and  O_24
REMARK   10  A    between atoms: O_24  and  C_25
REMARK   11  A    between atoms: C_26  and  O_27
REMARK   12  A    between atoms: O_27  and  C_28
REMARK   13  A    between atoms: C_31  and  O_32
REMARK   14  A    between atoms: O_32  and  C_33
REMARK   15  A    between atoms: C_34  and  O_35
REMARK   16  A    between atoms: O_35  and  C_36
REMARK                            x       y       z     vdW  Elec       q    Type
REMARK                         _______ _______ _______ _____ _____    ______ ____
ROOT
ATOM      1  C   UNL     1      -0.558  12.102  20.250  0.00  0.00    +0.000 C 
ATOM      2  C   UNL     1       0.440  10.903  20.367  0.00  0.00    +0.000 C 
ATOM      3  C   UNL     1       0.144  10.975  21.876  0.00  0.00    +0.000 C 
ATOM      4  O   UNL     1       0.436  10.310  22.845  0.00  0.00    +0.000 OA
ATOM      5  N   UNL     1      -0.542  12.139  21.719  0.00  0.00    +0.000 N 
ENDROOT
BRANCH   1   8
ATOM      6  C   UNL     1      -4.369  12.514  19.382  0.00  0.00    +0.000 A 
ATOM      7  C   UNL     1      -3.144  12.531  20.068  0.00  0.00    +0.000 A 
ATOM      8  C   UNL     1      -1.992  11.885  19.591  0.00  0.00    +0.000 A 
ATOM      9  C   UNL     1      -2.175  11.097  18.447  0.00  0.00    +0.000 A 
ATOM     10  C   UNL     1      -3.417  10.963  17.799  0.00  0.00    +0.000 A 
ATOM     11  C   UNL     1      -4.539  11.683  18.259  0.00  0.00    +0.000 A 
BRANCH   6  13
ATOM     12  C   UNL     1      -5.000  14.424  20.633  0.00  0.00    +0.000 C 
ATOM     13  O   UNL     1      -5.396  13.314  19.818  0.00  0.00    +0.000 OA
ENDBRANCH   6  13
BRANCH  10  14
ATOM     14  O   UNL     1      -3.316  10.129  16.712  0.00  0.00    +0.000 OA
ATOM     15  C   UNL     1      -2.911  10.662  15.461  0.00  0.00    +0.000 C 
ENDBRANCH  10  14
BRANCH  11  16
ATOM     16  O   UNL     1      -5.689  11.527  17.536  0.00  0.00    +0.000 OA
ATOM     17  C   UNL     1      -6.870  11.027  18.138  0.00  0.00    +0.000 C 
ENDBRANCH  11  16
ENDBRANCH   1   8
BRANCH   5  18
ATOM     18  C   UNL     1      -1.186  12.970  22.636  0.00  0.00    +0.000 A 
ATOM     19  C   UNL     1      -0.648  14.225  22.911  0.00  0.00    +0.000 A 
ATOM     20  C   UNL     1      -1.267  15.111  23.795  0.00  0.00    +0.000 A 
ATOM     21  C   UNL     1      -2.438  14.723  24.471  0.00  0.00    +0.000 A 
ATOM     22  C   UNL     1      -2.975  13.443  24.222  0.00  0.00    +0.000 A 
ATOM     23  C   UNL     1      -2.358  12.590  23.291  0.00  0.00    +0.000 A 
BRANCH  20  24
ATOM     24  O   UNL     1      -0.765  16.367  24.051  0.00  0.00    +0.000 OA
ATOM     25  C   UNL     1      -0.216  17.053  22.927  0.00  0.00    +0.000 C 
ENDBRANCH  20  24
BRANCH  21  26
ATOM     26  O   UNL     1      -2.912  15.629  25.389  0.00  0.00    +0.000 OA
ATOM     27  C   UNL     1      -3.999  16.456  24.995  0.00  0.00    +0.000 C 
ENDBRANCH  21  26
BRANCH  22  28
ATOM     28  O   UNL     1      -4.116  13.075  24.889  0.00  0.00    +0.000 OA
ATOM     29  C   UNL     1      -5.308  12.961  24.119  0.00  0.00    +0.000 C 
ENDBRANCH  22  28
ENDBRANCH   5  18
BRANCH   2  30
ATOM     30  O   UNL     1       0.089   9.644  19.751  0.00  0.00    +0.000 OA
BRANCH  30  31
ATOM     31  C   UNL     1       1.103   8.812  19.351  0.00  0.00    +0.000 A 
ATOM     32  C   UNL     1       1.646   7.785  20.124  0.00  0.00    +0.000 A 
ATOM     33  C   UNL     1       2.674   6.992  19.610  0.00  0.00    +0.000 A 
ATOM     34  C   UNL     1       3.161   7.221  18.325  0.00  0.00    +0.000 A 
ATOM     35  C   UNL     1       2.615   8.242  17.548  0.00  0.00    +0.000 A 
ATOM     36  C   UNL     1       1.589   9.037  18.063  0.00  0.00    +0.000 A 
ENDBRANCH  30  31
ENDBRANCH   2  30
TORSDOF 10
ENDMDL
MODEL 6
REMARK VINA RESULT:      -6.5      0.852      1.195
REMARK  Name = 
REMARK  16 active torsions:
REMARK  status: ('A' for Active; 'I' for Inactive)
REMARK    1  A    between atoms: C_1  and  O_2
REMARK    2  A    between atoms: O_2  and  C_3
REMARK    3  A    between atoms: C_5  and  C_6
REMARK    4  A    between atoms: C_7  and  O_8
REMARK    5  A    between atoms: O_8  and  C_9
REMARK    6  A    between atoms: N_17  and  C_18
REMARK    7  A    between atoms: C_20  and  O_21
REMARK    8  A    between atoms: O_21  and  C_22
REMARK    9  A    between atoms: C_23  and  O_24
REMARK   10  A    between atoms: O_24  and  C_25
REMARK   11  A    between atoms: C_26  and  O_27
REMARK   12  A    between atoms: O_27  and  C_28
REMARK   13  A    between atoms: C_31  and  O_32
REMARK   14  A    between atoms: O_32  and  C_33
REMARK   15  A    between atoms: C_34  and  O_35
REMARK   16  A    between atoms: O_35  and  C_36
REMARK                            x       y       z     vdW  Elec       q    Type
REMARK                         _______ _______ _______ _____ _____    ______ ____
ROOT
ATOM      1  C   UNL     1      -0.730  12.607  20.061  0.00  0.00    +0.000 C 
ATOM      2  C   UNL     1       0.249  11.392  20.176  0.00  0.00    +0.000 C 
ATOM      3  C   UNL     1       0.020  11.522  21.694  0.00  0.00    +0.000 C 
ATOM      4  O   UNL     1       0.341  10.884  22.671  0.00  0.00    +0.000 OA
ATOM      5  N   UNL     1      -0.649  12.694  21.525  0.00  0.00    +0.000 N 
ENDROOT
BRANCH   1   8
ATOM      6  C   UNL     1      -3.703  11.431  17.774  0.00  0.00    +0.000 A 
ATOM      7  C   UNL     1      -2.425  11.808  18.219  0.00  0.00    +0.000 A 
ATOM      8  C   UNL     1      -2.195  12.398  19.472  0.00  0.00    +0.000 A 
ATOM      9  C   UNL     1      -3.346  12.719  20.205  0.00  0.00    +0.000 A 
ATOM     10  C   UNL     1      -4.649  12.461  19.740  0.00  0.00    +0.000 A 
ATOM     11  C   UNL     1      -4.845  11.801  18.509  0.00  0.00    +0.000 A 
BRANCH   6  13
ATOM     12  C   UNL     1      -2.626  10.583  15.843  0.00  0.00    +0.000 C 
ATOM     13  O   UNL     1      -3.824  10.700  16.619  0.00  0.00    +0.000 OA
ENDBRANCH   6  13
BRANCH  10  14
ATOM     14  O   UNL     1      -5.588  12.882  20.650  0.00  0.00    +0.000 OA
ATOM     15  C   UNL     1      -5.402  14.119  21.320  0.00  0.00    +0.000 C 
ENDBRANCH  10  14
BRANCH  11  16
ATOM     16  O   UNL     1      -6.143  11.550  18.164  0.00  0.00    +0.000 OA
ATOM     17  C   UNL     1      -6.847  10.447  18.709  0.00  0.00    +0.000 C 
ENDBRANCH  11  16
ENDBRANCH   1   8
BRANCH   5  18
ATOM     18  C   UNL     1      -1.236  13.569  22.440  0.00  0.00    +0.000 A 
ATOM     19  C   UNL     1      -2.235  13.098  23.288  0.00  0.00    +0.000 A 
ATOM     20  C   UNL     1      -2.834  13.920  24.244  0.00  0.00    +0.000 A 
ATOM     21  C   UNL     1      -2.466  15.275  24.333  0.00  0.00    +0.000 A 
ATOM     22  C   UNL     1      -1.477  15.770  23.459  0.00  0.00    +0.000 A 
ATOM     23  C   UNL     1      -0.856  14.908  22.539  0.00  0.00    +0.000 A 
BRANCH  20  24
ATOM     24  O   UNL     1      -3.798  13.460  25.111  0.00  0.00    +0.000 OA
ATOM     25  C   UNL     1      -4.618  12.401  24.618  0.00  0.00    +0.000 C 
ENDBRANCH  20  24
BRANCH  21  26
ATOM     26  O   UNL     1      -3.183  16.019  25.239  0.00  0.00    +0.000 OA
ATOM     27  C   UNL     1      -4.308  16.740  24.753  0.00  0.00    +0.000 C 
ENDBRANCH  21  26
BRANCH  22  28
ATOM     28  O   UNL     1      -1.127  17.094  23.553  0.00  0.00    +0.000 OA
ATOM     29  C   UNL     1      -1.505  17.942  22.473  0.00  0.00    +0.000 C 
ENDBRANCH  22  28
ENDBRANCH   5  18
BRANCH   2  30
ATOM     30  O   UNL     1      -0.153  10.121  19.620  0.00  0.00    +0.000 OA
BRANCH  30  31
ATOM     31  C   UNL     1       0.826   9.252  19.212  0.00  0.00    +0.000 A 
ATOM     32  C   UNL     1       1.426   9.256  17.952  0.00  0.00    +0.000 A 
ATOM     33  C   UNL     1       2.421   8.326  17.649  0.00  0.00    +0.000 A 
ATOM     34  C   UNL     1       2.820   7.389  18.601  0.00  0.00    +0.000 A 
ATOM     35  C   UNL     1       2.226   7.388  19.862  0.00  0.00    +0.000 A 
ATOM     36  C   UNL     1       1.229   8.316  20.166  0.00  0.00    +0.000 A 
ENDBRANCH  30  31
ENDBRANCH   2  30
TORSDOF 10
ENDMDL
MODEL 7
REMARK VINA RESULT:      -6.5      2.785      3.991
REMARK  Name = 
REMARK  16 active torsions:
REMARK  status: ('A' for Active; 'I' for Inactive)
REMARK    1  A    between atoms: C_1  and  O_2
REMARK    2  A    between atoms: O_2  and  C_3
REMARK    3  A    between atoms: C_5  and  C_6
REMARK    4  A    between atoms: C_7  and  O_8
REMARK    5  A    between atoms: O_8  and  C_9
REMARK    6  A    between atoms: N_17  and  C_18
REMARK    7  A    between atoms: C_20  and  O_21
REMARK    8  A    between atoms: O_21  and  C_22
REMARK    9  A    between atoms: C_23  and  O_24
REMARK   10  A    between atoms: O_24  and  C_25
REMARK   11  A    between atoms: C_26  and  O_27
REMARK   12  A    between atoms: O_27  and  C_28
REMARK   13  A    between atoms: C_31  and  O_32
REMARK   14  A    between atoms: O_32  and  C_33
REMARK   15  A    between atoms: C_34  and  O_35
REMARK   16  A    between atoms: O_35  and  C_36
REMARK                            x       y       z     vdW  Elec       q    Type
REMARK                         _______ _______ _______ _____ _____    ______ ____
ROOT
ATOM      1  C   UNL     1      -0.209  12.593  18.451  0.00  0.00    +0.000 C 
ATOM      2  C   UNL     1       0.850  11.732  19.217  0.00  0.00    +0.000 C 
ATOM      3  C   UNL     1       0.764  12.827  20.297  0.00  0.00    +0.000 C 
ATOM      4  O   UNL     1       1.219  12.979  21.408  0.00  0.00    +0.000 OA
ATOM      5  N   UNL     1       0.010  13.615  19.484  0.00  0.00    +0.000 N 
ENDROOT
BRANCH   1   8
ATOM      6  C   UNL     1      -3.997  11.878  19.221  0.00  0.00    +0.000 A 
ATOM      7  C   UNL     1      -2.625  12.136  19.378  0.00  0.00    +0.000 A 
ATOM      8  C   UNL     1      -1.710  12.076  18.315  0.00  0.00    +0.000 A 
ATOM      9  C   UNL     1      -2.228  11.603  17.102  0.00  0.00    +0.000 A 
ATOM     10  C   UNL     1      -3.574  11.224  16.938  0.00  0.00    +0.000 A 
ATOM     11  C   UNL     1      -4.485  11.366  18.005  0.00  0.00    +0.000 A 
BRANCH   6  13
ATOM     12  C   UNL     1      -4.272  12.827  21.374  0.00  0.00    +0.000 C 
ATOM     13  O   UNL     1      -4.853  12.131  20.264  0.00  0.00    +0.000 OA
ENDBRANCH   6  13
BRANCH  10  14
ATOM     14  O   UNL     1      -3.810  10.792  15.656  0.00  0.00    +0.000 OA
ATOM     15  C   UNL     1      -3.068   9.697  15.143  0.00  0.00    +0.000 C 
ENDBRANCH  10  14
BRANCH  11  16
ATOM     16  O   UNL     1      -5.780  11.018  17.737  0.00  0.00    +0.000 OA
ATOM     17  C   UNL     1      -6.828  11.967  17.832  0.00  0.00    +0.000 C 
ENDBRANCH  11  16
ENDBRANCH   1   8
BRANCH   5  18
ATOM     18  C   UNL     1      -0.537  14.886  19.666  0.00  0.00    +0.000 A 
ATOM     19  C   UNL     1      -1.200  15.176  20.856  0.00  0.00    +0.000 A 
ATOM     20  C   UNL     1      -1.738  16.440  21.106  0.00  0.00    +0.000 A 
ATOM     21  C   UNL     1      -1.660  17.442  20.122  0.00  0.00    +0.000 A 
ATOM     22  C   UNL     1      -1.016  17.150  18.902  0.00  0.00    +0.000 A 
ATOM     23  C   UNL     1      -0.441  15.884  18.696  0.00  0.00    +0.000 A 
BRANCH  20  24
ATOM     24  O   UNL     1      -2.367  16.752  22.290  0.00  0.00    +0.000 OA
ATOM     25  C   UNL     1      -2.399  15.711  23.265  0.00  0.00    +0.000 C 
ENDBRANCH  20  24
BRANCH  21  26
ATOM     26  O   UNL     1      -2.304  18.616  20.429  0.00  0.00    +0.000 OA
ATOM     27  C   UNL     1      -3.724  18.627  20.351  0.00  0.00    +0.000 C 
ENDBRANCH  21  26
BRANCH  22  28
ATOM     28  O   UNL     1      -0.948  18.134  17.948  0.00  0.00    +0.000 OA
ATOM     29  C   UNL     1       0.263  18.235  17.207  0.00  0.00    +0.000 C 
ENDBRANCH  22  28
ENDBRANCH   5  18
BRANCH   2  30
ATOM     30  O   UNL     1       0.474  10.414  19.675  0.00  0.00    +0.000 OA
BRANCH  30  31
ATOM     31  C   UNL     1       1.215   9.343  19.247  0.00  0.00    +0.000 A 
ATOM     32  C   UNL     1       1.757   9.205  17.968  0.00  0.00    +0.000 A 
ATOM     33  C   UNL     1       2.503   8.070  17.645  0.00  0.00    +0.000 A 
ATOM     34  C   UNL     1       2.710   7.072  18.594  0.00  0.00    +0.000 A 
ATOM     35  C   UNL     1       2.175   7.211  19.874  0.00  0.00    +0.000 A 
ATOM     36  C   UNL     1       1.426   8.344  20.198  0.00  0.00    +0.000 A 
ENDBRANCH  30  31
ENDBRANCH   2  30
TORSDOF 10
ENDMDL
MODEL 8
REMARK VINA RESULT:      -6.5      1.245      2.553
REMARK  Name = 
REMARK  16 active torsions:
REMARK  status: ('A' for Active; 'I' for Inactive)
REMARK    1  A    between atoms: C_1  and  O_2
REMARK    2  A    between atoms: O_2  and  C_3
REMARK    3  A    between atoms: C_5  and  C_6
REMARK    4  A    between atoms: C_7  and  O_8
REMARK    5  A    between atoms: O_8  and  C_9
REMARK    6  A    between atoms: N_17  and  C_18
REMARK    7  A    between atoms: C_20  and  O_21
REMARK    8  A    between atoms: O_21  and  C_22
REMARK    9  A    between atoms: C_23  and  O_24
REMARK   10  A    between atoms: O_24  and  C_25
REMARK   11  A    between atoms: C_26  and  O_27
REMARK   12  A    between atoms: O_27  and  C_28
REMARK   13  A    between atoms: C_31  and  O_32
REMARK   14  A    between atoms: O_32  and  C_33
REMARK   15  A    between atoms: C_34  and  O_35
REMARK   16  A    between atoms: O_35  and  C_36
REMARK                            x       y       z     vdW  Elec       q    Type
REMARK                         _______ _______ _______ _____ _____    ______ ____
ROOT
ATOM      1  C   UNL     1       0.145  12.000  19.670  0.00  0.00    +0.000 C 
ATOM      2  C   UNL     1       1.059  10.742  19.844  0.00  0.00    +0.000 C 
ATOM      3  C   UNL     1       0.822  10.942  21.352  0.00  0.00    +0.000 C 
ATOM      4  O   UNL     1       1.100  10.328  22.358  0.00  0.00    +0.000 OA
ATOM      5  N   UNL     1       0.216  12.139  21.131  0.00  0.00    +0.000 N 
ENDROOT
BRANCH   1   8
ATOM      6  C   UNL     1      -2.881  10.801  17.468  0.00  0.00    +0.000 A 
ATOM      7  C   UNL     1      -1.583  11.121  17.897  0.00  0.00    +0.000 A 
ATOM      8  C   UNL     1      -1.323  11.843  19.072  0.00  0.00    +0.000 A 
ATOM      9  C   UNL     1      -2.453  12.351  19.728  0.00  0.00    +0.000 A 
ATOM     10  C   UNL     1      -3.766  12.147  19.263  0.00  0.00    +0.000 A 
ATOM     11  C   UNL     1      -3.998  11.356  18.119  0.00  0.00    +0.000 A 
BRANCH   6  13
ATOM     12  C   UNL     1      -3.005  10.557  15.115  0.00  0.00    +0.000 C 
ATOM     13  O   UNL     1      -3.048   9.943  16.409  0.00  0.00    +0.000 OA
ENDBRANCH   6  13
BRANCH  10  14
ATOM     14  O   UNL     1      -4.679  12.758  20.088  0.00  0.00    +0.000 OA
ATOM     15  C   UNL     1      -4.332  13.974  20.730  0.00  0.00    +0.000 C 
ENDBRANCH  10  14
BRANCH  11  16
ATOM     16  O   UNL     1      -5.308  11.175  17.772  0.00  0.00    +0.000 OA
ATOM     17  C   UNL     1      -6.035  12.188  17.098  0.00  0.00    +0.000 C 
ENDBRANCH  11  16
ENDBRANCH   1   8
BRANCH   5  18
ATOM     18  C   UNL     1      -0.335  13.079  22.004  0.00  0.00    +0.000 A 
ATOM     19  C   UNL     1       0.237  14.346  22.087  0.00  0.00    +0.000 A 
ATOM     20  C   UNL     1      -0.291  15.335  22.919  0.00  0.00    +0.000 A 
ATOM     21  C   UNL     1      -1.398  15.046  23.737  0.00  0.00    +0.000 A 
ATOM     22  C   UNL     1      -1.966  13.757  23.683  0.00  0.00    +0.000 A 
ATOM     23  C   UNL     1      -1.445  12.795  22.801  0.00  0.00    +0.000 A 
BRANCH  20  24
ATOM     24  O   UNL     1       0.243  16.602  22.986  0.00  0.00    +0.000 OA
ATOM     25  C   UNL     1       0.109  17.393  21.807  0.00  0.00    +0.000 C 
ENDBRANCH  20  24
BRANCH  21  26
ATOM     26  O   UNL     1      -1.778  16.057  24.587  0.00  0.00    +0.000 OA
ATOM     27  C   UNL     1      -2.889  16.855  24.202  0.00  0.00    +0.000 C 
ENDBRANCH  21  26
BRANCH  22  28
ATOM     28  O   UNL     1      -3.044  13.485  24.487  0.00  0.00    +0.000 OA
ATOM     29  C   UNL     1      -3.892  12.411  24.093  0.00  0.00    +0.000 C 
ENDBRANCH  22  28
ENDBRANCH   5  18
BRANCH   2  30
ATOM     30  O   UNL     1       0.598   9.472  19.332  0.00  0.00    +0.000 OA
BRANCH  30  31
ATOM     31  C   UNL     1       1.534   8.539  18.968  0.00  0.00    +0.000 A 
ATOM     32  C   UNL     1       2.249   8.549  17.769  0.00  0.00    +0.000 A 
ATOM     33  C   UNL     1       3.187   7.549  17.507  0.00  0.00    +0.000 A 
ATOM     34  C   UNL     1       3.414   6.539  18.438  0.00  0.00    +0.000 A 
ATOM     35  C   UNL     1       2.706   6.531  19.639  0.00  0.00    +0.000 A 
ATOM     36  C   UNL     1       1.766   7.529  19.901  0.00  0.00    +0.000 A 
ENDBRANCH  30  31
ENDBRANCH   2  30
TORSDOF 10
ENDMDL
MODEL 9
REMARK VINA RESULT:      -6.4      1.264      2.692
REMARK  Name = 
REMARK  16 active torsions:
REMARK  status: ('A' for Active; 'I' for Inactive)
REMARK    1  A    between atoms: C_1  and  O_2
REMARK    2  A    between atoms: O_2  and  C_3
REMARK    3  A    between atoms: C_5  and  C_6
REMARK    4  A    between atoms: C_7  and  O_8
REMARK    5  A    between atoms: O_8  and  C_9
REMARK    6  A    between atoms: N_17  and  C_18
REMARK    7  A    between atoms: C_20  and  O_21
REMARK    8  A    between atoms: O_21  and  C_22
REMARK    9  A    between atoms: C_23  and  O_24
REMARK   10  A    between atoms: O_24  and  C_25
REMARK   11  A    between atoms: C_26  and  O_27
REMARK   12  A    between atoms: O_27  and  C_28
REMARK   13  A    between atoms: C_31  and  O_32
REMARK   14  A    between atoms: O_32  and  C_33
REMARK   15  A    between atoms: C_34  and  O_35
REMARK   16  A    between atoms: O_35  and  C_36
REMARK                            x       y       z     vdW  Elec       q    Type
REMARK                         _______ _______ _______ _____ _____    ______ ____
ROOT
ATOM      1  C   UNL     1       0.055  11.924  19.469  0.00  0.00    +0.000 C 
ATOM      2  C   UNL     1       1.058  10.728  19.577  0.00  0.00    +0.000 C 
ATOM      3  C   UNL     1       0.981  10.972  21.096  0.00  0.00    +0.000 C 
ATOM      4  O   UNL     1       1.408  10.414  22.081  0.00  0.00    +0.000 OA
ATOM      5  N   UNL     1       0.281  12.123  20.907  0.00  0.00    +0.000 N 
ENDROOT
BRANCH   1   8
ATOM      6  C   UNL     1      -3.856  12.224  19.217  0.00  0.00    +0.000 A 
ATOM      7  C   UNL     1      -2.538  12.283  19.698  0.00  0.00    +0.000 A 
ATOM      8  C   UNL     1      -1.459  11.660  19.050  0.00  0.00    +0.000 A 
ATOM      9  C   UNL     1      -1.799  10.852  17.957  0.00  0.00    +0.000 A 
ATOM     10  C   UNL     1      -3.125  10.677  17.516  0.00  0.00    +0.000 A 
ATOM     11  C   UNL     1      -4.179  11.373  18.143  0.00  0.00    +0.000 A 
BRANCH   6  13
ATOM     12  C   UNL     1      -4.335  13.991  20.719  0.00  0.00    +0.000 C 
ATOM     13  O   UNL     1      -4.822  13.003  19.804  0.00  0.00    +0.000 OA
ENDBRANCH   6  13
BRANCH  10  14
ATOM     14  O   UNL     1      -3.175   9.830  16.435  0.00  0.00    +0.000 OA
ATOM     15  C   UNL     1      -2.994  10.358  15.130  0.00  0.00    +0.000 C 
ENDBRANCH  10  14
BRANCH  11  16
ATOM     16  O   UNL     1      -5.424  11.177  17.614  0.00  0.00    +0.000 OA
ATOM     17  C   UNL     1      -6.475  10.635  18.396  0.00  0.00    +0.000 C 
ENDBRANCH  11  16
ENDBRANCH   1   8
BRANCH   5  18
ATOM     18  C   UNL     1      -0.223  13.063  21.808  0.00  0.00    +0.000 A 
ATOM     19  C   UNL     1      -1.300  12.716  22.620  0.00  0.00    +0.000 A 
ATOM     20  C   UNL     1      -1.824  13.604  23.561  0.00  0.00    +0.000 A 
ATOM     21  C   UNL     1      -1.296  14.903  23.670  0.00  0.00    +0.000 A 
ATOM     22  C   UNL     1      -0.224  15.274  22.831  0.00  0.00    +0.000 A 
ATOM     23  C   UNL     1       0.316  14.345  21.926  0.00  0.00    +0.000 A 
BRANCH  20  24
ATOM     24  O   UNL     1      -2.866  13.264  24.394  0.00  0.00    +0.000 OA
ATOM     25  C   UNL     1      -3.753  12.264  23.897  0.00  0.00    +0.000 C 
ENDBRANCH  20  24
BRANCH  21  26
ATOM     26  O   UNL     1      -1.945  15.728  24.556  0.00  0.00    +0.000 OA
ATOM     27  C   UNL     1      -1.373  15.883  25.849  0.00  0.00    +0.000 C 
ENDBRANCH  21  26
BRANCH  22  28
ATOM     28  O   UNL     1       0.281  16.545  22.944  0.00  0.00    +0.000 OA
ATOM     29  C   UNL     1      -0.031  17.462  21.900  0.00  0.00    +0.000 C 
ENDBRANCH  22  28
ENDBRANCH   5  18
BRANCH   2  30
ATOM     30  O   UNL     1       0.621   9.415  19.162  0.00  0.00    +0.000 OA
BRANCH  30  31
ATOM     31  C   UNL     1       1.575   8.470  18.886  0.00  0.00    +0.000 A 
ATOM     32  C   UNL     1       2.358   8.438  17.731  0.00  0.00    +0.000 A 
ATOM     33  C   UNL     1       3.307   7.429  17.559  0.00  0.00    +0.000 A 
ATOM     34  C   UNL     1       3.477   6.451  18.536  0.00  0.00    +0.000 A 
ATOM     35  C   UNL     1       2.700   6.485  19.693  0.00  0.00    +0.000 A 
ATOM     36  C   UNL     1       1.749   7.492  19.865  0.00  0.00    +0.000 A 
ENDBRANCH  30  31
ENDBRANCH   2  30
TORSDOF 10
ENDMDL
