MODEL 1
REMARK VINA RESULT:      -8.3      0.000      0.000
REMARK  Name = 
REMARK  9 active torsions:
REMARK  status: ('A' for Active; 'I' for Inactive)
REMARK    1  A    between atoms: C_1  and  C_2
REMARK    2  A    between atoms: C_4  and  N_5
REMARK    3  A    between atoms: N_5  and  S_6
REMARK    4  A    between atoms: S_6  and  C_9
REMARK    5  A    between atoms: C_12  and  N_13
REMARK    6  A    between atoms: C_14  and  C_16
REMARK    7  A    between atoms: C_16  and  O_17
REMARK    8  A    between atoms: O_17  and  C_18
REMARK    9  A    between atoms: C_28  and  C_29
REMARK                            x       y       z     vdW  Elec       q    Type
REMARK                         _______ _______ _______ _____ _____    ______ ____
ROOT
ATOM      1  C   UNL     1       5.193   4.972  17.677  0.00  0.00    +0.000 A 
ATOM      2  C   UNL     1       4.168   4.108  17.274  0.00  0.00    +0.000 A 
ATOM      3  C   UNL     1       3.472   3.371  18.246  0.00  0.00    +0.000 A 
ATOM      4  C   UNL     1       3.806   3.501  19.596  0.00  0.00    +0.000 A 
ATOM      5  C   UNL     1       4.851   4.338  19.988  0.00  0.00    +0.000 A 
ATOM      6  C   UNL     1       5.555   5.057  19.025  0.00  0.00    +0.000 A 
ENDROOT
BRANCH   4   7
ATOM      7  N   UNL     1       3.079   2.808  20.572  0.00  0.00    +0.000 N 
ATOM      8  C   UNL     1       1.828   3.138  21.038  0.00  0.00    +0.000 C 
ATOM      9  O   UNL     1       1.275   2.429  21.877  0.00  0.00    +0.000 OA
ATOM     10  H   UNL     1       3.454   1.937  20.930  0.00  0.00    +0.000 HD
BRANCH   8  11
ATOM     11  C   UNL     1       1.177   4.395  20.480  0.00  0.00    +0.000 C 
BRANCH  11  12
ATOM     12  O   UNL     1       1.801   5.515  21.098  0.00  0.00    +0.000 OA
BRANCH  12  13
ATOM     13  C   UNL     1       1.767   6.673  20.383  0.00  0.00    +0.000 A 
ATOM     14  C   UNL     1       1.153   7.752  21.023  0.00  0.00    +0.000 A 
ATOM     15  C   UNL     1       1.072   8.993  20.389  0.00  0.00    +0.000 A 
ATOM     16  C   UNL     1       1.618   9.154  19.118  0.00  0.00    +0.000 A 
ATOM     17 CL   UNL     1       1.524  10.679  18.329  0.00  0.00    +0.000 Cl
ATOM     18  C   UNL     1       2.238   8.085  18.477  0.00  0.00    +0.000 A 
ATOM     19  C   UNL     1       2.319   6.845  19.112  0.00  0.00    +0.000 A 
ENDBRANCH  12  13
ENDBRANCH  11  12
ENDBRANCH   8  11
ENDBRANCH   4   7
BRANCH   1  20
ATOM     20  S   UNL     1       6.124   5.948  16.519  0.00  0.00    +0.000 S 
ATOM     21  O   UNL     1       6.935   6.884  17.269  0.00  0.00    +0.000 OA
ATOM     22  O   UNL     1       5.218   6.429  15.495  0.00  0.00    +0.000 OA
BRANCH  20  23
ATOM     23  N   UNL     1       7.187   4.852  15.825  0.00  0.00    +0.000 N 
ATOM     24  H   UNL     1       8.112   4.894  16.242  0.00  0.00    +0.000 HD
BRANCH  23  28
ATOM     25  C   UNL     1       5.501   2.549  11.800  0.00  0.00    +0.000 C 
ATOM     26  C   UNL     1       6.317   3.578  12.516  0.00  0.00    +0.000 A 
ATOM     27  C   UNL     1       6.358   3.630  13.894  0.00  0.00    +0.000 A 
ATOM     28  C   UNL     1       7.115   4.645  14.430  0.00  0.00    +0.000 A 
ATOM     29  N   UNL     1       7.801   5.536  13.711  0.00  0.00    +0.000 NA
ATOM     30  C   UNL     1       7.710   5.412  12.372  0.00  0.00    +0.000 A 
ATOM     31  C   UNL     1       8.437   6.389  11.511  0.00  0.00    +0.000 C 
ATOM     32  N   UNL     1       6.986   4.462  11.747  0.00  0.00    +0.000 NA
ENDBRANCH  23  28
ENDBRANCH  20  23
ENDBRANCH   1  20
TORSDOF 7
ENDMDL
MODEL 2
REMARK VINA RESULT:      -8.0      0.211      1.267
REMARK  Name = 
REMARK  9 active torsions:
REMARK  status: ('A' for Active; 'I' for Inactive)
REMARK    1  A    between atoms: C_1  and  C_2
REMARK    2  A    between atoms: C_4  and  N_5
REMARK    3  A    between atoms: N_5  and  S_6
REMARK    4  A    between atoms: S_6  and  C_9
REMARK    5  A    between atoms: C_12  and  N_13
REMARK    6  A    between atoms: C_14  and  C_16
REMARK    7  A    between atoms: C_16  and  O_17
REMARK    8  A    between atoms: O_17  and  C_18
REMARK    9  A    between atoms: C_28  and  C_29
REMARK                            x       y       z     vdW  Elec       q    Type
REMARK                         _______ _______ _______ _____ _____    ______ ____
ROOT
ATOM      1  C   UNL     1       5.329   5.179  17.633  0.00  0.00    +0.000 A 
ATOM      2  C   UNL     1       5.634   5.255  18.996  0.00  0.00    +0.000 A 
ATOM      3  C   UNL     1       4.860   4.526  19.913  0.00  0.00    +0.000 A 
ATOM      4  C   UNL     1       3.798   3.737  19.462  0.00  0.00    +0.000 A 
ATOM      5  C   UNL     1       3.479   3.693  18.105  0.00  0.00    +0.000 A 
ATOM      6  C   UNL     1       4.233   4.430  17.195  0.00  0.00    +0.000 A 
ENDROOT
BRANCH   4   7
ATOM      7  N   UNL     1       3.058   2.967  20.367  0.00  0.00    +0.000 N 
ATOM      8  C   UNL     1       1.801   3.260  20.844  0.00  0.00    +0.000 C 
ATOM      9  O   UNL     1       1.237   2.485  21.614  0.00  0.00    +0.000 OA
ATOM     10  H   UNL     1       3.428   2.069  20.657  0.00  0.00    +0.000 HD
BRANCH   8  11
ATOM     11  C   UNL     1       1.159   4.560  20.383  0.00  0.00    +0.000 C 
BRANCH  11  12
ATOM     12  O   UNL     1       1.745   5.620  21.130  0.00  0.00    +0.000 OA
BRANCH  12  13
ATOM     13  C   UNL     1       1.654   6.855  20.565  0.00  0.00    +0.000 A 
ATOM     14  C   UNL     1       2.176   6.960  19.273  0.00  0.00    +0.000 A 
ATOM     15  C   UNL     1       2.126   8.177  18.590  0.00  0.00    +0.000 A 
ATOM     16  C   UNL     1       1.541   9.284  19.199  0.00  0.00    +0.000 A 
ATOM     17 CL   UNL     1       1.474  10.787  18.366  0.00  0.00    +0.000 Cl
ATOM     18  C   UNL     1       1.012   9.185  20.484  0.00  0.00    +0.000 A 
ATOM     19  C   UNL     1       1.063   7.968  21.165  0.00  0.00    +0.000 A 
ENDBRANCH  12  13
ENDBRANCH  11  12
ENDBRANCH   8  11
ENDBRANCH   4   7
BRANCH   1  20
ATOM     20  S   UNL     1       6.257   6.064  16.401  0.00  0.00    +0.000 S 
ATOM     21  O   UNL     1       7.134   6.995  17.080  0.00  0.00    +0.000 OA
ATOM     22  O   UNL     1       5.336   6.540  15.388  0.00  0.00    +0.000 OA
BRANCH  20  23
ATOM     23  N   UNL     1       7.247   4.894  15.719  0.00  0.00    +0.000 N 
ATOM     24  H   UNL     1       8.176   4.888  16.129  0.00  0.00    +0.000 HD
BRANCH  23  28
ATOM     25  C   UNL     1       5.532   2.501  11.760  0.00  0.00    +0.000 C 
ATOM     26  C   UNL     1       6.339   3.557  12.446  0.00  0.00    +0.000 A 
ATOM     27  C   UNL     1       6.407   3.629  13.822  0.00  0.00    +0.000 A 
ATOM     28  C   UNL     1       7.151   4.666  14.329  0.00  0.00    +0.000 A 
ATOM     29  N   UNL     1       7.803   5.563  13.585  0.00  0.00    +0.000 NA
ATOM     30  C   UNL     1       7.688   5.419  12.250  0.00  0.00    +0.000 A 
ATOM     31  C   UNL     1       8.375   6.400  11.361  0.00  0.00    +0.000 C 
ATOM     32  N   UNL     1       6.972   4.445  11.652  0.00  0.00    +0.000 NA
ENDBRANCH  23  28
ENDBRANCH  20  23
ENDBRANCH   1  20
TORSDOF 7
ENDMDL
MODEL 3
REMARK VINA RESULT:      -8.0      3.324      5.020
REMARK  Name = 
REMARK  9 active torsions:
REMARK  status: ('A' for Active; 'I' for Inactive)
REMARK    1  A    between atoms: C_1  and  C_2
REMARK    2  A    between atoms: C_4  and  N_5
REMARK    3  A    between atoms: N_5  and  S_6
REMARK    4  A    between atoms: S_6  and  C_9
REMARK    5  A    between atoms: C_12  and  N_13
REMARK    6  A    between atoms: C_14  and  C_16
REMARK    7  A    between atoms: C_16  and  O_17
REMARK    8  A    between atoms: O_17  and  C_18
REMARK    9  A    between atoms: C_28  and  C_29
REMARK                            x       y       z     vdW  Elec       q    Type
REMARK                         _______ _______ _______ _____ _____    ______ ____
ROOT
ATOM      1  C   UNL     1       2.525   4.745  18.772  0.00  0.00    +0.000 A 
ATOM      2  C   UNL     1       2.777   6.050  18.333  0.00  0.00    +0.000 A 
ATOM      3  C   UNL     1       2.491   7.126  19.189  0.00  0.00    +0.000 A 
ATOM      4  C   UNL     1       1.960   6.890  20.459  0.00  0.00    +0.000 A 
ATOM      5  C   UNL     1       1.681   5.589  20.877  0.00  0.00    +0.000 A 
ATOM      6  C   UNL     1       1.946   4.520  20.024  0.00  0.00    +0.000 A 
ENDROOT
BRANCH   4   7
ATOM      7  N   UNL     1       1.724   7.957  21.334  0.00  0.00    +0.000 N 
ATOM      8  C   UNL     1       1.161   9.168  21.003  0.00  0.00    +0.000 C 
ATOM      9  O   UNL     1       0.974  10.020  21.871  0.00  0.00    +0.000 OA
ATOM     10  H   UNL     1       1.908   7.825  22.322  0.00  0.00    +0.000 HD
BRANCH   8  11
ATOM     11  C   UNL     1       0.791   9.397  19.545  0.00  0.00    +0.000 C 
BRANCH  11  12
ATOM     12  O   UNL     1       0.372  10.751  19.415  0.00  0.00    +0.000 OA
BRANCH  12  13
ATOM     13  C   UNL     1      -0.882  10.931  18.915  0.00  0.00    +0.000 A 
ATOM     14  C   UNL     1      -1.206  10.130  17.817  0.00  0.00    +0.000 A 
ATOM     15  C   UNL     1      -2.469  10.220  17.229  0.00  0.00    +0.000 A 
ATOM     16  C   UNL     1      -3.410  11.104  17.751  0.00  0.00    +0.000 A 
ATOM     17 CL   UNL     1      -4.969  11.221  17.033  0.00  0.00    +0.000 Cl
ATOM     18  C   UNL     1      -3.096  11.900  18.849  0.00  0.00    +0.000 A 
ATOM     19  C   UNL     1      -1.833  11.809  19.436  0.00  0.00    +0.000 A 
ENDBRANCH  12  13
ENDBRANCH  11  12
ENDBRANCH   8  11
ENDBRANCH   4   7
BRANCH   1  20
ATOM     20  S   UNL     1       2.860   3.321  17.760  0.00  0.00    +0.000 S 
ATOM     21  O   UNL     1       2.600   3.678  16.381  0.00  0.00    +0.000 OA
ATOM     22  O   UNL     1       2.199   2.175  18.351  0.00  0.00    +0.000 OA
BRANCH  20  23
ATOM     23  N   UNL     1       4.519   3.111  17.889  0.00  0.00    +0.000 N 
ATOM     24  H   UNL     1       4.800   2.824  18.822  0.00  0.00    +0.000 HD
BRANCH  23  28
ATOM     25  C   UNL     1       7.593   6.967  17.701  0.00  0.00    +0.000 C 
ATOM     26  C   UNL     1       6.827   5.829  17.104  0.00  0.00    +0.000 A 
ATOM     27  C   UNL     1       5.976   5.056  17.868  0.00  0.00    +0.000 A 
ATOM     28  C   UNL     1       5.361   4.018  17.210  0.00  0.00    +0.000 A 
ATOM     29  N   UNL     1       5.524   3.743  15.914  0.00  0.00    +0.000 NA
ATOM     30  C   UNL     1       6.370   4.548  15.240  0.00  0.00    +0.000 A 
ATOM     31  C   UNL     1       6.612   4.282  13.793  0.00  0.00    +0.000 C 
ATOM     32  N   UNL     1       7.032   5.583  15.794  0.00  0.00    +0.000 NA
ENDBRANCH  23  28
ENDBRANCH  20  23
ENDBRANCH   1  20
TORSDOF 7
ENDMDL
MODEL 4
REMARK VINA RESULT:      -7.9      3.479      5.253
REMARK  Name = 
REMARK  9 active torsions:
REMARK  status: ('A' for Active; 'I' for Inactive)
REMARK    1  A    between atoms: C_1  and  C_2
REMARK    2  A    between atoms: C_4  and  N_5
REMARK    3  A    between atoms: N_5  and  S_6
REMARK    4  A    between atoms: S_6  and  C_9
REMARK    5  A    between atoms: C_12  and  N_13
REMARK    6  A    between atoms: C_14  and  C_16
REMARK    7  A    between atoms: C_16  and  O_17
REMARK    8  A    between atoms: O_17  and  C_18
REMARK    9  A    between atoms: C_28  and  C_29
REMARK                            x       y       z     vdW  Elec       q    Type
REMARK                         _______ _______ _______ _____ _____    ______ ____
ROOT
ATOM      1  C   UNL     1       2.422   4.720  18.784  0.00  0.00    +0.000 A 
ATOM      2  C   UNL     1       2.776   5.961  18.241  0.00  0.00    +0.000 A 
ATOM      3  C   UNL     1       2.531   7.127  18.983  0.00  0.00    +0.000 A 
ATOM      4  C   UNL     1       1.939   7.044  20.246  0.00  0.00    +0.000 A 
ATOM      5  C   UNL     1       1.560   5.807  20.767  0.00  0.00    +0.000 A 
ATOM      6  C   UNL     1       1.784   4.649  20.026  0.00  0.00    +0.000 A 
ENDROOT
BRANCH   4   7
ATOM      7  N   UNL     1       1.743   8.200  21.010  0.00  0.00    +0.000 N 
ATOM      8  C   UNL     1       1.100   9.345  20.599  0.00  0.00    +0.000 C 
ATOM      9  O   UNL     1       0.960  10.288  21.377  0.00  0.00    +0.000 OA
ATOM     10  H   UNL     1       2.025   8.193  21.984  0.00  0.00    +0.000 HD
BRANCH   8  11
ATOM     11  C   UNL     1       0.583   9.386  19.169  0.00  0.00    +0.000 C 
BRANCH  11  12
ATOM     12  O   UNL     1       0.205  10.729  18.886  0.00  0.00    +0.000 OA
BRANCH  12  13
ATOM     13  C   UNL     1      -1.115  10.921  18.614  0.00  0.00    +0.000 A 
ATOM     14  C   UNL     1      -1.640  10.111  17.605  0.00  0.00    +0.000 A 
ATOM     15  C   UNL     1      -2.987  10.213  17.250  0.00  0.00    +0.000 A 
ATOM     16  C   UNL     1      -3.808  11.118  17.916  0.00  0.00    +0.000 A 
ATOM     17 CL   UNL     1      -5.468  11.250  17.486  0.00  0.00    +0.000 Cl
ATOM     18  C   UNL     1      -3.293  11.924  18.928  0.00  0.00    +0.000 A 
ATOM     19  C   UNL     1      -1.947  11.821  19.282  0.00  0.00    +0.000 A 
ENDBRANCH  12  13
ENDBRANCH  11  12
ENDBRANCH   8  11
ENDBRANCH   4   7
BRANCH   1  20
ATOM     20  S   UNL     1       2.699   3.191  17.920  0.00  0.00    +0.000 S 
ATOM     21  O   UNL     1       2.635   3.459  16.499  0.00  0.00    +0.000 OA
ATOM     22  O   UNL     1       1.850   2.174  18.507  0.00  0.00    +0.000 OA
BRANCH  20  23
ATOM     23  N   UNL     1       4.298   2.816  18.259  0.00  0.00    +0.000 N 
ATOM     24  H   UNL     1       4.429   2.513  19.220  0.00  0.00    +0.000 HD
BRANCH  23  28
ATOM     25  C   UNL     1       6.713   4.818  14.450  0.00  0.00    +0.000 C 
ATOM     26  C   UNL     1       6.451   4.592  15.905  0.00  0.00    +0.000 A 
ATOM     27  C   UNL     1       5.475   3.715  16.332  0.00  0.00    +0.000 A 
ATOM     28  C   UNL     1       5.308   3.625  17.693  0.00  0.00    +0.000 A 
ATOM     29  N   UNL     1       6.028   4.303  18.589  0.00  0.00    +0.000 NA
ATOM     30  C   UNL     1       6.963   5.135  18.089  0.00  0.00    +0.000 A 
ATOM     31  C   UNL     1       7.790   5.937  19.037  0.00  0.00    +0.000 C 
ATOM     32  N   UNL     1       7.198   5.307  16.773  0.00  0.00    +0.000 NA
ENDBRANCH  23  28
ENDBRANCH  20  23
ENDBRANCH   1  20
TORSDOF 7
ENDMDL
MODEL 5
REMARK VINA RESULT:      -7.8      3.435      5.058
REMARK  Name = 
REMARK  9 active torsions:
REMARK  status: ('A' for Active; 'I' for Inactive)
REMARK    1  A    between atoms: C_1  and  C_2
REMARK    2  A    between atoms: C_4  and  N_5
REMARK    3  A    between atoms: N_5  and  S_6
REMARK    4  A    between atoms: S_6  and  C_9
REMARK    5  A    between atoms: C_12  and  N_13
REMARK    6  A    between atoms: C_14  and  C_16
REMARK    7  A    between atoms: C_16  and  O_17
REMARK    8  A    between atoms: O_17  and  C_18
REMARK    9  A    between atoms: C_28  and  C_29
REMARK                            x       y       z     vdW  Elec       q    Type
REMARK                         _______ _______ _______ _____ _____    ______ ____
ROOT
ATOM      1  C   UNL     1       2.516   4.720  18.777  0.00  0.00    +0.000 A 
ATOM      2  C   UNL     1       2.050   4.603  20.091  0.00  0.00    +0.000 A 
ATOM      3  C   UNL     1       1.775   5.768  20.825  0.00  0.00    +0.000 A 
ATOM      4  C   UNL     1       1.968   7.024  20.246  0.00  0.00    +0.000 A 
ATOM      5  C   UNL     1       2.464   7.133  18.947  0.00  0.00    +0.000 A 
ATOM      6  C   UNL     1       2.756   5.980  18.221  0.00  0.00    +0.000 A 
ENDROOT
BRANCH   4   7
ATOM      7  N   UNL     1       1.644   8.186  20.957  0.00  0.00    +0.000 N 
ATOM      8  C   UNL     1       1.091   9.330  20.432  0.00  0.00    +0.000 C 
ATOM      9  O   UNL     1       0.819  10.278  21.167  0.00  0.00    +0.000 OA
ATOM     10  H   UNL     1       1.748   8.183  21.965  0.00  0.00    +0.000 HD
BRANCH   8  11
ATOM     11  C   UNL     1       0.838   9.367  18.932  0.00  0.00    +0.000 C 
BRANCH  11  12
ATOM     12  O   UNL     1       0.318  10.653  18.613  0.00  0.00    +0.000 OA
BRANCH  12  13
ATOM     13  C   UNL     1      -1.006  10.687  18.300  0.00  0.00    +0.000 A 
ATOM     14  C   UNL     1      -1.751  11.665  18.963  0.00  0.00    +0.000 A 
ATOM     15  C   UNL     1      -3.117  11.802  18.711  0.00  0.00    +0.000 A 
ATOM     16  C   UNL     1      -3.733  10.964  17.785  0.00  0.00    +0.000 A 
ATOM     17 CL   UNL     1      -5.416  11.125  17.467  0.00  0.00    +0.000 Cl
ATOM     18  C   UNL     1      -2.996   9.991  17.115  0.00  0.00    +0.000 A 
ATOM     19  C   UNL     1      -1.630   9.857  17.367  0.00  0.00    +0.000 A 
ENDBRANCH  12  13
ENDBRANCH  11  12
ENDBRANCH   8  11
ENDBRANCH   4   7
BRANCH   1  20
ATOM     20  S   UNL     1       2.885   3.301  17.770  0.00  0.00    +0.000 S 
ATOM     21  O   UNL     1       2.632   3.652  16.388  0.00  0.00    +0.000 OA
ATOM     22  O   UNL     1       2.238   2.144  18.355  0.00  0.00    +0.000 OA
BRANCH  20  23
ATOM     23  N   UNL     1       4.545   3.120  17.915  0.00  0.00    +0.000 N 
ATOM     24  H   UNL     1       4.824   2.848  18.854  0.00  0.00    +0.000 HD
BRANCH  23  28
ATOM     25  C   UNL     1       7.590   6.998  17.713  0.00  0.00    +0.000 C 
ATOM     26  C   UNL     1       6.831   5.853  17.120  0.00  0.00    +0.000 A 
ATOM     27  C   UNL     1       5.989   5.075  17.887  0.00  0.00    +0.000 A 
ATOM     28  C   UNL     1       5.379   4.032  17.232  0.00  0.00    +0.000 A 
ATOM     29  N   UNL     1       5.540   3.757  15.936  0.00  0.00    +0.000 NA
ATOM     30  C   UNL     1       6.377   4.567  15.258  0.00  0.00    +0.000 A 
ATOM     31  C   UNL     1       6.617   4.301  13.811  0.00  0.00    +0.000 C 
ATOM     32  N   UNL     1       7.034   5.608  15.809  0.00  0.00    +0.000 NA
ENDBRANCH  23  28
ENDBRANCH  20  23
ENDBRANCH   1  20
TORSDOF 7
ENDMDL
MODEL 6
REMARK VINA RESULT:      -7.7      4.021      5.925
REMARK  Name = 
REMARK  9 active torsions:
REMARK  status: ('A' for Active; 'I' for Inactive)
REMARK    1  A    between atoms: C_1  and  C_2
REMARK    2  A    between atoms: C_4  and  N_5
REMARK    3  A    between atoms: N_5  and  S_6
REMARK    4  A    between atoms: S_6  and  C_9
REMARK    5  A    between atoms: C_12  and  N_13
REMARK    6  A    between atoms: C_14  and  C_16
REMARK    7  A    between atoms: C_16  and  O_17
REMARK    8  A    between atoms: O_17  and  C_18
REMARK    9  A    between atoms: C_28  and  C_29
REMARK                            x       y       z     vdW  Elec       q    Type
REMARK                         _______ _______ _______ _____ _____    ______ ____
ROOT
ATOM      1  C   UNL     1       2.478   6.318  18.812  0.00  0.00    +0.000 A 
ATOM      2  C   UNL     1       2.493   7.198  17.723  0.00  0.00    +0.000 A 
ATOM      3  C   UNL     1       2.179   8.550  17.933  0.00  0.00    +0.000 A 
ATOM      4  C   UNL     1       1.855   9.005  19.213  0.00  0.00    +0.000 A 
ATOM      5  C   UNL     1       1.810   8.116  20.287  0.00  0.00    +0.000 A 
ATOM      6  C   UNL     1       2.103   6.769  20.080  0.00  0.00    +0.000 A 
ENDROOT
BRANCH   4   7
ATOM      7  N   UNL     1       1.593  10.362  19.434  0.00  0.00    +0.000 N 
ATOM      8  C   UNL     1       0.351  10.937  19.571  0.00  0.00    +0.000 C 
ATOM      9  O   UNL     1       0.251  12.142  19.797  0.00  0.00    +0.000 OA
ATOM     10  H   UNL     1       2.376  10.989  19.585  0.00  0.00    +0.000 HD
BRANCH   8  11
ATOM     11  C   UNL     1      -0.863  10.031  19.433  0.00  0.00    +0.000 C 
BRANCH  11  12
ATOM     12  O   UNL     1      -1.987  10.857  19.151  0.00  0.00    +0.000 OA
BRANCH  12  13
ATOM     13  C   UNL     1      -2.498  10.742  17.894  0.00  0.00    +0.000 A 
ATOM     14  C   UNL     1      -1.843   9.827  17.066  0.00  0.00    +0.000 A 
ATOM     15  C   UNL     1      -2.287   9.616  15.759  0.00  0.00    +0.000 A 
ATOM     16  C   UNL     1      -3.396  10.315  15.288  0.00  0.00    +0.000 A 
ATOM     17 CL   UNL     1      -3.950  10.062  13.680  0.00  0.00    +0.000 Cl
ATOM     18  C   UNL     1      -4.058  11.223  16.110  0.00  0.00    +0.000 A 
ATOM     19  C   UNL     1      -3.613  11.432  17.416  0.00  0.00    +0.000 A 
ENDBRANCH  12  13
ENDBRANCH  11  12
ENDBRANCH   8  11
ENDBRANCH   4   7
BRANCH   1  20
ATOM     20  S   UNL     1       2.867   4.591  18.643  0.00  0.00    +0.000 S 
ATOM     21  O   UNL     1       2.700   4.226  17.251  0.00  0.00    +0.000 OA
ATOM     22  O   UNL     1       2.161   3.860  19.676  0.00  0.00    +0.000 OA
BRANCH  20  23
ATOM     23  N   UNL     1       4.513   4.512  18.957  0.00  0.00    +0.000 N 
ATOM     24  H   UNL     1       4.724   4.632  19.943  0.00  0.00    +0.000 HD
BRANCH  23  28
ATOM     25  C   UNL     1       7.816   7.905  17.570  0.00  0.00    +0.000 C 
ATOM     26  C   UNL     1       6.972   6.688  17.361  0.00  0.00    +0.000 A 
ATOM     27  C   UNL     1       6.087   6.253  18.327  0.00  0.00    +0.000 A 
ATOM     28  C   UNL     1       5.398   5.101  18.029  0.00  0.00    +0.000 A 
ATOM     29  N   UNL     1       5.524   4.420  16.887  0.00  0.00    +0.000 NA
ATOM     30  C   UNL     1       6.406   4.914  15.997  0.00  0.00    +0.000 A 
ATOM     31  C   UNL     1       6.608   4.189  14.710  0.00  0.00    +0.000 C 
ATOM     32  N   UNL     1       7.140   6.027  16.197  0.00  0.00    +0.000 NA
ENDBRANCH  23  28
ENDBRANCH  20  23
ENDBRANCH   1  20
TORSDOF 7
ENDMDL
MODEL 7
REMARK VINA RESULT:      -7.5      4.034      6.030
REMARK  Name = 
REMARK  9 active torsions:
REMARK  status: ('A' for Active; 'I' for Inactive)
REMARK    1  A    between atoms: C_1  and  C_2
REMARK    2  A    between atoms: C_4  and  N_5
REMARK    3  A    between atoms: N_5  and  S_6
REMARK    4  A    between atoms: S_6  and  C_9
REMARK    5  A    between atoms: C_12  and  N_13
REMARK    6  A    between atoms: C_14  and  C_16
REMARK    7  A    between atoms: C_16  and  O_17
REMARK    8  A    between atoms: O_17  and  C_18
REMARK    9  A    between atoms: C_28  and  C_29
REMARK                            x       y       z     vdW  Elec       q    Type
REMARK                         _______ _______ _______ _____ _____    ______ ____
ROOT
ATOM      1  C   UNL     1       2.100   5.406  19.001  0.00  0.00    +0.000 A 
ATOM      2  C   UNL     1       1.948   6.082  20.217  0.00  0.00    +0.000 A 
ATOM      3  C   UNL     1       1.957   7.486  20.225  0.00  0.00    +0.000 A 
ATOM      4  C   UNL     1       2.120   8.193  19.031  0.00  0.00    +0.000 A 
ATOM      5  C   UNL     1       2.303   7.512  17.827  0.00  0.00    +0.000 A 
ATOM      6  C   UNL     1       2.313   6.119  17.818  0.00  0.00    +0.000 A 
ENDROOT
BRANCH   4   7
ATOM      7  N   UNL     1       2.076   9.592  19.029  0.00  0.00    +0.000 N 
ATOM      8  C   UNL     1       0.944  10.369  18.947  0.00  0.00    +0.000 C 
ATOM      9  O   UNL     1       1.032  11.595  18.988  0.00  0.00    +0.000 OA
ATOM     10  H   UNL     1       2.939  10.105  19.174  0.00  0.00    +0.000 HD
BRANCH   8  11
ATOM     11  C   UNL     1      -0.391   9.653  18.806  0.00  0.00    +0.000 C 
BRANCH  11  12
ATOM     12  O   UNL     1      -0.907   9.953  17.513  0.00  0.00    +0.000 OA
BRANCH  12  13
ATOM     13  C   UNL     1      -2.125  10.560  17.495  0.00  0.00    +0.000 A 
ATOM     14  C   UNL     1      -2.834  10.438  16.298  0.00  0.00    +0.000 A 
ATOM     15  C   UNL     1      -4.102  11.010  16.169  0.00  0.00    +0.000 A 
ATOM     16  C   UNL     1      -4.661  11.695  17.245  0.00  0.00    +0.000 A 
ATOM     17 CL   UNL     1      -6.220  12.403  17.095  0.00  0.00    +0.000 Cl
ATOM     18  C   UNL     1      -3.962  11.815  18.443  0.00  0.00    +0.000 A 
ATOM     19  C   UNL     1      -2.696  11.242  18.571  0.00  0.00    +0.000 A 
ENDBRANCH  12  13
ENDBRANCH  11  12
ENDBRANCH   8  11
ENDBRANCH   4   7
BRANCH   1  20
ATOM     20  S   UNL     1       2.094   3.631  18.894  0.00  0.00    +0.000 S 
ATOM     21  O   UNL     1       1.873   3.264  17.511  0.00  0.00    +0.000 OA
ATOM     22  O   UNL     1       1.224   3.113  19.931  0.00  0.00    +0.000 OA
BRANCH  20  23
ATOM     23  N   UNL     1       3.674   3.197  19.251  0.00  0.00    +0.000 N 
ATOM     24  H   UNL     1       3.843   3.142  20.251  0.00  0.00    +0.000 HD
BRANCH  23  28
ATOM     25  C   UNL     1       5.833   4.145  14.917  0.00  0.00    +0.000 C 
ATOM     26  C   UNL     1       5.736   4.195  16.408  0.00  0.00    +0.000 A 
ATOM     27  C   UNL     1       4.705   3.574  17.083  0.00  0.00    +0.000 A 
ATOM     28  C   UNL     1       4.709   3.725  18.449  0.00  0.00    +0.000 A 
ATOM     29  N   UNL     1       5.636   4.401  19.131  0.00  0.00    +0.000 NA
ATOM     30  C   UNL     1       6.610   4.974  18.397  0.00  0.00    +0.000 A 
ATOM     31  C   UNL     1       7.666   5.761  19.097  0.00  0.00    +0.000 C 
ATOM     32  N   UNL     1       6.691   4.897  17.054  0.00  0.00    +0.000 NA
ENDBRANCH  23  28
ENDBRANCH  20  23
ENDBRANCH   1  20
TORSDOF 7
ENDMDL
MODEL 8
REMARK VINA RESULT:      -7.5      3.835      5.888
REMARK  Name = 
REMARK  9 active torsions:
REMARK  status: ('A' for Active; 'I' for Inactive)
REMARK    1  A    between atoms: C_1  and  C_2
REMARK    2  A    between atoms: C_4  and  N_5
REMARK    3  A    between atoms: N_5  and  S_6
REMARK    4  A    between atoms: S_6  and  C_9
REMARK    5  A    between atoms: C_12  and  N_13
REMARK    6  A    between atoms: C_14  and  C_16
REMARK    7  A    between atoms: C_16  and  O_17
REMARK    8  A    between atoms: O_17  and  C_18
REMARK    9  A    between atoms: C_28  and  C_29
REMARK                            x       y       z     vdW  Elec       q    Type
REMARK                         _______ _______ _______ _____ _____    ______ ____
ROOT
ATOM      1  C   UNL     1       1.953   5.545  19.216  0.00  0.00    +0.000 A 
ATOM      2  C   UNL     1       1.653   6.003  20.504  0.00  0.00    +0.000 A 
ATOM      3  C   UNL     1       1.632   7.385  20.750  0.00  0.00    +0.000 A 
ATOM      4  C   UNL     1       1.911   8.286  19.719  0.00  0.00    +0.000 A 
ATOM      5  C   UNL     1       2.242   7.821  18.446  0.00  0.00    +0.000 A 
ATOM      6  C   UNL     1       2.282   6.450  18.203  0.00  0.00    +0.000 A 
ENDROOT
BRANCH   4   7
ATOM      7  N   UNL     1       1.839   9.665  19.949  0.00  0.00    +0.000 N 
ATOM      8  C   UNL     1       0.701  10.437  19.900  0.00  0.00    +0.000 C 
ATOM      9  O   UNL     1       0.760  11.639  20.155  0.00  0.00    +0.000 OA
ATOM     10  H   UNL     1       2.675  10.151  20.254  0.00  0.00    +0.000 HD
BRANCH   8  11
ATOM     11  C   UNL     1      -0.602   9.748  19.524  0.00  0.00    +0.000 C 
BRANCH  11  12
ATOM     12  O   UNL     1      -1.573  10.761  19.287  0.00  0.00    +0.000 OA
BRANCH  12  13
ATOM     13  C   UNL     1      -2.218  10.686  18.090  0.00  0.00    +0.000 A 
ATOM     14  C   UNL     1      -1.652   9.809  17.162  0.00  0.00    +0.000 A 
ATOM     15  C   UNL     1      -2.237   9.641  15.905  0.00  0.00    +0.000 A 
ATOM     16  C   UNL     1      -3.395  10.345  15.585  0.00  0.00    +0.000 A 
ATOM     17 CL   UNL     1      -4.122  10.145  14.040  0.00  0.00    +0.000 Cl
ATOM     18  C   UNL     1      -3.968  11.216  16.508  0.00  0.00    +0.000 A 
ATOM     19  C   UNL     1      -3.383  11.382  17.764  0.00  0.00    +0.000 A 
ENDBRANCH  12  13
ENDBRANCH  11  12
ENDBRANCH   8  11
ENDBRANCH   4   7
BRANCH   1  20
ATOM     20  S   UNL     1       1.998   3.814  18.810  0.00  0.00    +0.000 S 
ATOM     21  O   UNL     1       1.891   3.687  17.371  0.00  0.00    +0.000 OA
ATOM     22  O   UNL     1       1.064   3.118  19.672  0.00  0.00    +0.000 OA
BRANCH  20  23
ATOM     23  N   UNL     1       3.555   3.341  19.212  0.00  0.00    +0.000 N 
ATOM     24  H   UNL     1       3.700   3.301  20.216  0.00  0.00    +0.000 HD
BRANCH  23  28
ATOM     25  C   UNL     1       5.833   4.156  14.911  0.00  0.00    +0.000 C 
ATOM     26  C   UNL     1       5.707   4.231  16.400  0.00  0.00    +0.000 A 
ATOM     27  C   UNL     1       4.642   3.653  17.060  0.00  0.00    +0.000 A 
ATOM     28  C   UNL     1       4.623   3.823  18.424  0.00  0.00    +0.000 A 
ATOM     29  N   UNL     1       5.558   4.479  19.117  0.00  0.00    +0.000 NA
ATOM     30  C   UNL     1       6.566   5.009  18.396  0.00  0.00    +0.000 A 
ATOM     31  C   UNL     1       7.632   5.770  19.107  0.00  0.00    +0.000 C 
ATOM     32  N   UNL     1       6.671   4.910  17.055  0.00  0.00    +0.000 NA
ENDBRANCH  23  28
ENDBRANCH  20  23
ENDBRANCH   1  20
TORSDOF 7
ENDMDL
MODEL 9
REMARK VINA RESULT:      -7.5      3.977      5.680
REMARK  Name = 
REMARK  9 active torsions:
REMARK  status: ('A' for Active; 'I' for Inactive)
REMARK    1  A    between atoms: C_1  and  C_2
REMARK    2  A    between atoms: C_4  and  N_5
REMARK    3  A    between atoms: N_5  and  S_6
REMARK    4  A    between atoms: S_6  and  C_9
REMARK    5  A    between atoms: C_12  and  N_13
REMARK    6  A    between atoms: C_14  and  C_16
REMARK    7  A    between atoms: C_16  and  O_17
REMARK    8  A    between atoms: O_17  and  C_18
REMARK    9  A    between atoms: C_28  and  C_29
REMARK                            x       y       z     vdW  Elec       q    Type
REMARK                         _______ _______ _______ _____ _____    ______ ____
ROOT
ATOM      1  C   UNL     1       2.530   5.598  18.989  0.00  0.00    +0.000 A 
ATOM      2  C   UNL     1       2.647   6.733  18.178  0.00  0.00    +0.000 A 
ATOM      3  C   UNL     1       2.260   7.982  18.689  0.00  0.00    +0.000 A 
ATOM      4  C   UNL     1       1.764   8.083  19.992  0.00  0.00    +0.000 A 
ATOM      5  C   UNL     1       1.619   6.943  20.782  0.00  0.00    +0.000 A 
ATOM      6  C   UNL     1       1.984   5.700  20.272  0.00  0.00    +0.000 A 
ENDROOT
BRANCH   4   7
ATOM      7  N   UNL     1       1.428   9.335  20.522  0.00  0.00    +0.000 N 
ATOM      8  C   UNL     1       0.366  10.120  20.138  0.00  0.00    +0.000 C 
ATOM      9  O   UNL     1       0.153  11.191  20.705  0.00  0.00    +0.000 OA
ATOM     10  H   UNL     1       1.955   9.684  21.315  0.00  0.00    +0.000 HD
BRANCH   8  11
ATOM     11  C   UNL     1      -0.511   9.612  19.004  0.00  0.00    +0.000 C 
BRANCH  11  12
ATOM     12  O   UNL     1      -0.745  10.702  18.118  0.00  0.00    +0.000 OA
BRANCH  12  13
ATOM     13  C   UNL     1      -2.053  10.974  17.857  0.00  0.00    +0.000 A 
ATOM     14  C   UNL     1      -2.735  11.652  18.871  0.00  0.00    +0.000 A 
ATOM     15  C   UNL     1      -4.078  11.995  18.709  0.00  0.00    +0.000 A 
ATOM     16  C   UNL     1      -4.734  11.669  17.524  0.00  0.00    +0.000 A 
ATOM     17 CL   UNL     1      -6.388  12.088  17.315  0.00  0.00    +0.000 Cl
ATOM     18  C   UNL     1      -4.059  10.999  16.507  0.00  0.00    +0.000 A 
ATOM     19  C   UNL     1      -2.716  10.657  16.670  0.00  0.00    +0.000 A 
ENDBRANCH  12  13
ENDBRANCH  11  12
ENDBRANCH   8  11
ENDBRANCH   4   7
BRANCH   1  20
ATOM     20  S   UNL     1       2.999   3.977  18.428  0.00  0.00    +0.000 S 
ATOM     21  O   UNL     1       2.793   3.919  16.996  0.00  0.00    +0.000 OA
ATOM     22  O   UNL     1       2.375   2.996  19.292  0.00  0.00    +0.000 OA
BRANCH  20  23
ATOM     23  N   UNL     1       4.658   3.928  18.669  0.00  0.00    +0.000 N 
ATOM     24  H   UNL     1       4.906   3.925  19.654  0.00  0.00    +0.000 HD
BRANCH  23  28
ATOM     25  C   UNL     1       7.738   7.638  17.623  0.00  0.00    +0.000 C 
ATOM     26  C   UNL     1       6.950   6.411  17.288  0.00  0.00    +0.000 A 
ATOM     27  C   UNL     1       6.121   5.815  18.216  0.00  0.00    +0.000 A 
ATOM     28  C   UNL     1       5.481   4.673  17.797  0.00  0.00    +0.000 A 
ATOM     29  N   UNL     1       5.602   4.144  16.577  0.00  0.00    +0.000 NA
ATOM     30  C   UNL     1       6.428   4.790  15.731  0.00  0.00    +0.000 A 
ATOM     31  C   UNL     1       6.623   4.239  14.359  0.00  0.00    +0.000 C 
ATOM     32  N   UNL     1       7.112   5.908  16.047  0.00  0.00    +0.000 NA
ENDBRANCH  23  28
ENDBRANCH  20  23
ENDBRANCH   1  20
TORSDOF 7
ENDMDL
