MODEL 1
REMARK VINA RESULT:      -6.9      0.000      0.000
REMARK  Name = 
REMARK  4 active torsions:
REMARK  status: ('A' for Active; 'I' for Inactive)
REMARK    1  A    between atoms: C_1  and  C_2
REMARK    2  A    between atoms: C_2  and  N_3
REMARK    3  A    between atoms: C_8  and  C_9
REMARK    4  A    between atoms: C_10  and  C_11
REMARK                            x       y       z     vdW  Elec       q    Type
REMARK                         _______ _______ _______ _____ _____    ______ ____
ROOT
ATOM      1  N   UNL     1       5.429   4.051  16.519  0.00  0.00    +0.000 NA
ATOM      2  C   UNL     1       4.522   5.187  16.211  0.00  0.00    +0.000 C 
ATOM      3  C   UNL     1       5.210   6.553  15.964  0.00  0.00    +0.000 C 
ATOM      4  C   UNL     1       6.296   6.769  16.959  0.00  0.00    +0.000 A 
ATOM      5  N   UNL     1       6.902   7.995  17.143  0.00  0.00    +0.000 NA
ATOM      6  C   UNL     1       7.831   7.886  18.074  0.00  0.00    +0.000 A 
ATOM      7  S   UNL     1       8.017   6.311  18.757  0.00  0.00    +0.000 S 
ATOM      8  C   UNL     1       6.778   5.741  17.739  0.00  0.00    +0.000 A 
ATOM      9  C   UNL     1       6.246   4.344  17.730  0.00  0.00    +0.000 C 
ENDROOT
BRANCH   1  11
ATOM     10  C   UNL     1       5.639   3.934  14.029  0.00  0.00    +0.000 C 
ATOM     11  C   UNL     1       6.273   3.641  15.387  0.00  0.00    +0.000 C 
ENDBRANCH   1  11
BRANCH   6  12
ATOM     12  C   UNL     1       8.608   9.017  18.476  0.00  0.00    +0.000 C 
ATOM     13  C   UNL     1       9.237   9.980  18.829  0.00  0.00    +0.000 C 
BRANCH  13  14
ATOM     14  C   UNL     1       9.952  11.138  19.269  0.00  0.00    +0.000 A 
ATOM     15  C   UNL     1       9.681  11.700  20.521  0.00  0.00    +0.000 A 
ATOM     16  C   UNL     1      10.353  12.852  20.934  0.00  0.00    +0.000 A 
ATOM     17  C   UNL     1      11.300  13.446  20.101  0.00  0.00    +0.000 A 
ATOM     18  C   UNL     1      11.582  12.884  18.855  0.00  0.00    +0.000 A 
ATOM     19  C   UNL     1      10.910  11.731  18.440  0.00  0.00    +0.000 A 
ENDBRANCH  13  14
ENDBRANCH   6  12
TORSDOF 3
ENDMDL
MODEL 2
REMARK VINA RESULT:      -6.9      1.459      2.232
REMARK  Name = 
REMARK  4 active torsions:
REMARK  status: ('A' for Active; 'I' for Inactive)
REMARK    1  A    between atoms: C_1  and  C_2
REMARK    2  A    between atoms: C_2  and  N_3
REMARK    3  A    between atoms: C_8  and  C_9
REMARK    4  A    between atoms: C_10  and  C_11
REMARK                            x       y       z     vdW  Elec       q    Type
REMARK                         _______ _______ _______ _____ _____    ______ ____
ROOT
ATOM      1  N   UNL     1       4.508   3.900  16.355  0.00  0.00    +0.000 NA
ATOM      2  C   UNL     1       5.699   3.764  15.477  0.00  0.00    +0.000 C 
ATOM      3  C   UNL     1       7.012   4.379  16.021  0.00  0.00    +0.000 C 
ATOM      4  C   UNL     1       6.741   5.706  16.640  0.00  0.00    +0.000 A 
ATOM      5  N   UNL     1       7.747   6.590  16.972  0.00  0.00    +0.000 NA
ATOM      6  C   UNL     1       7.216   7.671  17.511  0.00  0.00    +0.000 A 
ATOM      7  S   UNL     1       5.495   7.665  17.646  0.00  0.00    +0.000 S 
ATOM      8  C   UNL     1       5.461   6.116  16.941  0.00  0.00    +0.000 A 
ATOM      9  C   UNL     1       4.224   5.335  16.637  0.00  0.00    +0.000 C 
ENDROOT
BRANCH   1  11
ATOM     10  C   UNL     1       3.342   2.276  17.859  0.00  0.00    +0.000 C 
ATOM     11  C   UNL     1       4.591   3.114  17.595  0.00  0.00    +0.000 C 
ENDBRANCH   1  11
BRANCH   6  12
ATOM     12  C   UNL     1       8.036   8.763  17.936  0.00  0.00    +0.000 C 
ATOM     13  C   UNL     1       8.748   9.660  18.304  0.00  0.00    +0.000 C 
BRANCH  13  14
ATOM     14  C   UNL     1       9.621  10.700  18.754  0.00  0.00    +0.000 A 
ATOM     15  C   UNL     1      10.400  11.411  17.835  0.00  0.00    +0.000 A 
ATOM     16  C   UNL     1      11.280  12.401  18.279  0.00  0.00    +0.000 A 
ATOM     17  C   UNL     1      11.383  12.686  19.640  0.00  0.00    +0.000 A 
ATOM     18  C   UNL     1      10.600  11.987  20.559  0.00  0.00    +0.000 A 
ATOM     19  C   UNL     1       9.719  10.996  20.117  0.00  0.00    +0.000 A 
ENDBRANCH  13  14
ENDBRANCH   6  12
TORSDOF 3
ENDMDL
MODEL 3
REMARK VINA RESULT:      -6.8      2.808      8.781
REMARK  Name = 
REMARK  4 active torsions:
REMARK  status: ('A' for Active; 'I' for Inactive)
REMARK    1  A    between atoms: C_1  and  C_2
REMARK    2  A    between atoms: C_2  and  N_3
REMARK    3  A    between atoms: C_8  and  C_9
REMARK    4  A    between atoms: C_10  and  C_11
REMARK                            x       y       z     vdW  Elec       q    Type
REMARK                         _______ _______ _______ _____ _____    ______ ____
ROOT
ATOM      1  N   UNL     1      11.357  14.673  19.654  0.00  0.00    +0.000 NA
ATOM      2  C   UNL     1      12.150  14.152  18.511  0.00  0.00    +0.000 C 
ATOM      3  C   UNL     1      11.402  13.193  17.551  0.00  0.00    +0.000 C 
ATOM      4  C   UNL     1      10.572  12.233  18.328  0.00  0.00    +0.000 A 
ATOM      5  N   UNL     1      10.005  11.111  17.759  0.00  0.00    +0.000 NA
ATOM      6  C   UNL     1       9.318  10.456  18.676  0.00  0.00    +0.000 A 
ATOM      7  S   UNL     1       9.320  11.165  20.251  0.00  0.00    +0.000 S 
ATOM      8  C   UNL     1      10.300  12.427  19.664  0.00  0.00    +0.000 A 
ATOM      9  C   UNL     1      10.838  13.553  20.487  0.00  0.00    +0.000 C 
ENDROOT
BRANCH   1  11
ATOM     10  C   UNL     1      10.780  16.786  18.446  0.00  0.00    +0.000 C 
ATOM     11  C   UNL     1      10.281  15.594  19.261  0.00  0.00    +0.000 C 
ENDBRANCH   1  11
BRANCH   6  12
ATOM     12  C   UNL     1       8.637   9.240  18.359  0.00  0.00    +0.000 C 
ATOM     13  C   UNL     1       8.037   8.232  18.093  0.00  0.00    +0.000 C 
BRANCH  13  14
ATOM     14  C   UNL     1       7.289   7.054  17.776  0.00  0.00    +0.000 A 
ATOM     15  C   UNL     1       7.690   5.811  18.274  0.00  0.00    +0.000 A 
ATOM     16  C   UNL     1       6.981   4.656  17.934  0.00  0.00    +0.000 A 
ATOM     17  C   UNL     1       5.868   4.740  17.099  0.00  0.00    +0.000 A 
ATOM     18  C   UNL     1       5.458   5.980  16.607  0.00  0.00    +0.000 A 
ATOM     19  C   UNL     1       6.166   7.136  16.946  0.00  0.00    +0.000 A 
ENDBRANCH  13  14
ENDBRANCH   6  12
TORSDOF 3
ENDMDL
MODEL 4
REMARK VINA RESULT:      -6.7      1.367      1.945
REMARK  Name = 
REMARK  4 active torsions:
REMARK  status: ('A' for Active; 'I' for Inactive)
REMARK    1  A    between atoms: C_1  and  C_2
REMARK    2  A    between atoms: C_2  and  N_3
REMARK    3  A    between atoms: C_8  and  C_9
REMARK    4  A    between atoms: C_10  and  C_11
REMARK                            x       y       z     vdW  Elec       q    Type
REMARK                         _______ _______ _______ _____ _____    ______ ____
ROOT
ATOM      1  N   UNL     1       4.515   3.935  16.309  0.00  0.00    +0.000 NA
ATOM      2  C   UNL     1       5.673   3.840  15.383  0.00  0.00    +0.000 C 
ATOM      3  C   UNL     1       7.004   4.440  15.903  0.00  0.00    +0.000 C 
ATOM      4  C   UNL     1       6.751   5.739  16.585  0.00  0.00    +0.000 A 
ATOM      5  N   UNL     1       7.766   6.614  16.915  0.00  0.00    +0.000 NA
ATOM      6  C   UNL     1       7.251   7.670  17.517  0.00  0.00    +0.000 A 
ATOM      7  S   UNL     1       5.536   7.649  17.716  0.00  0.00    +0.000 S 
ATOM      8  C   UNL     1       5.482   6.130  16.950  0.00  0.00    +0.000 A 
ATOM      9  C   UNL     1       4.237   5.355  16.660  0.00  0.00    +0.000 C 
ENDROOT
BRANCH   1  11
ATOM     10  C   UNL     1       3.518   3.312  18.517  0.00  0.00    +0.000 C 
ATOM     11  C   UNL     1       4.648   3.099  17.512  0.00  0.00    +0.000 C 
ENDBRANCH   1  11
BRANCH   6  12
ATOM     12  C   UNL     1       8.083   8.747  17.955  0.00  0.00    +0.000 C 
ATOM     13  C   UNL     1       8.776   9.647  18.353  0.00  0.00    +0.000 C 
BRANCH  13  14
ATOM     14  C   UNL     1       9.590  10.706  18.865  0.00  0.00    +0.000 A 
ATOM     15  C   UNL     1       9.625  10.967  20.238  0.00  0.00    +0.000 A 
ATOM     16  C   UNL     1      10.391  12.025  20.732  0.00  0.00    +0.000 A 
ATOM     17  C   UNL     1      11.127  12.823  19.858  0.00  0.00    +0.000 A 
ATOM     18  C   UNL     1      11.104  12.560  18.488  0.00  0.00    +0.000 A 
ATOM     19  C   UNL     1      10.338  11.502  17.991  0.00  0.00    +0.000 A 
ENDBRANCH  13  14
ENDBRANCH   6  12
TORSDOF 3
ENDMDL
MODEL 5
REMARK VINA RESULT:      -6.7      2.856      8.772
REMARK  Name = 
REMARK  4 active torsions:
REMARK  status: ('A' for Active; 'I' for Inactive)
REMARK    1  A    between atoms: C_1  and  C_2
REMARK    2  A    between atoms: C_2  and  N_3
REMARK    3  A    between atoms: C_8  and  C_9
REMARK    4  A    between atoms: C_10  and  C_11
REMARK                            x       y       z     vdW  Elec       q    Type
REMARK                         _______ _______ _______ _____ _____    ______ ____
ROOT
ATOM      1  N   UNL     1      11.611  14.790  19.071  0.00  0.00    +0.000 NA
ATOM      2  C   UNL     1      12.330  14.168  17.929  0.00  0.00    +0.000 C 
ATOM      3  C   UNL     1      11.498  13.193  17.058  0.00  0.00    +0.000 C 
ATOM      4  C   UNL     1      10.659  12.319  17.923  0.00  0.00    +0.000 A 
ATOM      5  N   UNL     1      10.018  11.195  17.444  0.00  0.00    +0.000 NA
ATOM      6  C   UNL     1       9.343  10.626  18.425  0.00  0.00    +0.000 A 
ATOM      7  S   UNL     1       9.445  11.422  19.955  0.00  0.00    +0.000 S 
ATOM      8  C   UNL     1      10.455  12.601  19.256  0.00  0.00    +0.000 A 
ATOM      9  C   UNL     1      11.078  13.744  19.989  0.00  0.00    +0.000 C 
ENDROOT
BRANCH   1  11
ATOM     10  C   UNL     1       9.736  16.254  19.844  0.00  0.00    +0.000 C 
ATOM     11  C   UNL     1      10.562  15.737  18.668  0.00  0.00    +0.000 C 
ENDBRANCH   1  11
BRANCH   6  12
ATOM     12  C   UNL     1       8.595   9.428  18.208  0.00  0.00    +0.000 C 
ATOM     13  C   UNL     1       7.992   8.403  18.022  0.00  0.00    +0.000 C 
BRANCH  13  14
ATOM     14  C   UNL     1       7.311   7.165  17.799  0.00  0.00    +0.000 A 
ATOM     15  C   UNL     1       6.172   7.126  16.989  0.00  0.00    +0.000 A 
ATOM     16  C   UNL     1       5.485   5.924  16.802  0.00  0.00    +0.000 A 
ATOM     17  C   UNL     1       5.935   4.758  17.420  0.00  0.00    +0.000 A 
ATOM     18  C   UNL     1       7.076   4.790  18.221  0.00  0.00    +0.000 A 
ATOM     19  C   UNL     1       7.765   5.992  18.410  0.00  0.00    +0.000 A 
ENDBRANCH  13  14
ENDBRANCH   6  12
TORSDOF 3
ENDMDL
MODEL 6
REMARK VINA RESULT:      -6.6      2.760      8.683
REMARK  Name = 
REMARK  4 active torsions:
REMARK  status: ('A' for Active; 'I' for Inactive)
REMARK    1  A    between atoms: C_1  and  C_2
REMARK    2  A    between atoms: C_2  and  N_3
REMARK    3  A    between atoms: C_8  and  C_9
REMARK    4  A    between atoms: C_10  and  C_11
REMARK                            x       y       z     vdW  Elec       q    Type
REMARK                         _______ _______ _______ _____ _____    ______ ____
ROOT
ATOM      1  N   UNL     1      11.098  14.534  19.104  0.00  0.00    +0.000 NA
ATOM      2  C   UNL     1      11.408  13.735  20.318  0.00  0.00    +0.000 C 
ATOM      3  C   UNL     1      11.415  12.197  20.131  0.00  0.00    +0.000 C 
ATOM      4  C   UNL     1      10.263  11.777  19.287  0.00  0.00    +0.000 A 
ATOM      5  N   UNL     1       9.872  10.459  19.168  0.00  0.00    +0.000 NA
ATOM      6  C   UNL     1       8.838  10.383  18.351  0.00  0.00    +0.000 A 
ATOM      7  S   UNL     1       8.303  11.887  17.691  0.00  0.00    +0.000 S 
ATOM      8  C   UNL     1       9.535  12.685  18.552  0.00  0.00    +0.000 A 
ATOM      9  C   UNL     1       9.762  14.162  18.558  0.00  0.00    +0.000 C 
ENDROOT
BRANCH   1  11
ATOM     10  C   UNL     1      11.806  15.298  16.830  0.00  0.00    +0.000 C 
ATOM     11  C   UNL     1      12.139  14.469  18.068  0.00  0.00    +0.000 C 
ENDBRANCH   1  11
BRANCH   6  12
ATOM     12  C   UNL     1       8.218   9.129  18.060  0.00  0.00    +0.000 C 
ATOM     13  C   UNL     1       7.692   8.082  17.786  0.00  0.00    +0.000 C 
BRANCH  13  14
ATOM     14  C   UNL     1       7.059   6.851  17.422  0.00  0.00    +0.000 A 
ATOM     15  C   UNL     1       7.653   5.630  17.757  0.00  0.00    +0.000 A 
ATOM     16  C   UNL     1       7.054   4.429  17.369  0.00  0.00    +0.000 A 
ATOM     17  C   UNL     1       5.861   4.444  16.648  0.00  0.00    +0.000 A 
ATOM     18  C   UNL     1       5.260   5.660  16.320  0.00  0.00    +0.000 A 
ATOM     19  C   UNL     1       5.857   6.862  16.707  0.00  0.00    +0.000 A 
ENDBRANCH  13  14
ENDBRANCH   6  12
TORSDOF 3
ENDMDL
MODEL 7
REMARK VINA RESULT:      -6.4      7.095      8.247
REMARK  Name = 
REMARK  4 active torsions:
REMARK  status: ('A' for Active; 'I' for Inactive)
REMARK    1  A    between atoms: C_1  and  C_2
REMARK    2  A    between atoms: C_2  and  N_3
REMARK    3  A    between atoms: C_8  and  C_9
REMARK    4  A    between atoms: C_10  and  C_11
REMARK                            x       y       z     vdW  Elec       q    Type
REMARK                         _______ _______ _______ _____ _____    ______ ____
ROOT
ATOM      1  N   UNL     1       4.160   2.480  19.053  0.00  0.00    +0.000 NA
ATOM      2  C   UNL     1       3.923   2.233  20.499  0.00  0.00    +0.000 C 
ATOM      3  C   UNL     1       2.695   2.951  21.113  0.00  0.00    +0.000 C 
ATOM      4  C   UNL     1       2.615   4.351  20.615  0.00  0.00    +0.000 A 
ATOM      5  N   UNL     1       1.784   5.295  21.184  0.00  0.00    +0.000 NA
ATOM      6  C   UNL     1       1.912   6.436  20.533  0.00  0.00    +0.000 A 
ATOM      7  S   UNL     1       3.025   6.417  19.213  0.00  0.00    +0.000 S 
ATOM      8  C   UNL     1       3.353   4.778  19.533  0.00  0.00    +0.000 A 
ATOM      9  C   UNL     1       4.339   3.935  18.790  0.00  0.00    +0.000 C 
ENDROOT
BRANCH   1  11
ATOM     10  C   UNL     1       2.709   2.832  17.046  0.00  0.00    +0.000 C 
ATOM     11  C   UNL     1       3.136   1.896  18.175  0.00  0.00    +0.000 C 
ENDBRANCH   1  11
BRANCH   6  12
ATOM     12  C   UNL     1       1.173   7.596  20.924  0.00  0.00    +0.000 C 
ATOM     13  C   UNL     1       0.551   8.581  21.224  0.00  0.00    +0.000 C 
BRANCH  13  14
ATOM     14  C   UNL     1      -0.190   9.763  21.542  0.00  0.00    +0.000 A 
ATOM     15  C   UNL     1      -0.625   9.990  22.851  0.00  0.00    +0.000 A 
ATOM     16  C   UNL     1      -1.379  11.126  23.153  0.00  0.00    +0.000 A 
ATOM     17  C   UNL     1      -1.699  12.040  22.150  0.00  0.00    +0.000 A 
ATOM     18  C   UNL     1      -1.258  11.823  20.844  0.00  0.00    +0.000 A 
ATOM     19  C   UNL     1      -0.503  10.687  20.540  0.00  0.00    +0.000 A 
ENDBRANCH  13  14
ENDBRANCH   6  12
TORSDOF 3
ENDMDL
MODEL 8
REMARK VINA RESULT:      -6.4      6.306      7.710
REMARK  Name = 
REMARK  4 active torsions:
REMARK  status: ('A' for Active; 'I' for Inactive)
REMARK    1  A    between atoms: C_1  and  C_2
REMARK    2  A    between atoms: C_2  and  N_3
REMARK    3  A    between atoms: C_8  and  C_9
REMARK    4  A    between atoms: C_10  and  C_11
REMARK                            x       y       z     vdW  Elec       q    Type
REMARK                         _______ _______ _______ _____ _____    ______ ____
ROOT
ATOM      1  N   UNL     1       5.149   4.197  17.486  0.00  0.00    +0.000 NA
ATOM      2  C   UNL     1       4.888   5.141  16.369  0.00  0.00    +0.000 C 
ATOM      3  C   UNL     1       4.557   6.598  16.780  0.00  0.00    +0.000 C 
ATOM      4  C   UNL     1       3.626   6.605  17.942  0.00  0.00    +0.000 A 
ATOM      5  N   UNL     1       2.963   7.743  18.355  0.00  0.00    +0.000 NA
ATOM      6  C   UNL     1       2.220   7.457  19.408  0.00  0.00    +0.000 A 
ATOM      7  S   UNL     1       2.296   5.817  19.945  0.00  0.00    +0.000 S 
ATOM      8  C   UNL     1       3.393   5.473  18.690  0.00  0.00    +0.000 A 
ATOM      9  C   UNL     1       3.976   4.127  18.401  0.00  0.00    +0.000 C 
ENDROOT
BRANCH   1  11
ATOM     10  C   UNL     1       7.615   4.584  17.318  0.00  0.00    +0.000 C 
ATOM     11  C   UNL     1       6.390   4.477  18.223  0.00  0.00    +0.000 C 
ENDBRANCH   1  11
BRANCH   6  12
ATOM     12  C   UNL     1       1.411   8.456  20.033  0.00  0.00    +0.000 C 
ATOM     13  C   UNL     1       0.709   9.274  20.567  0.00  0.00    +0.000 C 
BRANCH  13  14
ATOM     14  C   UNL     1      -0.152  10.218  21.210  0.00  0.00    +0.000 A 
ATOM     15  C   UNL     1      -0.453  10.084  22.569  0.00  0.00    +0.000 A 
ATOM     16  C   UNL     1      -1.323  10.985  23.187  0.00  0.00    +0.000 A 
ATOM     17  C   UNL     1      -1.893  12.023  22.452  0.00  0.00    +0.000 A 
ATOM     18  C   UNL     1      -1.589  12.167  21.098  0.00  0.00    +0.000 A 
ATOM     19  C   UNL     1      -0.718  11.266  20.477  0.00  0.00    +0.000 A 
ENDBRANCH  13  14
ENDBRANCH   6  12
TORSDOF 3
ENDMDL
MODEL 9
REMARK VINA RESULT:      -6.4      5.606      7.222
REMARK  Name = 
REMARK  4 active torsions:
REMARK  status: ('A' for Active; 'I' for Inactive)
REMARK    1  A    between atoms: C_1  and  C_2
REMARK    2  A    between atoms: C_2  and  N_3
REMARK    3  A    between atoms: C_8  and  C_9
REMARK    4  A    between atoms: C_10  and  C_11
REMARK                            x       y       z     vdW  Elec       q    Type
REMARK                         _______ _______ _______ _____ _____    ______ ____
ROOT
ATOM      1  N   UNL     1       6.121   4.276  16.439  0.00  0.00    +0.000 NA
ATOM      2  C   UNL     1       5.500   5.122  15.387  0.00  0.00    +0.000 C 
ATOM      3  C   UNL     1       4.980   6.506  15.853  0.00  0.00    +0.000 C 
ATOM      4  C   UNL     1       4.278   6.378  17.159  0.00  0.00    +0.000 A 
ATOM      5  N   UNL     1       3.496   7.387  17.684  0.00  0.00    +0.000 NA
ATOM      6  C   UNL     1       3.013   7.002  18.850  0.00  0.00    +0.000 A 
ATOM      7  S   UNL     1       3.483   5.421  19.363  0.00  0.00    +0.000 S 
ATOM      8  C   UNL     1       4.392   5.245  17.935  0.00  0.00    +0.000 A 
ATOM      9  C   UNL     1       5.156   4.021  17.546  0.00  0.00    +0.000 C 
ENDROOT
BRANCH   1  11
ATOM     10  C   UNL     1       7.523   4.702  18.467  0.00  0.00    +0.000 C 
ATOM     11  C   UNL     1       7.396   4.802  16.948  0.00  0.00    +0.000 C 
ENDBRANCH   1  11
BRANCH   6  12
ATOM     12  C   UNL     1       2.153   7.854  19.610  0.00  0.00    +0.000 C 
ATOM     13  C   UNL     1       1.437   8.556  20.275  0.00  0.00    +0.000 C 
BRANCH  13  14
ATOM     14  C   UNL     1       0.596   9.369  21.099  0.00  0.00    +0.000 A 
ATOM     15  C   UNL     1       0.432   9.065  22.453  0.00  0.00    +0.000 A 
ATOM     16  C   UNL     1      -0.418   9.838  23.248  0.00  0.00    +0.000 A 
ATOM     17  C   UNL     1      -1.105  10.917  22.693  0.00  0.00    +0.000 A 
ATOM     18  C   UNL     1      -0.937  11.230  21.344  0.00  0.00    +0.000 A 
ATOM     19  C   UNL     1      -0.087  10.458  20.547  0.00  0.00    +0.000 A 
ENDBRANCH  13  14
ENDBRANCH   6  12
TORSDOF 3
ENDMDL
