MODEL 1
REMARK VINA RESULT:      -6.4      0.000      0.000
REMARK  Name = 
REMARK  2 active torsions:
REMARK  status: ('A' for Active; 'I' for Inactive)
REMARK    1  A    between atoms: N_9  and  C_10
REMARK    2  A    between atoms: C_16  and  C_17
REMARK                            x       y       z     vdW  Elec       q    Type
REMARK                         _______ _______ _______ _____ _____    ______ ____
ROOT
ATOM      1  C   UNL     1      -1.906  14.064  21.104  0.00  0.00    +0.000 A 
ATOM      2  C   UNL     1      -2.977  15.013  21.208  0.00  0.00    +0.000 A 
ATOM      3 CL   UNL     1      -2.864  16.695  20.783  0.00  0.00    +0.000 Cl
ATOM      4  C   UNL     1      -4.195  14.654  21.785  0.00  0.00    +0.000 A 
ATOM      5  N   UNL     1      -4.476  13.434  22.264  0.00  0.00    +0.000 NA
ATOM      6  C   UNL     1      -3.466  12.545  22.203  0.00  0.00    +0.000 A 
ATOM      7  C   UNL     1      -2.165  12.777  21.708  0.00  0.00    +0.000 A 
ENDROOT
BRANCH   1  16
ATOM      8  O   UNL     1       3.099  12.666  18.187  0.00  0.00    +0.000 OA
ATOM      9  C   UNL     1       2.968  13.865  18.350  0.00  0.00    +0.000 C 
ATOM     10  N   UNL     1       3.726  14.829  17.714  0.00  0.00    +0.000 N 
ATOM     11  C   UNL     1       3.318  16.163  18.028  0.00  0.00    +0.000 C 
ATOM     12  C   UNL     1       2.508  15.989  19.300  0.00  0.00    +0.000 C 
ATOM     13  C   UNL     1       1.907  14.570  19.177  0.00  0.00    +0.000 C 
ATOM     14  C   UNL     1       1.691  13.915  20.547  0.00  0.00    +0.000 C 
ATOM     15  C   UNL     1       0.536  14.598  21.288  0.00  0.00    +0.000 C 
ATOM     16  N   UNL     1      -0.695  14.436  20.484  0.00  0.00    +0.000 N 
ATOM     17  C   UNL     1      -0.600  15.057  19.157  0.00  0.00    +0.000 C 
ATOM     18  C   UNL     1       0.595  14.536  18.374  0.00  0.00    +0.000 C 
ATOM     19  H   UNL     1       4.424  14.566  17.028  0.00  0.00    +0.000 HD
ENDBRANCH   1  16
BRANCH   7  20
ATOM     20  C   UNL     1      -1.191  11.652  21.861  0.00  0.00    +0.000 A 
ATOM     21  C   UNL     1      -0.848  11.211  23.144  0.00  0.00    +0.000 A 
ATOM     22  N   UNL     1      -0.184  10.067  23.426  0.00  0.00    +0.000 NA
ATOM     23  C   UNL     1       0.274   9.366  22.371  0.00  0.00    +0.000 A 
ATOM     24  C   UNL     1       0.185   9.788  21.048  0.00  0.00    +0.000 A 
ATOM     25  C   UNL     1       0.841   9.070  20.029  0.00  0.00    +0.000 A 
ATOM     26  C   UNL     1       0.829   9.528  18.712  0.00  0.00    +0.000 A 
ATOM     27  C   UNL     1       0.109  10.670  18.397  0.00  0.00    +0.000 A 
ATOM     28  C   UNL     1      -0.624  11.334  19.389  0.00  0.00    +0.000 A 
ATOM     29  C   UNL     1      -0.570  10.953  20.766  0.00  0.00    +0.000 A 
ENDBRANCH   7  20
TORSDOF 2
ENDMDL
MODEL 2
REMARK VINA RESULT:      -6.4      2.955      5.010
REMARK  Name = 
REMARK  2 active torsions:
REMARK  status: ('A' for Active; 'I' for Inactive)
REMARK    1  A    between atoms: N_9  and  C_10
REMARK    2  A    between atoms: C_16  and  C_17
REMARK                            x       y       z     vdW  Elec       q    Type
REMARK                         _______ _______ _______ _____ _____    ______ ____
ROOT
ATOM      1  C   UNL     1      -3.668  12.399  19.699  0.00  0.00    +0.000 A 
ATOM      2  C   UNL     1      -5.055  12.272  19.356  0.00  0.00    +0.000 A 
ATOM      3 CL   UNL     1      -6.381  12.704  20.394  0.00  0.00    +0.000 Cl
ATOM      4  C   UNL     1      -5.442  11.668  18.161  0.00  0.00    +0.000 A 
ATOM      5  N   UNL     1      -4.591  11.180  17.248  0.00  0.00    +0.000 NA
ATOM      6  C   UNL     1      -3.286  11.263  17.575  0.00  0.00    +0.000 A 
ATOM      7  C   UNL     1      -2.747  11.787  18.769  0.00  0.00    +0.000 A 
ENDROOT
BRANCH   1  16
ATOM      8  O   UNL     1       0.391  15.142  23.095  0.00  0.00    +0.000 OA
ATOM      9  C   UNL     1      -0.708  15.097  23.617  0.00  0.00    +0.000 C 
ATOM     10  N   UNL     1      -1.073  15.821  24.735  0.00  0.00    +0.000 N 
ATOM     11  C   UNL     1      -2.444  15.640  25.099  0.00  0.00    +0.000 C 
ATOM     12  C   UNL     1      -2.830  14.362  24.378  0.00  0.00    +0.000 C 
ATOM     13  C   UNL     1      -1.933  14.348  23.120  0.00  0.00    +0.000 C 
ATOM     14  C   UNL     1      -1.608  12.922  22.658  0.00  0.00    +0.000 C 
ATOM     15  C   UNL     1      -2.856  12.256  22.066  0.00  0.00    +0.000 C 
ATOM     16  N   UNL     1      -3.295  13.046  20.895  0.00  0.00    +0.000 N 
ATOM     17  C   UNL     1      -3.657  14.427  21.238  0.00  0.00    +0.000 C 
ATOM     18  C   UNL     1      -2.522  15.150  21.946  0.00  0.00    +0.000 C 
ATOM     19  H   UNL     1      -0.426  16.474  25.160  0.00  0.00    +0.000 HD
ENDBRANCH   1  16
BRANCH   7  20
ATOM     20  C   UNL     1      -1.266  11.654  18.936  0.00  0.00    +0.000 A 
ATOM     21  C   UNL     1      -0.712  10.388  19.159  0.00  0.00    +0.000 A 
ATOM     22  N   UNL     1       0.604  10.087  19.087  0.00  0.00    +0.000 NA
ATOM     23  C   UNL     1       1.444  11.123  18.894  0.00  0.00    +0.000 A 
ATOM     24  C   UNL     1       1.053  12.458  18.858  0.00  0.00    +0.000 A 
ATOM     25  C   UNL     1       2.021  13.480  18.821  0.00  0.00    +0.000 A 
ATOM     26  C   UNL     1       1.644  14.821  18.870  0.00  0.00    +0.000 A 
ATOM     27  C   UNL     1       0.297  15.148  18.891  0.00  0.00    +0.000 A 
ATOM     28  C   UNL     1      -0.671  14.137  18.831  0.00  0.00    +0.000 A 
ATOM     29  C   UNL     1      -0.333  12.749  18.870  0.00  0.00    +0.000 A 
ENDBRANCH   7  20
TORSDOF 2
ENDMDL
MODEL 3
REMARK VINA RESULT:      -6.4      3.076      6.185
REMARK  Name = 
REMARK  2 active torsions:
REMARK  status: ('A' for Active; 'I' for Inactive)
REMARK    1  A    between atoms: N_9  and  C_10
REMARK    2  A    between atoms: C_16  and  C_17
REMARK                            x       y       z     vdW  Elec       q    Type
REMARK                         _______ _______ _______ _____ _____    ______ ____
ROOT
ATOM      1  C   UNL     1      -1.346  14.921  22.808  0.00  0.00    +0.000 A 
ATOM      2  C   UNL     1      -0.893  16.078  23.524  0.00  0.00    +0.000 A 
ATOM      3 CL   UNL     1      -1.917  17.151  24.433  0.00  0.00    +0.000 Cl
ATOM      4  C   UNL     1       0.435  16.494  23.442  0.00  0.00    +0.000 A 
ATOM      5  N   UNL     1       1.382  15.870  22.727  0.00  0.00    +0.000 NA
ATOM      6  C   UNL     1       0.960  14.801  22.023  0.00  0.00    +0.000 A 
ATOM      7  C   UNL     1      -0.358  14.300  21.956  0.00  0.00    +0.000 A 
ENDROOT
BRANCH   1  16
ATOM      8  O   UNL     1      -5.984  11.686  20.922  0.00  0.00    +0.000 OA
ATOM      9  C   UNL     1      -6.224  12.305  21.943  0.00  0.00    +0.000 C 
ATOM     10  N   UNL     1      -7.331  12.095  22.742  0.00  0.00    +0.000 N 
ATOM     11  C   UNL     1      -7.335  12.906  23.920  0.00  0.00    +0.000 C 
ATOM     12  C   UNL     1      -6.347  14.009  23.587  0.00  0.00    +0.000 C 
ATOM     13  C   UNL     1      -5.344  13.343  22.619  0.00  0.00    +0.000 C 
ATOM     14  C   UNL     1      -4.745  14.347  21.627  0.00  0.00    +0.000 C 
ATOM     15  C   UNL     1      -3.781  15.297  22.348  0.00  0.00    +0.000 C 
ATOM     16  N   UNL     1      -2.685  14.495  22.932  0.00  0.00    +0.000 N 
ATOM     17  C   UNL     1      -3.154  13.516  23.921  0.00  0.00    +0.000 C 
ATOM     18  C   UNL     1      -4.213  12.590  23.341  0.00  0.00    +0.000 C 
ATOM     19  H   UNL     1      -7.993  11.362  22.523  0.00  0.00    +0.000 HD
ENDBRANCH   1  16
BRANCH   7  20
ATOM     20  C   UNL     1      -0.583  13.168  21.005  0.00  0.00    +0.000 A 
ATOM     21  C   UNL     1      -0.867  13.445  19.663  0.00  0.00    +0.000 A 
ATOM     22  N   UNL     1      -0.853  12.541  18.657  0.00  0.00    +0.000 NA
ATOM     23  C   UNL     1      -0.659  11.256  19.012  0.00  0.00    +0.000 A 
ATOM     24  C   UNL     1      -0.566  10.808  20.326  0.00  0.00    +0.000 A 
ATOM     25  C   UNL     1      -0.531   9.428  20.604  0.00  0.00    +0.000 A 
ATOM     26  C   UNL     1      -0.523   8.965  21.919  0.00  0.00    +0.000 A 
ATOM     27  C   UNL     1      -0.484   9.879  22.961  0.00  0.00    +0.000 A 
ATOM     28  C   UNL     1      -0.421  11.251  22.688  0.00  0.00    +0.000 A 
ATOM     29  C   UNL     1      -0.517  11.774  21.361  0.00  0.00    +0.000 A 
ENDBRANCH   7  20
TORSDOF 2
ENDMDL
MODEL 4
REMARK VINA RESULT:      -6.4      6.354      9.257
REMARK  Name = 
REMARK  2 active torsions:
REMARK  status: ('A' for Active; 'I' for Inactive)
REMARK    1  A    between atoms: N_9  and  C_10
REMARK    2  A    between atoms: C_16  and  C_17
REMARK                            x       y       z     vdW  Elec       q    Type
REMARK                         _______ _______ _______ _____ _____    ______ ____
ROOT
ATOM      1  C   UNL     1       2.717   4.983  19.284  0.00  0.00    +0.000 A 
ATOM      2  C   UNL     1       1.687   4.207  19.912  0.00  0.00    +0.000 A 
ATOM      3 CL   UNL     1       0.213   4.854  20.569  0.00  0.00    +0.000 Cl
ATOM      4  C   UNL     1       1.861   2.843  20.143  0.00  0.00    +0.000 A 
ATOM      5  N   UNL     1       2.956   2.150  19.801  0.00  0.00    +0.000 NA
ATOM      6  C   UNL     1       3.944   2.875  19.241  0.00  0.00    +0.000 A 
ATOM      7  C   UNL     1       3.940   4.266  19.002  0.00  0.00    +0.000 A 
ENDROOT
BRANCH   1  16
ATOM      8  O   UNL     1      -0.881   9.548  17.969  0.00  0.00    +0.000 OA
ATOM      9  C   UNL     1       0.273   9.893  18.142  0.00  0.00    +0.000 C 
ATOM     10  N   UNL     1       0.685  11.202  18.294  0.00  0.00    +0.000 N 
ATOM     11  C   UNL     1       2.085  11.326  18.557  0.00  0.00    +0.000 C 
ATOM     12  C   UNL     1       2.643   9.988  18.106  0.00  0.00    +0.000 C 
ATOM     13  C   UNL     1       1.483   8.993  18.338  0.00  0.00    +0.000 C 
ATOM     14  C   UNL     1       1.518   7.825  17.346  0.00  0.00    +0.000 C 
ATOM     15  C   UNL     1       2.694   6.893  17.661  0.00  0.00    +0.000 C 
ATOM     16  N   UNL     1       2.508   6.353  19.026  0.00  0.00    +0.000 N 
ATOM     17  C   UNL     1       2.488   7.397  20.058  0.00  0.00    +0.000 C 
ATOM     18  C   UNL     1       1.428   8.450  19.776  0.00  0.00    +0.000 C 
ATOM     19  H   UNL     1       0.009  11.957  18.305  0.00  0.00    +0.000 HD
ENDBRANCH   1  16
BRANCH   7  20
ATOM     20  C   UNL     1       5.214   4.847  18.474  0.00  0.00    +0.000 A 
ATOM     21  C   UNL     1       6.061   5.544  19.342  0.00  0.00    +0.000 A 
ATOM     22  N   UNL     1       7.335   5.906  19.068  0.00  0.00    +0.000 NA
ATOM     23  C   UNL     1       7.768   5.667  17.815  0.00  0.00    +0.000 A 
ATOM     24  C   UNL     1       6.971   5.166  16.789  0.00  0.00    +0.000 A 
ATOM     25  C   UNL     1       7.465   5.108  15.472  0.00  0.00    +0.000 A 
ATOM     26  C   UNL     1       6.650   4.687  14.422  0.00  0.00    +0.000 A 
ATOM     27  C   UNL     1       5.358   4.264  14.694  0.00  0.00    +0.000 A 
ATOM     28  C   UNL     1       4.894   4.229  16.015  0.00  0.00    +0.000 A 
ATOM     29  C   UNL     1       5.661   4.733  17.111  0.00  0.00    +0.000 A 
ENDBRANCH   7  20
TORSDOF 2
ENDMDL
MODEL 5
REMARK VINA RESULT:      -6.3      1.523      2.240
REMARK  Name = 
REMARK  2 active torsions:
REMARK  status: ('A' for Active; 'I' for Inactive)
REMARK    1  A    between atoms: N_9  and  C_10
REMARK    2  A    between atoms: C_16  and  C_17
REMARK                            x       y       z     vdW  Elec       q    Type
REMARK                         _______ _______ _______ _____ _____    ______ ____
ROOT
ATOM      1  C   UNL     1      -1.282  14.766  21.656  0.00  0.00    +0.000 A 
ATOM      2  C   UNL     1      -1.752  15.772  22.564  0.00  0.00    +0.000 A 
ATOM      3 CL   UNL     1      -0.837  17.159  23.076  0.00  0.00    +0.000 Cl
ATOM      4  C   UNL     1      -2.984  15.636  23.204  0.00  0.00    +0.000 A 
ATOM      5  N   UNL     1      -3.819  14.602  23.029  0.00  0.00    +0.000 NA
ATOM      6  C   UNL     1      -3.372  13.635  22.204  0.00  0.00    +0.000 A 
ATOM      7  C   UNL     1      -2.129  13.601  21.537  0.00  0.00    +0.000 A 
ENDROOT
BRANCH   1  16
ATOM      8  O   UNL     1       2.969  12.807  17.966  0.00  0.00    +0.000 OA
ATOM      9  C   UNL     1       3.186  13.931  18.381  0.00  0.00    +0.000 C 
ATOM     10  N   UNL     1       4.147  14.782  17.870  0.00  0.00    +0.000 N 
ATOM     11  C   UNL     1       4.145  16.070  18.492  0.00  0.00    +0.000 C 
ATOM     12  C   UNL     1       3.389  15.831  19.786  0.00  0.00    +0.000 C 
ATOM     13  C   UNL     1       2.410  14.683  19.450  0.00  0.00    +0.000 C 
ATOM     14  C   UNL     1       2.095  13.815  20.674  0.00  0.00    +0.000 C 
ATOM     15  C   UNL     1       1.218  14.590  21.664  0.00  0.00    +0.000 C 
ATOM     16  N   UNL     1      -0.051  14.939  20.990  0.00  0.00    +0.000 N 
ATOM     17  C   UNL     1       0.142  15.797  19.814  0.00  0.00    +0.000 C 
ATOM     18  C   UNL     1       1.099  15.173  18.810  0.00  0.00    +0.000 C 
ATOM     19  H   UNL     1       4.706  14.508  17.072  0.00  0.00    +0.000 HD
ENDBRANCH   1  16
BRANCH   7  20
ATOM     20  C   UNL     1      -1.827  12.353  20.770  0.00  0.00    +0.000 A 
ATOM     21  C   UNL     1      -2.264  12.239  19.445  0.00  0.00    +0.000 A 
ATOM     22  N   UNL     1      -1.863  11.291  18.568  0.00  0.00    +0.000 NA
ATOM     23  C   UNL     1      -1.065  10.323  19.058  0.00  0.00    +0.000 A 
ATOM     24  C   UNL     1      -0.715  10.195  20.399  0.00  0.00    +0.000 A 
ATOM     25  C   UNL     1      -0.015   9.057  20.844  0.00  0.00    +0.000 A 
ATOM     26  C   UNL     1       0.268   8.877  22.198  0.00  0.00    +0.000 A 
ATOM     27  C   UNL     1      -0.091   9.864  23.103  0.00  0.00    +0.000 A 
ATOM     28  C   UNL     1      -0.701  11.042  22.653  0.00  0.00    +0.000 A 
ATOM     29  C   UNL     1      -1.090  11.231  21.290  0.00  0.00    +0.000 A 
ENDBRANCH   7  20
TORSDOF 2
ENDMDL
MODEL 6
REMARK VINA RESULT:      -6.3      1.742      2.049
REMARK  Name = 
REMARK  2 active torsions:
REMARK  status: ('A' for Active; 'I' for Inactive)
REMARK    1  A    between atoms: N_9  and  C_10
REMARK    2  A    between atoms: C_16  and  C_17
REMARK                            x       y       z     vdW  Elec       q    Type
REMARK                         _______ _______ _______ _____ _____    ______ ____
ROOT
ATOM      1  C   UNL     1      -1.551  14.058  22.221  0.00  0.00    +0.000 A 
ATOM      2  C   UNL     1      -2.281  14.685  23.284  0.00  0.00    +0.000 A 
ATOM      3 CL   UNL     1      -2.124  16.352  23.753  0.00  0.00    +0.000 Cl
ATOM      4  C   UNL     1      -3.118  13.938  24.113  0.00  0.00    +0.000 A 
ATOM      5  N   UNL     1      -3.323  12.619  23.992  0.00  0.00    +0.000 NA
ATOM      6  C   UNL     1      -2.615  12.014  23.018  0.00  0.00    +0.000 A 
ATOM      7  C   UNL     1      -1.688  12.621  22.145  0.00  0.00    +0.000 A 
ENDROOT
BRANCH   1  16
ATOM      8  O   UNL     1       2.737  14.534  18.109  0.00  0.00    +0.000 OA
ATOM      9  C   UNL     1       2.242  15.607  18.400  0.00  0.00    +0.000 C 
ATOM     10  N   UNL     1       2.435  16.776  17.690  0.00  0.00    +0.000 N 
ATOM     11  C   UNL     1       1.680  17.877  18.204  0.00  0.00    +0.000 C 
ATOM     12  C   UNL     1       1.324  17.429  19.609  0.00  0.00    +0.000 C 
ATOM     13  C   UNL     1       1.243  15.889  19.510  0.00  0.00    +0.000 C 
ATOM     14  C   UNL     1       1.615  15.204  20.830  0.00  0.00    +0.000 C 
ATOM     15  C   UNL     1       0.517  15.431  21.876  0.00  0.00    +0.000 C 
ATOM     16  N   UNL     1      -0.739  14.837  21.370  0.00  0.00    +0.000 N 
ATOM     17  C   UNL     1      -1.198  15.446  20.116  0.00  0.00    +0.000 C 
ATOM     18  C   UNL     1      -0.131  15.384  19.034  0.00  0.00    +0.000 C 
ATOM     19  H   UNL     1       2.987  16.779  16.841  0.00  0.00    +0.000 HD
ENDBRANCH   1  16
BRANCH   7  20
ATOM     20  C   UNL     1      -0.947  11.701  21.228  0.00  0.00    +0.000 A 
ATOM     21  C   UNL     1       0.246  11.112  21.662  0.00  0.00    +0.000 A 
ATOM     22  N   UNL     1       0.883  10.091  21.047  0.00  0.00    +0.000 NA
ATOM     23  C   UNL     1       0.376   9.696  19.863  0.00  0.00    +0.000 A 
ATOM     24  C   UNL     1      -0.682  10.324  19.212  0.00  0.00    +0.000 A 
ATOM     25  C   UNL     1      -1.033   9.946  17.902  0.00  0.00    +0.000 A 
ATOM     26  C   UNL     1      -2.035  10.622  17.208  0.00  0.00    +0.000 A 
ATOM     27  C   UNL     1      -2.734  11.638  17.843  0.00  0.00    +0.000 A 
ATOM     28  C   UNL     1      -2.454  11.953  19.178  0.00  0.00    +0.000 A 
ATOM     29  C   UNL     1      -1.378  11.348  19.900  0.00  0.00    +0.000 A 
ENDBRANCH   7  20
TORSDOF 2
ENDMDL
MODEL 7
REMARK VINA RESULT:      -6.3      6.801     10.279
REMARK  Name = 
REMARK  2 active torsions:
REMARK  status: ('A' for Active; 'I' for Inactive)
REMARK    1  A    between atoms: N_9  and  C_10
REMARK    2  A    between atoms: C_16  and  C_17
REMARK                            x       y       z     vdW  Elec       q    Type
REMARK                         _______ _______ _______ _____ _____    ______ ____
ROOT
ATOM      1  C   UNL     1       9.676  15.743  18.258  0.00  0.00    +0.000 A 
ATOM      2  C   UNL     1      10.368  16.813  17.599  0.00  0.00    +0.000 A 
ATOM      3 CL   UNL     1       9.686  18.374  17.248  0.00  0.00    +0.000 Cl
ATOM      4  C   UNL     1      11.648  16.623  17.081  0.00  0.00    +0.000 A 
ATOM      5  N   UNL     1      12.333  15.473  17.157  0.00  0.00    +0.000 NA
ATOM      6  C   UNL     1      11.679  14.451  17.743  0.00  0.00    +0.000 A 
ATOM      7  C   UNL     1      10.365  14.473  18.257  0.00  0.00    +0.000 A 
ENDROOT
BRANCH   1  16
ATOM      8  O   UNL     1       5.230  14.186  21.909  0.00  0.00    +0.000 OA
ATOM      9  C   UNL     1       5.012  15.228  21.319  0.00  0.00    +0.000 C 
ATOM     10  N   UNL     1       3.996  16.109  21.634  0.00  0.00    +0.000 N 
ATOM     11  C   UNL     1       4.007  17.292  20.831  0.00  0.00    +0.000 C 
ATOM     12  C   UNL     1       4.858  16.896  19.639  0.00  0.00    +0.000 C 
ATOM     13  C   UNL     1       5.841  15.846  20.205  0.00  0.00    +0.000 C 
ATOM     14  C   UNL     1       6.265  14.822  19.145  0.00  0.00    +0.000 C 
ATOM     15  C   UNL     1       7.188  15.476  18.111  0.00  0.00    +0.000 C 
ATOM     16  N   UNL     1       8.397  15.966  18.808  0.00  0.00    +0.000 N 
ATOM     17  C   UNL     1       8.099  16.977  19.830  0.00  0.00    +0.000 C 
ATOM     18  C   UNL     1       7.090  16.471  20.850  0.00  0.00    +0.000 C 
ATOM     19  H   UNL     1       3.390  15.933  22.426  0.00  0.00    +0.000 HD
ENDBRANCH   1  16
BRANCH   7  20
ATOM     20  C   UNL     1       9.831  13.167  18.752  0.00  0.00    +0.000 A 
ATOM     21  C   UNL     1       9.623  12.122  17.845  0.00  0.00    +0.000 A 
ATOM     22  N   UNL     1       9.381  10.834  18.177  0.00  0.00    +0.000 NA
ATOM     23  C   UNL     1       9.219  10.576  19.490  0.00  0.00    +0.000 A 
ATOM     24  C   UNL     1       9.196  11.548  20.486  0.00  0.00    +0.000 A 
ATOM     25  C   UNL     1       8.853  11.201  21.807  0.00  0.00    +0.000 A 
ATOM     26  C   UNL     1       8.745  12.178  22.796  0.00  0.00    +0.000 A 
ATOM     27  C   UNL     1       9.041  13.496  22.483  0.00  0.00    +0.000 A 
ATOM     28  C   UNL     1       9.475  13.831  21.194  0.00  0.00    +0.000 A 
ATOM     29  C   UNL     1       9.515  12.880  20.127  0.00  0.00    +0.000 A 
ENDBRANCH   7  20
TORSDOF 2
ENDMDL
MODEL 8
REMARK VINA RESULT:      -6.3      1.622      2.372
REMARK  Name = 
REMARK  2 active torsions:
REMARK  status: ('A' for Active; 'I' for Inactive)
REMARK    1  A    between atoms: N_9  and  C_10
REMARK    2  A    between atoms: C_16  and  C_17
REMARK                            x       y       z     vdW  Elec       q    Type
REMARK                         _______ _______ _______ _____ _____    ______ ____
ROOT
ATOM      1  C   UNL     1      -1.540  13.948  21.709  0.00  0.00    +0.000 A 
ATOM      2  C   UNL     1      -1.781  14.511  23.006  0.00  0.00    +0.000 A 
ATOM      3 CL   UNL     1      -0.689  15.566  23.854  0.00  0.00    +0.000 Cl
ATOM      4  C   UNL     1      -2.904  14.144  23.746  0.00  0.00    +0.000 A 
ATOM      5  N   UNL     1      -3.837  13.276  23.328  0.00  0.00    +0.000 NA
ATOM      6  C   UNL     1      -3.603  12.716  22.125  0.00  0.00    +0.000 A 
ATOM      7  C   UNL     1      -2.486  12.938  21.292  0.00  0.00    +0.000 A 
ENDROOT
BRANCH   1  16
ATOM      8  O   UNL     1       2.930  12.775  17.946  0.00  0.00    +0.000 OA
ATOM      9  C   UNL     1       2.872  13.951  18.256  0.00  0.00    +0.000 C 
ATOM     10  N   UNL     1       3.567  14.963  17.624  0.00  0.00    +0.000 N 
ATOM     11  C   UNL     1       3.262  16.261  18.139  0.00  0.00    +0.000 C 
ATOM     12  C   UNL     1       2.639  15.963  19.490  0.00  0.00    +0.000 C 
ATOM     13  C   UNL     1       1.970  14.582  19.305  0.00  0.00    +0.000 C 
ATOM     14  C   UNL     1       1.929  13.780  20.611  0.00  0.00    +0.000 C 
ATOM     15  C   UNL     1       0.922  14.401  21.586  0.00  0.00    +0.000 C 
ATOM     16  N   UNL     1      -0.418  14.360  20.961  0.00  0.00    +0.000 N 
ATOM     17  C   UNL     1      -0.491  15.126  19.710  0.00  0.00    +0.000 C 
ATOM     18  C   UNL     1       0.555  14.669  18.705  0.00  0.00    +0.000 C 
ATOM     19  H   UNL     1       4.147  14.764  16.818  0.00  0.00    +0.000 HD
ENDBRANCH   1  16
BRANCH   7  20
ATOM     20  C   UNL     1      -2.409  12.099  20.057  0.00  0.00    +0.000 A 
ATOM     21  C   UNL     1      -3.485  12.094  19.162  0.00  0.00    +0.000 A 
ATOM     22  N   UNL     1      -3.458  11.586  17.909  0.00  0.00    +0.000 NA
ATOM     23  C   UNL     1      -2.333  10.936  17.552  0.00  0.00    +0.000 A 
ATOM     24  C   UNL     1      -1.263  10.687  18.406  0.00  0.00    +0.000 A 
ATOM     25  C   UNL     1      -0.204   9.855  17.993  0.00  0.00    +0.000 A 
ATOM     26  C   UNL     1       0.831   9.530  18.868  0.00  0.00    +0.000 A 
ATOM     27  C   UNL     1       0.845  10.085  20.139  0.00  0.00    +0.000 A 
ATOM     28  C   UNL     1      -0.154  10.988  20.522  0.00  0.00    +0.000 A 
ATOM     29  C   UNL     1      -1.281  11.282  19.692  0.00  0.00    +0.000 A 
ENDBRANCH   7  20
TORSDOF 2
ENDMDL
MODEL 9
REMARK VINA RESULT:      -6.3      6.985     11.498
REMARK  Name = 
REMARK  2 active torsions:
REMARK  status: ('A' for Active; 'I' for Inactive)
REMARK    1  A    between atoms: N_9  and  C_10
REMARK    2  A    between atoms: C_16  and  C_17
REMARK                            x       y       z     vdW  Elec       q    Type
REMARK                         _______ _______ _______ _____ _____    ______ ____
ROOT
ATOM      1  C   UNL     1       9.556  13.585  18.265  0.00  0.00    +0.000 A 
ATOM      2  C   UNL     1       9.767  12.178  18.087  0.00  0.00    +0.000 A 
ATOM      3 CL   UNL     1       8.608  10.940  18.475  0.00  0.00    +0.000 Cl
ATOM      4  C   UNL     1      11.006  11.687  17.678  0.00  0.00    +0.000 A 
ATOM      5  N   UNL     1      12.073  12.453  17.409  0.00  0.00    +0.000 NA
ATOM      6  C   UNL     1      11.896  13.775  17.605  0.00  0.00    +0.000 A 
ATOM      7  C   UNL     1      10.727  14.410  18.073  0.00  0.00    +0.000 A 
ENDROOT
BRANCH   1  16
ATOM      8  O   UNL     1       5.840  18.071  19.525  0.00  0.00    +0.000 OA
ATOM      9  C   UNL     1       5.298  16.982  19.573  0.00  0.00    +0.000 C 
ATOM     10  N   UNL     1       3.931  16.791  19.639  0.00  0.00    +0.000 N 
ATOM     11  C   UNL     1       3.555  15.412  19.611  0.00  0.00    +0.000 C 
ATOM     12  C   UNL     1       4.838  14.693  19.985  0.00  0.00    +0.000 C 
ATOM     13  C   UNL     1       5.960  15.619  19.464  0.00  0.00    +0.000 C 
ATOM     14  C   UNL     1       7.236  15.512  20.308  0.00  0.00    +0.000 C 
ATOM     15  C   UNL     1       7.918  14.159  20.073  0.00  0.00    +0.000 C 
ATOM     16  N   UNL     1       8.285  14.064  18.643  0.00  0.00    +0.000 N 
ATOM     17  C   UNL     1       7.123  14.129  17.747  0.00  0.00    +0.000 C 
ATOM     18  C   UNL     1       6.299  15.386  17.981  0.00  0.00    +0.000 C 
ATOM     19  H   UNL     1       3.298  17.581  19.610  0.00  0.00    +0.000 HD
ENDBRANCH   1  16
BRANCH   7  20
ATOM     20  C   UNL     1      10.830  15.883  18.317  0.00  0.00    +0.000 A 
ATOM     21  C   UNL     1      10.877  16.757  17.225  0.00  0.00    +0.000 A 
ATOM     22  N   UNL     1      10.727  18.099  17.291  0.00  0.00    +0.000 NA
ATOM     23  C   UNL     1      10.639  18.631  18.526  0.00  0.00    +0.000 A 
ATOM     24  C   UNL     1      10.782  17.907  19.706  0.00  0.00    +0.000 A 
ATOM     25  C   UNL     1      10.842  18.575  20.945  0.00  0.00    +0.000 A 
ATOM     26  C   UNL     1      11.069  17.869  22.125  0.00  0.00    +0.000 A 
ATOM     27  C   UNL     1      11.172  16.487  22.081  0.00  0.00    +0.000 A 
ATOM     28  C   UNL     1      11.017  15.810  20.865  0.00  0.00    +0.000 A 
ATOM     29  C   UNL     1      10.872  16.496  19.618  0.00  0.00    +0.000 A 
ENDBRANCH   7  20
TORSDOF 2
ENDMDL
