MODEL 1
REMARK VINA RESULT:      -6.8      0.000      0.000
REMARK  Name = 
REMARK  7 active torsions:
REMARK  status: ('A' for Active; 'I' for Inactive)
REMARK    1  A    between atoms: C_1  and  C_2
REMARK    2  A    between atoms: C_4  and  N_5
REMARK    3  A    between atoms: C_12  and  C_13
REMARK    4  A    between atoms: N_16  and  C_17
REMARK    5  A    between atoms: C_20  and  C_21
REMARK    6  A    between atoms: C_21  and  C_22
REMARK    7  A    between atoms: C_21  and  C_23
REMARK                            x       y       z     vdW  Elec       q    Type
REMARK                         _______ _______ _______ _____ _____    ______ ____
ROOT
ATOM      1  C   UNL     1       3.769  14.346  18.254  0.00  0.00    +0.000 C 
ATOM      2  C   UNL     1       2.373  13.989  18.689  0.00  0.00    +0.000 A 
ATOM      3  C   UNL     1       1.470  14.995  19.008  0.00  0.00    +0.000 A 
ATOM      4  C   UNL     1       0.167  14.701  19.452  0.00  0.00    +0.000 A 
ATOM      5  C   UNL     1      -0.171  13.317  19.492  0.00  0.00    +0.000 A 
ATOM      6  C   UNL     1      -1.316  12.547  19.845  0.00  0.00    +0.000 A 
ATOM      7  C   UNL     1      -1.001  11.218  19.700  0.00  0.00    +0.000 A 
ATOM      8  N   UNL     1       0.327  11.094  19.366  0.00  0.00    +0.000 N 
ATOM      9  C   UNL     1       0.823  12.384  19.157  0.00  0.00    +0.000 A 
ATOM     10  N   UNL     1       2.089  12.678  18.774  0.00  0.00    +0.000 NA
ENDROOT
BRANCH   8  11
ATOM     11  C   UNL     1       1.018   9.852  19.207  0.00  0.00    +0.000 A 
ATOM     12  C   UNL     1       1.457   9.498  17.919  0.00  0.00    +0.000 A 
ATOM     13  C   UNL     1       2.133   8.296  17.688  0.00  0.00    +0.000 A 
ATOM     14  C   UNL     1       2.384   7.408  18.736  0.00  0.00    +0.000 A 
ATOM     15  C   UNL     1       1.935   7.750  20.017  0.00  0.00    +0.000 A 
ATOM     16  C   UNL     1       1.267   8.959  20.266  0.00  0.00    +0.000 A 
ATOM     17 BR   UNL     1       0.941   9.283  22.119  0.00  0.00    +0.000 Br
BRANCH  14  18
ATOM     18  C   UNL     1       3.140   6.118  18.486  0.00  0.00    +0.000 C 
ATOM     19  C   UNL     1       2.185   4.958  18.183  0.00  0.00    +0.000 C 
ATOM     20  C   UNL     1       4.162   6.283  17.359  0.00  0.00    +0.000 C 
ENDBRANCH  14  18
ENDBRANCH   8  11
BRANCH   4  21
ATOM     21  N   UNL     1      -0.664  15.702  19.928  0.00  0.00    +0.000 N 
ATOM     22  C   UNL     1      -0.816  15.932  21.378  0.00  0.00    +0.000 C 
ATOM     23  C   UNL     1      -2.218  16.509  21.644  0.00  0.00    +0.000 C 
ATOM     24  O   UNL     1      -2.469  17.695  20.867  0.00  0.00    +0.000 OA
ATOM     25  C   UNL     1      -2.323  17.411  19.459  0.00  0.00    +0.000 C 
ATOM     26  C   UNL     1      -0.890  16.934  19.154  0.00  0.00    +0.000 C 
ENDBRANCH   4  21
BRANCH   6  27
ATOM     27  C   UNL     1      -2.632  12.950  20.226  0.00  0.00    +0.000 C 
ATOM     28  N   UNL     1      -3.723  13.205  20.516  0.00  0.00    +0.000 NA
ENDBRANCH   6  27
TORSDOF 4
ENDMDL
MODEL 2
REMARK VINA RESULT:      -6.7      1.341      1.456
REMARK  Name = 
REMARK  7 active torsions:
REMARK  status: ('A' for Active; 'I' for Inactive)
REMARK    1  A    between atoms: C_1  and  C_2
REMARK    2  A    between atoms: C_4  and  N_5
REMARK    3  A    between atoms: C_12  and  C_13
REMARK    4  A    between atoms: N_16  and  C_17
REMARK    5  A    between atoms: C_20  and  C_21
REMARK    6  A    between atoms: C_21  and  C_22
REMARK    7  A    between atoms: C_21  and  C_23
REMARK                            x       y       z     vdW  Elec       q    Type
REMARK                         _______ _______ _______ _____ _____    ______ ____
ROOT
ATOM      1  C   UNL     1       2.995  14.298  21.160  0.00  0.00    +0.000 C 
ATOM      2  C   UNL     1       1.605  13.830  20.823  0.00  0.00    +0.000 A 
ATOM      3  C   UNL     1       0.521  14.672  21.038  0.00  0.00    +0.000 A 
ATOM      4  C   UNL     1      -0.797  14.259  20.769  0.00  0.00    +0.000 A 
ATOM      5  C   UNL     1      -0.930  12.955  20.211  0.00  0.00    +0.000 A 
ATOM      6  C   UNL     1      -2.004  12.126  19.777  0.00  0.00    +0.000 A 
ATOM      7  C   UNL     1      -1.479  10.928  19.356  0.00  0.00    +0.000 A 
ATOM      8  N   UNL     1      -0.125  10.912  19.593  0.00  0.00    +0.000 N 
ATOM      9  C   UNL     1       0.231  12.185  20.044  0.00  0.00    +0.000 A 
ATOM     10  N   UNL     1       1.493  12.577  20.349  0.00  0.00    +0.000 NA
ENDROOT
BRANCH   8  11
ATOM     11  C   UNL     1       0.735   9.795  19.347  0.00  0.00    +0.000 A 
ATOM     12  C   UNL     1       1.210   9.601  18.038  0.00  0.00    +0.000 A 
ATOM     13  C   UNL     1       2.048   8.527  17.723  0.00  0.00    +0.000 A 
ATOM     14  C   UNL     1       2.432   7.611  18.705  0.00  0.00    +0.000 A 
ATOM     15  C   UNL     1       1.947   7.793  20.006  0.00  0.00    +0.000 A 
ATOM     16  C   UNL     1       1.116   8.873  20.340  0.00  0.00    +0.000 A 
ATOM     17 BR   UNL     1       0.762   9.014  22.210  0.00  0.00    +0.000 Br
BRANCH  14  18
ATOM     18  C   UNL     1       3.361   6.463  18.365  0.00  0.00    +0.000 C 
ATOM     19  C   UNL     1       2.580   5.177  18.069  0.00  0.00    +0.000 C 
ATOM     20  C   UNL     1       4.276   6.820  17.191  0.00  0.00    +0.000 C 
ENDBRANCH  14  18
ENDBRANCH   8  11
BRANCH   4  21
ATOM     21  N   UNL     1      -1.877  15.041  21.146  0.00  0.00    +0.000 N 
ATOM     22  C   UNL     1      -2.558  14.818  22.437  0.00  0.00    +0.000 C 
ATOM     23  C   UNL     1      -4.032  15.238  22.300  0.00  0.00    +0.000 C 
ATOM     24  O   UNL     1      -4.165  16.593  21.832  0.00  0.00    +0.000 OA
ATOM     25  C   UNL     1      -3.497  16.753  20.562  0.00  0.00    +0.000 C 
ATOM     26  C   UNL     1      -1.995  16.440  20.703  0.00  0.00    +0.000 C 
ENDBRANCH   4  21
BRANCH   6  27
ATOM     27  C   UNL     1      -3.404  12.388  19.674  0.00  0.00    +0.000 C 
ATOM     28  N   UNL     1      -4.545  12.539  19.543  0.00  0.00    +0.000 NA
ENDBRANCH   6  27
TORSDOF 4
ENDMDL
MODEL 3
REMARK VINA RESULT:      -6.5      1.359      1.696
REMARK  Name = 
REMARK  7 active torsions:
REMARK  status: ('A' for Active; 'I' for Inactive)
REMARK    1  A    between atoms: C_1  and  C_2
REMARK    2  A    between atoms: C_4  and  N_5
REMARK    3  A    between atoms: C_12  and  C_13
REMARK    4  A    between atoms: N_16  and  C_17
REMARK    5  A    between atoms: C_20  and  C_21
REMARK    6  A    between atoms: C_21  and  C_22
REMARK    7  A    between atoms: C_21  and  C_23
REMARK                            x       y       z     vdW  Elec       q    Type
REMARK                         _______ _______ _______ _____ _____    ______ ____
ROOT
ATOM      1  C   UNL     1       3.264  14.309  21.229  0.00  0.00    +0.000 C 
ATOM      2  C   UNL     1       1.841  13.897  20.968  0.00  0.00    +0.000 A 
ATOM      3  C   UNL     1       0.803  14.777  21.249  0.00  0.00    +0.000 A 
ATOM      4  C   UNL     1      -0.542  14.415  21.052  0.00  0.00    +0.000 A 
ATOM      5  C   UNL     1      -0.756  13.121  20.495  0.00  0.00    +0.000 A 
ATOM      6  C   UNL     1      -1.883  12.336  20.117  0.00  0.00    +0.000 A 
ATOM      7  C   UNL     1      -1.427  11.123  19.661  0.00  0.00    +0.000 A 
ATOM      8  N   UNL     1      -0.063  11.054  19.821  0.00  0.00    +0.000 N 
ATOM      9  C   UNL     1       0.365  12.310  20.259  0.00  0.00    +0.000 A 
ATOM     10  N   UNL     1       1.655  12.652  20.494  0.00  0.00    +0.000 NA
ENDROOT
BRANCH   8  11
ATOM     11  C   UNL     1       0.738   9.908  19.521  0.00  0.00    +0.000 A 
ATOM     12  C   UNL     1       1.123   9.701  18.185  0.00  0.00    +0.000 A 
ATOM     13  C   UNL     1       1.901   8.599  17.816  0.00  0.00    +0.000 A 
ATOM     14  C   UNL     1       2.312   7.667  18.772  0.00  0.00    +0.000 A 
ATOM     15  C   UNL     1       1.917   7.862  20.101  0.00  0.00    +0.000 A 
ATOM     16  C   UNL     1       1.148   8.970  20.487  0.00  0.00    +0.000 A 
ATOM     17 BR   UNL     1       0.917   9.118  22.376  0.00  0.00    +0.000 Br
BRANCH  14  18
ATOM     18  C   UNL     1       3.177   6.487  18.373  0.00  0.00    +0.000 C 
ATOM     19  C   UNL     1       2.326   5.290  17.935  0.00  0.00    +0.000 C 
ATOM     20  C   UNL     1       4.169   6.874  17.274  0.00  0.00    +0.000 C 
ENDBRANCH  14  18
ENDBRANCH   8  11
BRANCH   4  21
ATOM     21  N   UNL     1      -1.570  15.234  21.493  0.00  0.00    +0.000 N 
ATOM     22  C   UNL     1      -2.332  16.067  20.542  0.00  0.00    +0.000 C 
ATOM     23  C   UNL     1      -2.837  17.322  21.277  0.00  0.00    +0.000 C 
ATOM     24  O   UNL     1      -3.597  16.988  22.453  0.00  0.00    +0.000 OA
ATOM     25  C   UNL     1      -2.802  16.188  23.354  0.00  0.00    +0.000 C 
ATOM     26  C   UNL     1      -2.377  14.875  22.671  0.00  0.00    +0.000 C 
ENDBRANCH   4  21
BRANCH   6  27
ATOM     27  C   UNL     1      -3.275  12.650  20.095  0.00  0.00    +0.000 C 
ATOM     28  N   UNL     1      -4.387  12.974  20.107  0.00  0.00    +0.000 NA
ENDBRANCH   6  27
TORSDOF 4
ENDMDL
MODEL 4
REMARK VINA RESULT:      -6.4      2.488      3.431
REMARK  Name = 
REMARK  7 active torsions:
REMARK  status: ('A' for Active; 'I' for Inactive)
REMARK    1  A    between atoms: C_1  and  C_2
REMARK    2  A    between atoms: C_4  and  N_5
REMARK    3  A    between atoms: C_12  and  C_13
REMARK    4  A    between atoms: N_16  and  C_17
REMARK    5  A    between atoms: C_20  and  C_21
REMARK    6  A    between atoms: C_21  and  C_22
REMARK    7  A    between atoms: C_21  and  C_23
REMARK                            x       y       z     vdW  Elec       q    Type
REMARK                         _______ _______ _______ _____ _____    ______ ____
ROOT
ATOM      1  C   UNL     1      -2.460  10.189  15.908  0.00  0.00    +0.000 C 
ATOM      2  C   UNL     1      -1.986  10.496  17.303  0.00  0.00    +0.000 A 
ATOM      3  C   UNL     1      -2.672  11.422  18.078  0.00  0.00    +0.000 A 
ATOM      4  C   UNL     1      -2.240  11.762  19.374  0.00  0.00    +0.000 A 
ATOM      5  C   UNL     1      -1.100  11.050  19.848  0.00  0.00    +0.000 A 
ATOM      6  C   UNL     1      -0.323  11.029  21.041  0.00  0.00    +0.000 A 
ATOM      7  C   UNL     1       0.699  10.126  20.872  0.00  0.00    +0.000 A 
ATOM      8  N   UNL     1       0.673   9.638  19.587  0.00  0.00    +0.000 N 
ATOM      9  C   UNL     1      -0.479  10.142  18.977  0.00  0.00    +0.000 A 
ATOM     10  N   UNL     1      -0.877   9.856  17.713  0.00  0.00    +0.000 NA
ENDROOT
BRANCH   8  11
ATOM     11  C   UNL     1       1.634   8.732  19.037  0.00  0.00    +0.000 A 
ATOM     12  C   UNL     1       2.355   9.139  17.901  0.00  0.00    +0.000 A 
ATOM     13  C   UNL     1       3.305   8.303  17.306  0.00  0.00    +0.000 A 
ATOM     14  C   UNL     1       3.557   7.031  17.825  0.00  0.00    +0.000 A 
ATOM     15  C   UNL     1       2.829   6.616  18.947  0.00  0.00    +0.000 A 
ATOM     16  C   UNL     1       1.883   7.450  19.562  0.00  0.00    +0.000 A 
ATOM     17 BR   UNL     1       1.179   6.736  21.186  0.00  0.00    +0.000 Br
BRANCH  14  18
ATOM     18  C   UNL     1       4.606   6.137  17.193  0.00  0.00    +0.000 C 
ATOM     19  C   UNL     1       4.120   4.687  17.092  0.00  0.00    +0.000 C 
ATOM     20  C   UNL     1       5.025   6.662  15.818  0.00  0.00    +0.000 C 
ENDBRANCH  14  18
ENDBRANCH   8  11
BRANCH   4  21
ATOM     21  N   UNL     1      -2.829  12.806  20.068  0.00  0.00    +0.000 N 
ATOM     22  C   UNL     1      -2.163  14.120  20.165  0.00  0.00    +0.000 C 
ATOM     23  C   UNL     1      -2.587  14.796  21.481  0.00  0.00    +0.000 C 
ATOM     24  O   UNL     1      -4.018  14.892  21.600  0.00  0.00    +0.000 OA
ATOM     25  C   UNL     1      -4.617  13.581  21.515  0.00  0.00    +0.000 C 
ATOM     26  C   UNL     1      -4.293  12.930  20.157  0.00  0.00    +0.000 C 
ENDBRANCH   4  21
BRANCH   6  27
ATOM     27  C   UNL     1      -0.499  11.710  22.283  0.00  0.00    +0.000 C 
ATOM     28  N   UNL     1      -0.708  12.291  23.263  0.00  0.00    +0.000 NA
ENDBRANCH   6  27
TORSDOF 4
ENDMDL
MODEL 5
REMARK VINA RESULT:      -6.4      0.515      1.020
REMARK  Name = 
REMARK  7 active torsions:
REMARK  status: ('A' for Active; 'I' for Inactive)
REMARK    1  A    between atoms: C_1  and  C_2
REMARK    2  A    between atoms: C_4  and  N_5
REMARK    3  A    between atoms: C_12  and  C_13
REMARK    4  A    between atoms: N_16  and  C_17
REMARK    5  A    between atoms: C_20  and  C_21
REMARK    6  A    between atoms: C_21  and  C_22
REMARK    7  A    between atoms: C_21  and  C_23
REMARK                            x       y       z     vdW  Elec       q    Type
REMARK                         _______ _______ _______ _____ _____    ______ ____
ROOT
ATOM      1  C   UNL     1       4.078  14.293  18.272  0.00  0.00    +0.000 C 
ATOM      2  C   UNL     1       2.680  13.996  18.743  0.00  0.00    +0.000 A 
ATOM      3  C   UNL     1       1.835  15.039  19.101  0.00  0.00    +0.000 A 
ATOM      4  C   UNL     1       0.533  14.801  19.579  0.00  0.00    +0.000 A 
ATOM      5  C   UNL     1       0.131  13.434  19.610  0.00  0.00    +0.000 A 
ATOM      6  C   UNL     1      -1.039  12.714  19.986  0.00  0.00    +0.000 A 
ATOM      7  C   UNL     1      -0.792  11.373  19.815  0.00  0.00    +0.000 A 
ATOM      8  N   UNL     1       0.518  11.192  19.440  0.00  0.00    +0.000 N 
ATOM      9  C   UNL     1       1.068  12.460  19.234  0.00  0.00    +0.000 A 
ATOM     10  N   UNL     1       2.336  12.699  18.818  0.00  0.00    +0.000 NA
ENDROOT
BRANCH   8  11
ATOM     11  C   UNL     1       1.144   9.921  19.244  0.00  0.00    +0.000 A 
ATOM     12  C   UNL     1       1.596   9.596  17.953  0.00  0.00    +0.000 A 
ATOM     13  C   UNL     1       2.211   8.369  17.687  0.00  0.00    +0.000 A 
ATOM     14  C   UNL     1       2.387   7.426  18.703  0.00  0.00    +0.000 A 
ATOM     15  C   UNL     1       1.924   7.740  19.986  0.00  0.00    +0.000 A 
ATOM     16  C   UNL     1       1.317   8.973  20.270  0.00  0.00    +0.000 A 
ATOM     17 BR   UNL     1       0.962   9.239  22.127  0.00  0.00    +0.000 Br
BRANCH  14  18
ATOM     18  C   UNL     1       3.077   6.107  18.416  0.00  0.00    +0.000 C 
ATOM     19  C   UNL     1       2.082   5.047  17.929  0.00  0.00    +0.000 C 
ATOM     20  C   UNL     1       4.213   6.285  17.406  0.00  0.00    +0.000 C 
ENDBRANCH  14  18
ENDBRANCH   8  11
BRANCH   4  21
ATOM     21  N   UNL     1      -0.236  15.833  20.091  0.00  0.00    +0.000 N 
ATOM     22  C   UNL     1      -1.321  16.436  19.291  0.00  0.00    +0.000 C 
ATOM     23  C   UNL     1      -1.496  17.904  19.719  0.00  0.00    +0.000 C 
ATOM     24  O   UNL     1      -1.717  18.030  21.135  0.00  0.00    +0.000 OA
ATOM     25  C   UNL     1      -0.623  17.440  21.868  0.00  0.00    +0.000 C 
ATOM     26  C   UNL     1      -0.499  15.941  21.535  0.00  0.00    +0.000 C 
ENDBRANCH   4  21
BRANCH   6  27
ATOM     27  C   UNL     1      -2.323  13.173  20.410  0.00  0.00    +0.000 C 
ATOM     28  N   UNL     1      -3.396  13.490  20.709  0.00  0.00    +0.000 NA
ENDBRANCH   6  27
TORSDOF 4
ENDMDL
MODEL 6
REMARK VINA RESULT:      -6.2      2.743      3.479
REMARK  Name = 
REMARK  7 active torsions:
REMARK  status: ('A' for Active; 'I' for Inactive)
REMARK    1  A    between atoms: C_1  and  C_2
REMARK    2  A    between atoms: C_4  and  N_5
REMARK    3  A    between atoms: C_12  and  C_13
REMARK    4  A    between atoms: N_16  and  C_17
REMARK    5  A    between atoms: C_20  and  C_21
REMARK    6  A    between atoms: C_21  and  C_22
REMARK    7  A    between atoms: C_21  and  C_23
REMARK                            x       y       z     vdW  Elec       q    Type
REMARK                         _______ _______ _______ _____ _____    ______ ____
ROOT
ATOM      1  C   UNL     1       2.399  15.129  20.779  0.00  0.00    +0.000 C 
ATOM      2  C   UNL     1       1.193  14.533  21.453  0.00  0.00    +0.000 A 
ATOM      3  C   UNL     1       0.350  15.342  22.203  0.00  0.00    +0.000 A 
ATOM      4  C   UNL     1      -0.768  14.816  22.877  0.00  0.00    +0.000 A 
ATOM      5  C   UNL     1      -1.001  13.424  22.686  0.00  0.00    +0.000 A 
ATOM      6  C   UNL     1      -1.964  12.471  23.128  0.00  0.00    +0.000 A 
ATOM      7  C   UNL     1      -1.621  11.244  22.615  0.00  0.00    +0.000 A 
ATOM      8  N   UNL     1      -0.425  11.345  21.943  0.00  0.00    +0.000 N 
ATOM      9  C   UNL     1      -0.080  12.698  21.915  0.00  0.00    +0.000 A 
ATOM     10  N   UNL     1       1.020  13.208  21.307  0.00  0.00    +0.000 NA
ENDROOT
BRANCH   8  11
ATOM     11  C   UNL     1       0.270  10.248  21.343  0.00  0.00    +0.000 A 
ATOM     12  C   UNL     1       0.916   9.330  22.189  0.00  0.00    +0.000 A 
ATOM     13  C   UNL     1       1.620   8.238  21.672  0.00  0.00    +0.000 A 
ATOM     14  C   UNL     1       1.705   8.035  20.293  0.00  0.00    +0.000 A 
ATOM     15  C   UNL     1       1.077   8.957  19.447  0.00  0.00    +0.000 A 
ATOM     16  C   UNL     1       0.356  10.049  19.952  0.00  0.00    +0.000 A 
ATOM     17 BR   UNL     1      -0.575  11.036  18.609  0.00  0.00    +0.000 Br
BRANCH  14  18
ATOM     18  C   UNL     1       2.448   6.836  19.737  0.00  0.00    +0.000 C 
ATOM     19  C   UNL     1       1.877   5.521  20.280  0.00  0.00    +0.000 C 
ATOM     20  C   UNL     1       2.435   6.837  18.206  0.00  0.00    +0.000 C 
ENDBRANCH  14  18
ENDBRANCH   8  11
BRANCH   4  21
ATOM     21  N   UNL     1      -1.500  15.598  23.756  0.00  0.00    +0.000 N 
ATOM     22  C   UNL     1      -2.830  16.116  23.378  0.00  0.00    +0.000 C 
ATOM     23  C   UNL     1      -3.077  17.441  24.121  0.00  0.00    +0.000 C 
ATOM     24  O   UNL     1      -2.924  17.296  25.545  0.00  0.00    +0.000 OA
ATOM     25  C   UNL     1      -1.604  16.804  25.860  0.00  0.00    +0.000 C 
ATOM     26  C   UNL     1      -1.377  15.425  25.212  0.00  0.00    +0.000 C 
ENDBRANCH   4  21
BRANCH   6  27
ATOM     27  C   UNL     1      -3.152  12.634  23.903  0.00  0.00    +0.000 C 
ATOM     28  N   UNL     1      -4.093  12.838  24.546  0.00  0.00    +0.000 NA
ENDBRANCH   6  27
TORSDOF 4
ENDMDL
MODEL 7
REMARK VINA RESULT:      -6.0      1.704      1.908
REMARK  Name = 
REMARK  7 active torsions:
REMARK  status: ('A' for Active; 'I' for Inactive)
REMARK    1  A    between atoms: C_1  and  C_2
REMARK    2  A    between atoms: C_4  and  N_5
REMARK    3  A    between atoms: C_12  and  C_13
REMARK    4  A    between atoms: N_16  and  C_17
REMARK    5  A    between atoms: C_20  and  C_21
REMARK    6  A    between atoms: C_21  and  C_22
REMARK    7  A    between atoms: C_21  and  C_23
REMARK                            x       y       z     vdW  Elec       q    Type
REMARK                         _______ _______ _______ _____ _____    ______ ____
ROOT
ATOM      1  C   UNL     1       3.201  14.660  21.738  0.00  0.00    +0.000 C 
ATOM      2  C   UNL     1       1.752  14.344  21.480  0.00  0.00    +0.000 A 
ATOM      3  C   UNL     1       0.788  15.328  21.654  0.00  0.00    +0.000 A 
ATOM      4  C   UNL     1      -0.580  15.062  21.456  0.00  0.00    +0.000 A 
ATOM      5  C   UNL     1      -0.891  13.744  21.013  0.00  0.00    +0.000 A 
ATOM      6  C   UNL     1      -2.074  13.024  20.679  0.00  0.00    +0.000 A 
ATOM      7  C   UNL     1      -1.715  11.740  20.346  0.00  0.00    +0.000 A 
ATOM      8  N   UNL     1      -0.364  11.574  20.546  0.00  0.00    +0.000 N 
ATOM      9  C   UNL     1       0.161  12.826  20.879  0.00  0.00    +0.000 A 
ATOM     10  N   UNL     1       1.471  13.081  21.116  0.00  0.00    +0.000 NA
ENDROOT
BRANCH   8  11
ATOM     11  C   UNL     1       0.343  10.343  20.370  0.00  0.00    +0.000 A 
ATOM     12  C   UNL     1       0.932  10.090  19.119  0.00  0.00    +0.000 A 
ATOM     13  C   UNL     1       1.632   8.905  18.873  0.00  0.00    +0.000 A 
ATOM     14  C   UNL     1       1.760   7.935  19.869  0.00  0.00    +0.000 A 
ATOM     15  C   UNL     1       1.162   8.177  21.112  0.00  0.00    +0.000 A 
ATOM     16  C   UNL     1       0.467   9.367  21.376  0.00  0.00    +0.000 A 
ATOM     17 BR   UNL     1      -0.076   9.545  23.198  0.00  0.00    +0.000 Br
BRANCH  14  18
ATOM     18  C   UNL     1       2.543   6.663  19.607  0.00  0.00    +0.000 C 
ATOM     19  C   UNL     1       1.995   5.489  20.426  0.00  0.00    +0.000 C 
ATOM     20  C   UNL     1       2.558   6.320  18.116  0.00  0.00    +0.000 C 
ENDBRANCH  14  18
ENDBRANCH   8  11
BRANCH   4  21
ATOM     21  N   UNL     1      -1.542  16.000  21.796  0.00  0.00    +0.000 N 
ATOM     22  C   UNL     1      -2.001  16.139  23.192  0.00  0.00    +0.000 C 
ATOM     23  C   UNL     1      -3.456  16.642  23.188  0.00  0.00    +0.000 C 
ATOM     24  O   UNL     1      -3.603  17.859  22.433  0.00  0.00    +0.000 OA
ATOM     25  C   UNL     1      -3.155  17.664  21.075  0.00  0.00    +0.000 C 
ATOM     26  C   UNL     1      -1.668  17.264  21.052  0.00  0.00    +0.000 C 
ENDBRANCH   4  21
BRANCH   6  27
ATOM     27  C   UNL     1      -3.434  13.448  20.594  0.00  0.00    +0.000 C 
ATOM     28  N   UNL     1      -4.516  13.841  20.469  0.00  0.00    +0.000 NA
ENDBRANCH   6  27
TORSDOF 4
ENDMDL
MODEL 8
REMARK VINA RESULT:      -6.0      1.946      2.358
REMARK  Name = 
REMARK  7 active torsions:
REMARK  status: ('A' for Active; 'I' for Inactive)
REMARK    1  A    between atoms: C_1  and  C_2
REMARK    2  A    between atoms: C_4  and  N_5
REMARK    3  A    between atoms: C_12  and  C_13
REMARK    4  A    between atoms: N_16  and  C_17
REMARK    5  A    between atoms: C_20  and  C_21
REMARK    6  A    between atoms: C_21  and  C_22
REMARK    7  A    between atoms: C_21  and  C_23
REMARK                            x       y       z     vdW  Elec       q    Type
REMARK                         _______ _______ _______ _____ _____    ______ ____
ROOT
ATOM      1  C   UNL     1       1.520  14.592  21.859  0.00  0.00    +0.000 C 
ATOM      2  C   UNL     1       0.271  14.024  21.242  0.00  0.00    +0.000 A 
ATOM      3  C   UNL     1      -0.916  14.742  21.300  0.00  0.00    +0.000 A 
ATOM      4  C   UNL     1      -2.113  14.229  20.765  0.00  0.00    +0.000 A 
ATOM      5  C   UNL     1      -2.005  12.965  20.117  0.00  0.00    +0.000 A 
ATOM      6  C   UNL     1      -2.889  12.075  19.443  0.00  0.00    +0.000 A 
ATOM      7  C   UNL     1      -2.173  10.967  19.059  0.00  0.00    +0.000 A 
ATOM      8  N   UNL     1      -0.889  11.059  19.543  0.00  0.00    +0.000 N 
ATOM      9  C   UNL     1      -0.757  12.322  20.126  0.00  0.00    +0.000 A 
ATOM     10  N   UNL     1       0.380  12.806  20.684  0.00  0.00    +0.000 NA
ENDROOT
BRANCH   8  11
ATOM     11  C   UNL     1       0.114  10.050  19.397  0.00  0.00    +0.000 A 
ATOM     12  C   UNL     1       0.662   9.840  18.120  0.00  0.00    +0.000 A 
ATOM     13  C   UNL     1       1.642   8.866  17.902  0.00  0.00    +0.000 A 
ATOM     14  C   UNL     1       2.099   8.069  18.954  0.00  0.00    +0.000 A 
ATOM     15  C   UNL     1       1.543   8.265  20.224  0.00  0.00    +0.000 A 
ATOM     16  C   UNL     1       0.570   9.247  20.460  0.00  0.00    +0.000 A 
ATOM     17 BR   UNL     1       0.126   9.453  22.305  0.00  0.00    +0.000 Br
BRANCH  14  18
ATOM     18  C   UNL     1       3.179   7.032  18.718  0.00  0.00    +0.000 C 
ATOM     19  C   UNL     1       2.633   5.608  18.870  0.00  0.00    +0.000 C 
ATOM     20  C   UNL     1       3.834   7.215  17.347  0.00  0.00    +0.000 C 
ENDBRANCH  14  18
ENDBRANCH   8  11
BRANCH   4  21
ATOM     21  N   UNL     1      -3.320  14.876  20.978  0.00  0.00    +0.000 N 
ATOM     22  C   UNL     1      -4.249  14.414  22.028  0.00  0.00    +0.000 C 
ATOM     23  C   UNL     1      -5.688  14.759  21.605  0.00  0.00    +0.000 C 
ATOM     24  O   UNL     1      -5.841  16.159  21.307  0.00  0.00    +0.000 OA
ATOM     25  C   UNL     1      -4.923  16.554  20.266  0.00  0.00    +0.000 C 
ATOM     26  C   UNL     1      -3.469  16.317  20.715  0.00  0.00    +0.000 C 
ENDBRANCH   4  21
BRANCH   6  27
ATOM     27  C   UNL     1      -4.267  12.211  19.096  0.00  0.00    +0.000 C 
ATOM     28  N   UNL     1      -5.385  12.389  18.854  0.00  0.00    +0.000 NA
ENDBRANCH   6  27
TORSDOF 4
ENDMDL
MODEL 9
REMARK VINA RESULT:      -5.9      2.278      3.371
REMARK  Name = 
REMARK  7 active torsions:
REMARK  status: ('A' for Active; 'I' for Inactive)
REMARK    1  A    between atoms: C_1  and  C_2
REMARK    2  A    between atoms: C_4  and  N_5
REMARK    3  A    between atoms: C_12  and  C_13
REMARK    4  A    between atoms: N_16  and  C_17
REMARK    5  A    between atoms: C_20  and  C_21
REMARK    6  A    between atoms: C_21  and  C_22
REMARK    7  A    between atoms: C_21  and  C_23
REMARK                            x       y       z     vdW  Elec       q    Type
REMARK                         _______ _______ _______ _____ _____    ______ ____
ROOT
ATOM      1  C   UNL     1      -3.278  10.135  16.609  0.00  0.00    +0.000 C 
ATOM      2  C   UNL     1      -2.605  10.665  17.847  0.00  0.00    +0.000 A 
ATOM      3  C   UNL     1      -3.189  11.705  18.559  0.00  0.00    +0.000 A 
ATOM      4  C   UNL     1      -2.574  12.251  19.701  0.00  0.00    +0.000 A 
ATOM      5  C   UNL     1      -1.357  11.627  20.101  0.00  0.00    +0.000 A 
ATOM      6  C   UNL     1      -0.407  11.801  21.148  0.00  0.00    +0.000 A 
ATOM      7  C   UNL     1       0.600  10.883  20.971  0.00  0.00    +0.000 A 
ATOM      8  N   UNL     1       0.392  10.192  19.800  0.00  0.00    +0.000 N 
ATOM      9  C   UNL     1      -0.852  10.589  19.302  0.00  0.00    +0.000 A 
ATOM     10  N   UNL     1      -1.431  10.101  18.178  0.00  0.00    +0.000 NA
ENDROOT
BRANCH   8  11
ATOM     11  C   UNL     1       1.280   9.209  19.262  0.00  0.00    +0.000 A 
ATOM     12  C   UNL     1       1.919   9.491  18.042  0.00  0.00    +0.000 A 
ATOM     13  C   UNL     1       2.795   8.574  17.453  0.00  0.00    +0.000 A 
ATOM     14  C   UNL     1       3.055   7.344  18.064  0.00  0.00    +0.000 A 
ATOM     15  C   UNL     1       2.408   7.055  19.271  0.00  0.00    +0.000 A 
ATOM     16  C   UNL     1       1.536   7.971  19.880  0.00  0.00    +0.000 A 
ATOM     17 BR   UNL     1       0.946   7.427  21.612  0.00  0.00    +0.000 Br
BRANCH  14  18
ATOM     18  C   UNL     1       4.025   6.363  17.435  0.00  0.00    +0.000 C 
ATOM     19  C   UNL     1       5.051   7.079  16.549  0.00  0.00    +0.000 C 
ATOM     20  C   UNL     1       4.728   5.521  18.502  0.00  0.00    +0.000 C 
ENDBRANCH  14  18
ENDBRANCH   8  11
BRANCH   4  21
ATOM     21  N   UNL     1      -3.077  13.394  20.301  0.00  0.00    +0.000 N 
ATOM     22  C   UNL     1      -2.376  14.687  20.169  0.00  0.00    +0.000 C 
ATOM     23  C   UNL     1      -2.669  15.539  21.417  0.00  0.00    +0.000 C 
ATOM     24  O   UNL     1      -4.082  15.696  21.643  0.00  0.00    +0.000 OA
ATOM     25  C   UNL     1      -4.714  14.406  21.780  0.00  0.00    +0.000 C 
ATOM     26  C   UNL     1      -4.525  13.577  20.496  0.00  0.00    +0.000 C 
ENDBRANCH   4  21
BRANCH   6  27
ATOM     27  C   UNL     1      -0.409  12.676  22.276  0.00  0.00    +0.000 C 
ATOM     28  N   UNL     1      -0.443  13.327  23.233  0.00  0.00    +0.000 NA
ENDBRANCH   6  27
TORSDOF 4
ENDMDL
