MODEL 1
REMARK VINA RESULT:      -7.7      0.000      0.000
REMARK  Name = 
REMARK  2 active torsions:
REMARK  status: ('A' for Active; 'I' for Inactive)
REMARK    1  A    between atoms: N_5  and  C_6
REMARK    2  A    between atoms: C_15  and  C_16
REMARK                            x       y       z     vdW  Elec       q    Type
REMARK                         _______ _______ _______ _____ _____    ______ ____
ROOT
ATOM      1  O   UNL     1       7.919   5.317  18.748  0.00  0.00    +0.000 OA
ATOM      2  C   UNL     1       7.092   4.873  17.982  0.00  0.00    +0.000 C 
ATOM      3  N   UNL     1       7.208   4.632  16.652  0.00  0.00    +0.000 N 
ATOM      4  C   UNL     1       6.049   4.103  16.185  0.00  0.00    +0.000 C 
ATOM      5  N   UNL     1       5.928   3.716  14.886  0.00  0.00    +0.000 N 
ATOM      6  N   UNL     1       5.123   3.960  17.088  0.00  0.00    +0.000 NA
ATOM      7  C   UNL     1       5.696   4.444  18.248  0.00  0.00    +0.000 C 
ATOM      8  C   UNL     1       5.140   4.544  19.459  0.00  0.00    +0.000 C 
ATOM      9  H   UNL     1       8.060   4.756  16.135  0.00  0.00    +0.000 HD
ATOM     10  H   UNL     1       5.148   3.103  14.670  0.00  0.00    +0.000 HD
ENDROOT
BRANCH   8  11
ATOM     11  C   UNL     1       3.746   4.156  19.709  0.00  0.00    +0.000 A 
ATOM     12  C   UNL     1       2.691   5.067  19.521  0.00  0.00    +0.000 A 
ATOM     13 CL   UNL     1       2.960   6.664  18.907  0.00  0.00    +0.000 Cl
ATOM     14  C   UNL     1       1.370   4.703  19.810  0.00  0.00    +0.000 A 
ATOM     15  C   UNL     1       1.082   3.425  20.284  0.00  0.00    +0.000 A 
ATOM     16  C   UNL     1       2.112   2.506  20.463  0.00  0.00    +0.000 A 
ATOM     17  C   UNL     1       3.434   2.866  20.181  0.00  0.00    +0.000 A 
ATOM     18 CL   UNL     1       4.654   1.661  20.422  0.00  0.00    +0.000 Cl
ENDBRANCH   8  11
BRANCH   5  19
ATOM     19  C   UNL     1       6.563   4.285  13.764  0.00  0.00    +0.000 A 
ATOM     20  C   UNL     1       7.489   5.331  13.910  0.00  0.00    +0.000 A 
ATOM     21  C   UNL     1       8.208   5.819  12.818  0.00  0.00    +0.000 A 
ATOM     22  C   UNL     1       8.020   5.264  11.557  0.00  0.00    +0.000 A 
ATOM     23  C   UNL     1       7.084   4.244  11.380  0.00  0.00    +0.000 A 
ATOM     24  C   UNL     1       6.354   3.768  12.473  0.00  0.00    +0.000 A 
ATOM     25 CL   UNL     1       5.203   2.506  12.198  0.00  0.00    +0.000 Cl
ENDBRANCH   5  19
TORSDOF 2
ENDMDL
MODEL 2
REMARK VINA RESULT:      -7.6      0.123      1.909
REMARK  Name = 
REMARK  2 active torsions:
REMARK  status: ('A' for Active; 'I' for Inactive)
REMARK    1  A    between atoms: N_5  and  C_6
REMARK    2  A    between atoms: C_15  and  C_16
REMARK                            x       y       z     vdW  Elec       q    Type
REMARK                         _______ _______ _______ _____ _____    ______ ____
ROOT
ATOM      1  O   UNL     1       7.986   5.087  18.743  0.00  0.00    +0.000 OA
ATOM      2  C   UNL     1       7.130   4.709  17.972  0.00  0.00    +0.000 C 
ATOM      3  N   UNL     1       7.224   4.497  16.636  0.00  0.00    +0.000 N 
ATOM      4  C   UNL     1       6.035   4.044  16.165  0.00  0.00    +0.000 C 
ATOM      5  N   UNL     1       5.883   3.699  14.858  0.00  0.00    +0.000 N 
ATOM      6  N   UNL     1       5.109   3.928  17.072  0.00  0.00    +0.000 NA
ATOM      7  C   UNL     1       5.715   4.349  18.239  0.00  0.00    +0.000 C 
ATOM      8  C   UNL     1       5.174   4.446  19.457  0.00  0.00    +0.000 C 
ATOM      9  H   UNL     1       8.077   4.589  16.115  0.00  0.00    +0.000 HD
ATOM     10  H   UNL     1       5.070   3.134  14.632  0.00  0.00    +0.000 HD
ENDROOT
BRANCH   8  11
ATOM     11  C   UNL     1       3.763   4.127  19.709  0.00  0.00    +0.000 A 
ATOM     12  C   UNL     1       3.378   2.870  20.211  0.00  0.00    +0.000 A 
ATOM     13 CL   UNL     1       4.542   1.660  20.636  0.00  0.00    +0.000 Cl
ATOM     14  C   UNL     1       2.028   2.557  20.401  0.00  0.00    +0.000 A 
ATOM     15  C   UNL     1       1.041   3.495  20.102  0.00  0.00    +0.000 A 
ATOM     16  C   UNL     1       1.404   4.749  19.618  0.00  0.00    +0.000 A 
ATOM     17  C   UNL     1       2.752   5.064  19.420  0.00  0.00    +0.000 A 
ATOM     18 CL   UNL     1       3.119   6.649  18.824  0.00  0.00    +0.000 Cl
ENDBRANCH   8  11
BRANCH   5  19
ATOM     19  C   UNL     1       6.540   4.262  13.745  0.00  0.00    +0.000 A 
ATOM     20  C   UNL     1       7.480   5.293  13.906  0.00  0.00    +0.000 A 
ATOM     21  C   UNL     1       8.220   5.775  12.825  0.00  0.00    +0.000 A 
ATOM     22  C   UNL     1       8.037   5.228  11.559  0.00  0.00    +0.000 A 
ATOM     23  C   UNL     1       7.089   4.223  11.367  0.00  0.00    +0.000 A 
ATOM     24  C   UNL     1       6.338   3.753  12.449  0.00  0.00    +0.000 A 
ATOM     25 CL   UNL     1       5.171   2.510  12.157  0.00  0.00    +0.000 Cl
ENDBRANCH   5  19
TORSDOF 2
ENDMDL
MODEL 3
REMARK VINA RESULT:      -7.5      4.240      7.759
REMARK  Name = 
REMARK  2 active torsions:
REMARK  status: ('A' for Active; 'I' for Inactive)
REMARK    1  A    between atoms: N_5  and  C_6
REMARK    2  A    between atoms: C_15  and  C_16
REMARK                            x       y       z     vdW  Elec       q    Type
REMARK                         _______ _______ _______ _____ _____    ______ ____
ROOT
ATOM      1  O   UNL     1       1.978   5.234  21.223  0.00  0.00    +0.000 OA
ATOM      2  C   UNL     1       2.250   5.984  20.311  0.00  0.00    +0.000 C 
ATOM      3  N   UNL     1       1.719   7.198  20.021  0.00  0.00    +0.000 N 
ATOM      4  C   UNL     1       2.336   7.712  18.927  0.00  0.00    +0.000 C 
ATOM      5  N   UNL     1       2.024   8.953  18.465  0.00  0.00    +0.000 N 
ATOM      6  N   UNL     1       3.258   6.945  18.422  0.00  0.00    +0.000 NA
ATOM      7  C   UNL     1       3.251   5.823  19.227  0.00  0.00    +0.000 C 
ATOM      8  C   UNL     1       4.000   4.723  19.108  0.00  0.00    +0.000 C 
ATOM      9  H   UNL     1       1.035   7.659  20.594  0.00  0.00    +0.000 HD
ATOM     10  H   UNL     1       2.687   9.374  17.821  0.00  0.00    +0.000 HD
ENDROOT
BRANCH   8  11
ATOM     11  C   UNL     1       4.961   4.550  18.011  0.00  0.00    +0.000 A 
ATOM     12  C   UNL     1       6.300   4.962  18.143  0.00  0.00    +0.000 A 
ATOM     13 CL   UNL     1       6.913   5.618  19.625  0.00  0.00    +0.000 Cl
ATOM     14  C   UNL     1       7.196   4.840  17.075  0.00  0.00    +0.000 A 
ATOM     15  C   UNL     1       6.773   4.298  15.863  0.00  0.00    +0.000 A 
ATOM     16  C   UNL     1       5.456   3.872  15.719  0.00  0.00    +0.000 A 
ATOM     17  C   UNL     1       4.555   3.998  16.781  0.00  0.00    +0.000 A 
ATOM     18 CL   UNL     1       2.937   3.435  16.522  0.00  0.00    +0.000 Cl
ENDBRANCH   8  11
BRANCH   5  19
ATOM     19  C   UNL     1       0.773   9.599  18.532  0.00  0.00    +0.000 A 
ATOM     20  C   UNL     1      -0.157   9.483  17.486  0.00  0.00    +0.000 A 
ATOM     21  C   UNL     1      -1.441  10.021  17.595  0.00  0.00    +0.000 A 
ATOM     22  C   UNL     1      -1.821  10.681  18.759  0.00  0.00    +0.000 A 
ATOM     23  C   UNL     1      -0.906  10.835  19.801  0.00  0.00    +0.000 A 
ATOM     24  C   UNL     1       0.384  10.309  19.682  0.00  0.00    +0.000 A 
ATOM     25 CL   UNL     1       1.482  10.532  21.000  0.00  0.00    +0.000 Cl
ENDBRANCH   5  19
TORSDOF 2
ENDMDL
MODEL 4
REMARK VINA RESULT:      -7.4      4.131      7.772
REMARK  Name = 
REMARK  2 active torsions:
REMARK  status: ('A' for Active; 'I' for Inactive)
REMARK    1  A    between atoms: N_5  and  C_6
REMARK    2  A    between atoms: C_15  and  C_16
REMARK                            x       y       z     vdW  Elec       q    Type
REMARK                         _______ _______ _______ _____ _____    ______ ____
ROOT
ATOM      1  O   UNL     1       2.043   4.890  21.215  0.00  0.00    +0.000 OA
ATOM      2  C   UNL     1       2.339   5.711  20.374  0.00  0.00    +0.000 C 
ATOM      3  N   UNL     1       1.838   6.958  20.191  0.00  0.00    +0.000 N 
ATOM      4  C   UNL     1       2.474   7.554  19.150  0.00  0.00    +0.000 C 
ATOM      5  N   UNL     1       2.193   8.837  18.799  0.00  0.00    +0.000 N 
ATOM      6  N   UNL     1       3.383   6.814  18.584  0.00  0.00    +0.000 NA
ATOM      7  C   UNL     1       3.345   5.625  19.286  0.00  0.00    +0.000 C 
ATOM      8  C   UNL     1       4.070   4.523  19.074  0.00  0.00    +0.000 C 
ATOM      9  H   UNL     1       1.159   7.382  20.798  0.00  0.00    +0.000 HD
ATOM     10  H   UNL     1       2.871   9.298  18.199  0.00  0.00    +0.000 HD
ENDROOT
BRANCH   8  11
ATOM     11  C   UNL     1       5.036   4.427  17.971  0.00  0.00    +0.000 A 
ATOM     12  C   UNL     1       4.669   3.883  16.727  0.00  0.00    +0.000 A 
ATOM     13 CL   UNL     1       3.048   3.373  16.394  0.00  0.00    +0.000 Cl
ATOM     14  C   UNL     1       5.609   3.749  15.699  0.00  0.00    +0.000 A 
ATOM     15  C   UNL     1       6.925   4.163  15.893  0.00  0.00    +0.000 A 
ATOM     16  C   UNL     1       7.302   4.716  17.113  0.00  0.00    +0.000 A 
ATOM     17  C   UNL     1       6.368   4.847  18.146  0.00  0.00    +0.000 A 
ATOM     18 CL   UNL     1       6.917   5.554  19.629  0.00  0.00    +0.000 Cl
ENDBRANCH   8  11
BRANCH   5  19
ATOM     19  C   UNL     1       0.957   9.503  18.916  0.00  0.00    +0.000 A 
ATOM     20  C   UNL     1       0.095   9.627  17.813  0.00  0.00    +0.000 A 
ATOM     21  C   UNL     1      -1.180  10.180  17.948  0.00  0.00    +0.000 A 
ATOM     22  C   UNL     1      -1.621  10.614  19.194  0.00  0.00    +0.000 A 
ATOM     23  C   UNL     1      -0.773  10.529  20.299  0.00  0.00    +0.000 A 
ATOM     24  C   UNL     1       0.509   9.989  20.157  0.00  0.00    +0.000 A 
ATOM     25 CL   UNL     1       1.522   9.912  21.557  0.00  0.00    +0.000 Cl
ENDBRANCH   5  19
TORSDOF 2
ENDMDL
MODEL 5
REMARK VINA RESULT:      -7.3     11.385     14.012
REMARK  Name = 
REMARK  2 active torsions:
REMARK  status: ('A' for Active; 'I' for Inactive)
REMARK    1  A    between atoms: N_5  and  C_6
REMARK    2  A    between atoms: C_15  and  C_16
REMARK                            x       y       z     vdW  Elec       q    Type
REMARK                         _______ _______ _______ _____ _____    ______ ____
ROOT
ATOM      1  O   UNL     1      -7.476  11.120  21.159  0.00  0.00    +0.000 OA
ATOM      2  C   UNL     1      -6.465  11.698  20.822  0.00  0.00    +0.000 C 
ATOM      3  N   UNL     1      -5.765  11.578  19.667  0.00  0.00    +0.000 N 
ATOM      4  C   UNL     1      -4.711  12.434  19.686  0.00  0.00    +0.000 C 
ATOM      5  N   UNL     1      -3.882  12.550  18.614  0.00  0.00    +0.000 N 
ATOM      6  N   UNL     1      -4.616  13.141  20.774  0.00  0.00    +0.000 NA
ATOM      7  C   UNL     1      -5.677  12.720  21.552  0.00  0.00    +0.000 C 
ATOM      8  C   UNL     1      -6.002  13.124  22.784  0.00  0.00    +0.000 C 
ATOM      9  H   UNL     1      -6.051  11.000  18.897  0.00  0.00    +0.000 HD
ATOM     10  H   UNL     1      -3.288  13.373  18.591  0.00  0.00    +0.000 HD
ENDROOT
BRANCH   8  11
ATOM     11  C   UNL     1      -5.197  14.107  23.519  0.00  0.00    +0.000 A 
ATOM     12  C   UNL     1      -3.971  13.749  24.110  0.00  0.00    +0.000 A 
ATOM     13 CL   UNL     1      -3.302  12.161  23.937  0.00  0.00    +0.000 Cl
ATOM     14  C   UNL     1      -3.234  14.680  24.851  0.00  0.00    +0.000 A 
ATOM     15  C   UNL     1      -3.704  15.982  25.009  0.00  0.00    +0.000 A 
ATOM     16  C   UNL     1      -4.908  16.357  24.420  0.00  0.00    +0.000 A 
ATOM     17  C   UNL     1      -5.651  15.430  23.683  0.00  0.00    +0.000 A 
ATOM     18 CL   UNL     1      -7.133  15.981  22.975  0.00  0.00    +0.000 Cl
ENDBRANCH   8  11
BRANCH   5  19
ATOM     19  C   UNL     1      -3.533  11.542  17.693  0.00  0.00    +0.000 A 
ATOM     20  C   UNL     1      -4.262  11.364  16.505  0.00  0.00    +0.000 A 
ATOM     21  C   UNL     1      -3.853  10.448  15.534  0.00  0.00    +0.000 A 
ATOM     22  C   UNL     1      -2.699   9.697  15.730  0.00  0.00    +0.000 A 
ATOM     23  C   UNL     1      -1.974   9.834  16.913  0.00  0.00    +0.000 A 
ATOM     24  C   UNL     1      -2.394  10.740  17.891  0.00  0.00    +0.000 A 
ATOM     25 CL   UNL     1      -1.462  10.867  19.343  0.00  0.00    +0.000 Cl
ENDBRANCH   5  19
TORSDOF 2
ENDMDL
MODEL 6
REMARK VINA RESULT:      -7.3      4.029      7.949
REMARK  Name = 
REMARK  2 active torsions:
REMARK  status: ('A' for Active; 'I' for Inactive)
REMARK    1  A    between atoms: N_5  and  C_6
REMARK    2  A    between atoms: C_15  and  C_16
REMARK                            x       y       z     vdW  Elec       q    Type
REMARK                         _______ _______ _______ _____ _____    ______ ____
ROOT
ATOM      1  O   UNL     1       2.086   3.885  21.527  0.00  0.00    +0.000 OA
ATOM      2  C   UNL     1       2.361   4.883  20.897  0.00  0.00    +0.000 C 
ATOM      3  N   UNL     1       1.926   6.153  21.086  0.00  0.00    +0.000 N 
ATOM      4  C   UNL     1       2.508   6.972  20.173  0.00  0.00    +0.000 C 
ATOM      5  N   UNL     1       2.282   8.313  20.188  0.00  0.00    +0.000 N 
ATOM      6  N   UNL     1       3.317   6.368  19.352  0.00  0.00    +0.000 NA
ATOM      7  C   UNL     1       3.263   5.040  19.729  0.00  0.00    +0.000 C 
ATOM      8  C   UNL     1       3.896   4.003  19.174  0.00  0.00    +0.000 C 
ATOM      9  H   UNL     1       1.330   6.432  21.845  0.00  0.00    +0.000 HD
ATOM     10  H   UNL     1       2.933   8.886  19.661  0.00  0.00    +0.000 HD
ENDROOT
BRANCH   8  11
ATOM     11  C   UNL     1       4.756   4.156  17.994  0.00  0.00    +0.000 A 
ATOM     12  C   UNL     1       4.327   3.742  16.720  0.00  0.00    +0.000 A 
ATOM     13 CL   UNL     1       2.738   3.106  16.453  0.00  0.00    +0.000 Cl
ATOM     14  C   UNL     1       5.172   3.846  15.610  0.00  0.00    +0.000 A 
ATOM     15  C   UNL     1       6.455   4.372  15.751  0.00  0.00    +0.000 A 
ATOM     16  C   UNL     1       6.891   4.800  17.002  0.00  0.00    +0.000 A 
ATOM     17  C   UNL     1       6.053   4.693  18.116  0.00  0.00    +0.000 A 
ATOM     18 CL   UNL     1       6.669   5.257  19.633  0.00  0.00    +0.000 Cl
ENDBRANCH   8  11
BRANCH   5  19
ATOM     19  C   UNL     1       1.104   8.974  20.591  0.00  0.00    +0.000 A 
ATOM     20  C   UNL     1       0.731   9.027  21.945  0.00  0.00    +0.000 A 
ATOM     21  C   UNL     1      -0.368   9.778  22.365  0.00  0.00    +0.000 A 
ATOM     22  C   UNL     1      -1.112  10.500  21.438  0.00  0.00    +0.000 A 
ATOM     23  C   UNL     1      -0.780  10.441  20.084  0.00  0.00    +0.000 A 
ATOM     24  C   UNL     1       0.311   9.675  19.664  0.00  0.00    +0.000 A 
ATOM     25 CL   UNL     1       0.677   9.631  17.974  0.00  0.00    +0.000 Cl
ENDBRANCH   5  19
TORSDOF 2
ENDMDL
MODEL 7
REMARK VINA RESULT:      -7.2      4.013      7.946
REMARK  Name = 
REMARK  2 active torsions:
REMARK  status: ('A' for Active; 'I' for Inactive)
REMARK    1  A    between atoms: N_5  and  C_6
REMARK    2  A    between atoms: C_15  and  C_16
REMARK                            x       y       z     vdW  Elec       q    Type
REMARK                         _______ _______ _______ _____ _____    ______ ____
ROOT
ATOM      1  O   UNL     1       2.143   3.863  21.522  0.00  0.00    +0.000 OA
ATOM      2  C   UNL     1       2.408   4.865  20.895  0.00  0.00    +0.000 C 
ATOM      3  N   UNL     1       1.959   6.130  21.085  0.00  0.00    +0.000 N 
ATOM      4  C   UNL     1       2.533   6.957  20.174  0.00  0.00    +0.000 C 
ATOM      5  N   UNL     1       2.292   8.295  20.190  0.00  0.00    +0.000 N 
ATOM      6  N   UNL     1       3.350   6.363  19.353  0.00  0.00    +0.000 NA
ATOM      7  C   UNL     1       3.311   5.034  19.729  0.00  0.00    +0.000 C 
ATOM      8  C   UNL     1       3.957   4.005  19.173  0.00  0.00    +0.000 C 
ATOM      9  H   UNL     1       1.358   6.402  21.842  0.00  0.00    +0.000 HD
ATOM     10  H   UNL     1       2.938   8.876  19.665  0.00  0.00    +0.000 HD
ENDROOT
BRANCH   8  11
ATOM     11  C   UNL     1       4.817   4.169  17.995  0.00  0.00    +0.000 A 
ATOM     12  C   UNL     1       6.090   4.759  18.100  0.00  0.00    +0.000 A 
ATOM     13 CL   UNL     1       6.750   5.247  19.625  0.00  0.00    +0.000 Cl
ATOM     14  C   UNL     1       6.884   4.957  16.964  0.00  0.00    +0.000 A 
ATOM     15  C   UNL     1       6.422   4.565  15.709  0.00  0.00    +0.000 A 
ATOM     16  C   UNL     1       5.171   3.967  15.589  0.00  0.00    +0.000 A 
ATOM     17  C   UNL     1       4.372   3.772  16.720  0.00  0.00    +0.000 A 
ATOM     18 CL   UNL     1       2.833   3.013  16.485  0.00  0.00    +0.000 Cl
ENDBRANCH   8  11
BRANCH   5  19
ATOM     19  C   UNL     1       1.106   8.943  20.591  0.00  0.00    +0.000 A 
ATOM     20  C   UNL     1       0.720   8.973  21.942  0.00  0.00    +0.000 A 
ATOM     21  C   UNL     1      -0.388   9.711  22.363  0.00  0.00    +0.000 A 
ATOM     22  C   UNL     1      -1.128  10.441  21.439  0.00  0.00    +0.000 A 
ATOM     23  C   UNL     1      -0.783  10.404  20.088  0.00  0.00    +0.000 A 
ATOM     24  C   UNL     1       0.317   9.651  19.667  0.00  0.00    +0.000 A 
ATOM     25 CL   UNL     1       0.699   9.635  17.980  0.00  0.00    +0.000 Cl
ENDBRANCH   5  19
TORSDOF 2
ENDMDL
MODEL 8
REMARK VINA RESULT:      -6.9      5.407      8.323
REMARK  Name = 
REMARK  2 active torsions:
REMARK  status: ('A' for Active; 'I' for Inactive)
REMARK    1  A    between atoms: N_5  and  C_6
REMARK    2  A    between atoms: C_15  and  C_16
REMARK                            x       y       z     vdW  Elec       q    Type
REMARK                         _______ _______ _______ _____ _____    ______ ____
ROOT
ATOM      1  O   UNL     1       2.639   9.017  16.886  0.00  0.00    +0.000 OA
ATOM      2  C   UNL     1       2.258   8.682  17.986  0.00  0.00    +0.000 C 
ATOM      3  N   UNL     1       2.453   7.505  18.631  0.00  0.00    +0.000 N 
ATOM      4  C   UNL     1       1.881   7.563  19.861  0.00  0.00    +0.000 C 
ATOM      5  N   UNL     1       1.987   6.525  20.733  0.00  0.00    +0.000 N 
ATOM      6  N   UNL     1       1.292   8.693  20.125  0.00  0.00    +0.000 NA
ATOM      7  C   UNL     1       1.467   9.448  18.982  0.00  0.00    +0.000 C 
ATOM      8  C   UNL     1       1.020  10.683  18.737  0.00  0.00    +0.000 C 
ATOM      9  H   UNL     1       3.010   6.754  18.266  0.00  0.00    +0.000 HD
ATOM     10  H   UNL     1       1.770   6.728  21.704  0.00  0.00    +0.000 HD
ENDROOT
BRANCH   8  11
ATOM     11  C   UNL     1       0.204  11.422  19.709  0.00  0.00    +0.000 A 
ATOM     12  C   UNL     1       0.790  12.324  20.616  0.00  0.00    +0.000 A 
ATOM     13 CL   UNL     1       2.485  12.678  20.588  0.00  0.00    +0.000 Cl
ATOM     14  C   UNL     1       0.011  12.987  21.572  0.00  0.00    +0.000 A 
ATOM     15  C   UNL     1      -1.363  12.766  21.632  0.00  0.00    +0.000 A 
ATOM     16  C   UNL     1      -1.962  11.887  20.733  0.00  0.00    +0.000 A 
ATOM     17  C   UNL     1      -1.187  11.218  19.780  0.00  0.00    +0.000 A 
ATOM     18 CL   UNL     1      -2.011  10.150  18.694  0.00  0.00    +0.000 Cl
ENDBRANCH   8  11
BRANCH   5  19
ATOM     19  C   UNL     1       2.071   5.153  20.420  0.00  0.00    +0.000 A 
ATOM     20  C   UNL     1       0.964   4.304  20.585  0.00  0.00    +0.000 A 
ATOM     21  C   UNL     1       1.004   2.972  20.168  0.00  0.00    +0.000 A 
ATOM     22  C   UNL     1       2.152   2.465  19.569  0.00  0.00    +0.000 A 
ATOM     23  C   UNL     1       3.275   3.280  19.420  0.00  0.00    +0.000 A 
ATOM     24  C   UNL     1       3.238   4.608  19.854  0.00  0.00    +0.000 A 
ATOM     25 CL   UNL     1       4.659   5.574  19.651  0.00  0.00    +0.000 Cl
ENDBRANCH   5  19
TORSDOF 2
ENDMDL
MODEL 9
REMARK VINA RESULT:      -6.9      5.317      8.492
REMARK  Name = 
REMARK  2 active torsions:
REMARK  status: ('A' for Active; 'I' for Inactive)
REMARK    1  A    between atoms: N_5  and  C_6
REMARK    2  A    between atoms: C_15  and  C_16
REMARK                            x       y       z     vdW  Elec       q    Type
REMARK                         _______ _______ _______ _____ _____    ______ ____
ROOT
ATOM      1  O   UNL     1       1.887   8.024  21.658  0.00  0.00    +0.000 OA
ATOM      2  C   UNL     1       1.700   8.179  20.470  0.00  0.00    +0.000 C 
ATOM      3  N   UNL     1       0.942   9.114  19.845  0.00  0.00    +0.000 N 
ATOM      4  C   UNL     1       1.036   8.947  18.501  0.00  0.00    +0.000 C 
ATOM      5  N   UNL     1       0.412   9.799  17.644  0.00  0.00    +0.000 N 
ATOM      6  N   UNL     1       1.801   7.959  18.137  0.00  0.00    +0.000 NA
ATOM      7  C   UNL     1       2.243   7.409  19.324  0.00  0.00    +0.000 C 
ATOM      8  C   UNL     1       3.035   6.346  19.491  0.00  0.00    +0.000 C 
ATOM      9  H   UNL     1       0.462   9.855  20.323  0.00  0.00    +0.000 HD
ATOM     10  H   UNL     1       0.728   9.778  16.679  0.00  0.00    +0.000 HD
ENDROOT
BRANCH   8  11
ATOM     11  C   UNL     1       3.537   5.563  18.355  0.00  0.00    +0.000 A 
ATOM     12  C   UNL     1       2.970   4.320  18.020  0.00  0.00    +0.000 A 
ATOM     13 CL   UNL     1       1.602   3.680  18.869  0.00  0.00    +0.000 Cl
ATOM     14  C   UNL     1       3.488   3.557  16.967  0.00  0.00    +0.000 A 
ATOM     15  C   UNL     1       4.572   4.025  16.228  0.00  0.00    +0.000 A 
ATOM     16  C   UNL     1       5.136   5.260  16.537  0.00  0.00    +0.000 A 
ATOM     17  C   UNL     1       4.627   6.023  17.592  0.00  0.00    +0.000 A 
ATOM     18 CL   UNL     1       5.381   7.551  17.904  0.00  0.00    +0.000 Cl
ENDBRANCH   8  11
BRANCH   5  19
ATOM     19  C   UNL     1      -0.800  10.486  17.855  0.00  0.00    +0.000 A 
ATOM     20  C   UNL     1      -2.029   9.913  17.488  0.00  0.00    +0.000 A 
ATOM     21  C   UNL     1      -3.240  10.534  17.800  0.00  0.00    +0.000 A 
ATOM     22  C   UNL     1      -3.244  11.740  18.493  0.00  0.00    +0.000 A 
ATOM     23  C   UNL     1      -2.036  12.344  18.844  0.00  0.00    +0.000 A 
ATOM     24  C   UNL     1      -0.825  11.728  18.516  0.00  0.00    +0.000 A 
ATOM     25 CL   UNL     1       0.644  12.521  18.968  0.00  0.00    +0.000 Cl
ENDBRANCH   5  19
TORSDOF 2
ENDMDL
