MODEL 1
REMARK VINA RESULT:      -7.7      0.000      0.000
REMARK  Name = 
REMARK  5 active torsions:
REMARK  status: ('A' for Active; 'I' for Inactive)
REMARK    1  A    between atoms: C_1  and  C_2
REMARK    2  A    between atoms: C_2  and  C_4
REMARK    3  A    between atoms: C_5  and  C_6
REMARK    4  A    between atoms: C_17  and  C_18
REMARK    5  A    between atoms: C_21  and  N_22
REMARK                            x       y       z     vdW  Elec       q    Type
REMARK                         _______ _______ _______ _____ _____    ______ ____
ROOT
ATOM      1  C   UNL     1       3.552   3.599  18.647  0.00  0.00    +0.000 C 
ATOM      2  C   UNL     1       2.209   3.434  18.468  0.00  0.00    +0.000 C 
ATOM      3  C   UNL     1       1.245   2.696  19.383  0.00  0.00    +0.000 C 
ATOM      4  N   UNL     1       1.603   4.408  17.736  0.00  0.00    +0.000 NA
ATOM      5  C   UNL     1       1.928   5.496  18.315  0.00  0.00    +0.000 C 
ATOM      6  S   UNL     1       1.556   5.691  20.099  0.00  0.00    +0.000 S 
ATOM      7  C   UNL     1       1.905   7.350  19.812  0.00  0.00    +0.000 A 
ATOM      8  C   UNL     1       0.871   8.236  20.180  0.00  0.00    +0.000 A 
ATOM      9  C   UNL     1       0.794   9.435  19.531  0.00  0.00    +0.000 A 
ATOM     10  C   UNL     1       1.781   9.737  18.588  0.00  0.00    +0.000 A 
ATOM     11  C   UNL     1       2.794   8.778  18.168  0.00  0.00    +0.000 A 
ATOM     12  C   UNL     1       2.863   7.488  18.739  0.00  0.00    +0.000 A 
ATOM     13  N   UNL     1       3.098   6.211  17.949  0.00  0.00    +0.000 N 
ATOM     14  C   UNL     1       4.278   4.979  18.127  0.00  0.00    +0.000 C 
ENDROOT
BRANCH  14  15
ATOM     15  C   UNL     1       5.151   4.431  16.856  0.00  0.00    +0.000 A 
ATOM     16  C   UNL     1       4.568   4.368  15.546  0.00  0.00    +0.000 A 
ATOM     17  C   UNL     1       5.324   4.455  14.349  0.00  0.00    +0.000 A 
ATOM     18  C   UNL     1       6.698   4.615  14.379  0.00  0.00    +0.000 A 
ATOM     19  C   UNL     1       7.323   4.600  15.640  0.00  0.00    +0.000 A 
ATOM     20  C   UNL     1       6.563   4.498  16.853  0.00  0.00    +0.000 A 
BRANCH  18  21
ATOM     21  N   UNL     1       7.482   4.900  13.153  0.00  0.00    +0.000 N 
ATOM     22  O   UNL     1       7.188   4.273  12.121  0.00  0.00    +0.000 OA
ATOM     23  O   UNL     1       8.382   5.752  13.216  0.00  0.00    +0.000 OA
ENDBRANCH  18  21
ENDBRANCH  14  15
BRANCH   1  25
ATOM     24  C   UNL     1       4.223   1.094  18.777  0.00  0.00    +0.000 C 
ATOM     25  C   UNL     1       4.357   2.513  19.291  0.00  0.00    +0.000 C 
ATOM     26  O   UNL     1       5.137   2.786  20.199  0.00  0.00    +0.000 OA
ENDBRANCH   1  25
TORSDOF 3
ENDMDL
MODEL 2
REMARK VINA RESULT:      -6.7      9.181     12.486
REMARK  Name = 
REMARK  5 active torsions:
REMARK  status: ('A' for Active; 'I' for Inactive)
REMARK    1  A    between atoms: C_1  and  C_2
REMARK    2  A    between atoms: C_2  and  C_4
REMARK    3  A    between atoms: C_5  and  C_6
REMARK    4  A    between atoms: C_17  and  C_18
REMARK    5  A    between atoms: C_21  and  N_22
REMARK                            x       y       z     vdW  Elec       q    Type
REMARK                         _______ _______ _______ _____ _____    ______ ____
ROOT
ATOM      1  C   UNL     1      -1.278  12.344  21.277  0.00  0.00    +0.000 C 
ATOM      2  C   UNL     1      -0.280  12.695  20.416  0.00  0.00    +0.000 C 
ATOM      3  C   UNL     1       1.136  12.143  20.378  0.00  0.00    +0.000 C 
ATOM      4  N   UNL     1      -0.700  13.156  19.206  0.00  0.00    +0.000 NA
ATOM      5  C   UNL     1      -1.480  12.247  18.767  0.00  0.00    +0.000 C 
ATOM      6  S   UNL     1      -0.847  10.533  18.631  0.00  0.00    +0.000 S 
ATOM      7  C   UNL     1      -2.260  10.272  17.688  0.00  0.00    +0.000 A 
ATOM      8  C   UNL     1      -2.015   9.757  16.398  0.00  0.00    +0.000 A 
ATOM      9  C   UNL     1      -2.931  10.020  15.419  0.00  0.00    +0.000 A 
ATOM     10  C   UNL     1      -4.084  10.727  15.770  0.00  0.00    +0.000 A 
ATOM     11  C   UNL     1      -4.282  11.315  17.089  0.00  0.00    +0.000 A 
ATOM     12  C   UNL     1      -3.323  11.154  18.113  0.00  0.00    +0.000 A 
ATOM     13  N   UNL     1      -2.871  12.265  19.047  0.00  0.00    +0.000 N 
ATOM     14  C   UNL     1      -2.839  12.352  20.759  0.00  0.00    +0.000 C 
ENDROOT
BRANCH  14  15
ATOM     15  C   UNL     1      -3.446  13.637  21.570  0.00  0.00    +0.000 A 
ATOM     16  C   UNL     1      -4.277  13.443  22.724  0.00  0.00    +0.000 A 
ATOM     17  C   UNL     1      -4.387  14.387  23.776  0.00  0.00    +0.000 A 
ATOM     18  C   UNL     1      -3.676  15.574  23.750  0.00  0.00    +0.000 A 
ATOM     19  C   UNL     1      -2.912  15.845  22.600  0.00  0.00    +0.000 A 
ATOM     20  C   UNL     1      -2.810  14.898  21.527  0.00  0.00    +0.000 A 
BRANCH  18  21
ATOM     21  N   UNL     1      -3.626  16.484  24.921  0.00  0.00    +0.000 N 
ATOM     22  O   UNL     1      -2.527  16.653  25.475  0.00  0.00    +0.000 OA
ATOM     23  O   UNL     1      -4.679  17.033  25.282  0.00  0.00    +0.000 OA
ENDBRANCH  18  21
ENDBRANCH  14  15
BRANCH   1  25
ATOM     24  C   UNL     1      -0.953  10.522  23.099  0.00  0.00    +0.000 C 
ATOM     25  C   UNL     1      -0.948  11.981  22.692  0.00  0.00    +0.000 C 
ATOM     26  O   UNL     1      -0.645  12.860  23.493  0.00  0.00    +0.000 OA
ENDBRANCH   1  25
TORSDOF 3
ENDMDL
MODEL 3
REMARK VINA RESULT:      -6.6      3.666      7.171
REMARK  Name = 
REMARK  5 active torsions:
REMARK  status: ('A' for Active; 'I' for Inactive)
REMARK    1  A    between atoms: C_1  and  C_2
REMARK    2  A    between atoms: C_2  and  C_4
REMARK    3  A    between atoms: C_5  and  C_6
REMARK    4  A    between atoms: C_17  and  C_18
REMARK    5  A    between atoms: C_21  and  N_22
REMARK                            x       y       z     vdW  Elec       q    Type
REMARK                         _______ _______ _______ _____ _____    ______ ____
ROOT
ATOM      1  C   UNL     1       5.903   5.363  17.645  0.00  0.00    +0.000 C 
ATOM      2  C   UNL     1       5.754   6.584  17.053  0.00  0.00    +0.000 C 
ATOM      3  C   UNL     1       6.651   7.800  17.217  0.00  0.00    +0.000 C 
ATOM      4  N   UNL     1       5.098   6.567  15.860  0.00  0.00    +0.000 NA
ATOM      5  C   UNL     1       5.731   5.713  15.156  0.00  0.00    +0.000 C 
ATOM      6  S   UNL     1       7.533   5.935  14.909  0.00  0.00    +0.000 S 
ATOM      7  C   UNL     1       7.334   4.749  13.681  0.00  0.00    +0.000 A 
ATOM      8  C   UNL     1       7.783   5.148  12.405  0.00  0.00    +0.000 A 
ATOM      9  C   UNL     1       7.207   4.565  11.312  0.00  0.00    +0.000 A 
ATOM     10  C   UNL     1       6.256   3.563  11.526  0.00  0.00    +0.000 A 
ATOM     11  C   UNL     1       5.751   3.220  12.849  0.00  0.00    +0.000 A 
ATOM     12  C   UNL     1       6.243   3.859  14.008  0.00  0.00    +0.000 A 
ATOM     13  N   UNL     1       5.373   4.340  15.158  0.00  0.00    +0.000 N 
ATOM     14  C   UNL     1       5.444   4.006  16.838  0.00  0.00    +0.000 C 
ENDROOT
BRANCH  14  15
ATOM     15  C   UNL     1       4.118   3.555  17.685  0.00  0.00    +0.000 A 
ATOM     16  C   UNL     1       4.137   2.364  18.485  0.00  0.00    +0.000 A 
ATOM     17  C   UNL     1       3.323   2.179  19.631  0.00  0.00    +0.000 A 
ATOM     18  C   UNL     1       2.448   3.165  20.056  0.00  0.00    +0.000 A 
ATOM     19  C   UNL     1       2.336   4.317  19.256  0.00  0.00    +0.000 A 
ATOM     20  C   UNL     1       3.148   4.501  18.087  0.00  0.00    +0.000 A 
BRANCH  18  21
ATOM     21  N   UNL     1       1.733   3.073  21.352  0.00  0.00    +0.000 N 
ATOM     22  O   UNL     1       0.520   2.808  21.325  0.00  0.00    +0.000 OA
ATOM     23  O   UNL     1       2.382   3.258  22.394  0.00  0.00    +0.000 OA
ENDBRANCH  18  21
ENDBRANCH  14  15
BRANCH   1  25
ATOM     24  C   UNL     1       7.953   5.405  19.239  0.00  0.00    +0.000 C 
ATOM     25  C   UNL     1       6.458   5.272  19.033  0.00  0.00    +0.000 C 
ATOM     26  O   UNL     1       5.699   5.126  19.986  0.00  0.00    +0.000 OA
ENDBRANCH   1  25
TORSDOF 3
ENDMDL
MODEL 4
REMARK VINA RESULT:      -6.5      4.796      8.165
REMARK  Name = 
REMARK  5 active torsions:
REMARK  status: ('A' for Active; 'I' for Inactive)
REMARK    1  A    between atoms: C_1  and  C_2
REMARK    2  A    between atoms: C_2  and  C_4
REMARK    3  A    between atoms: C_5  and  C_6
REMARK    4  A    between atoms: C_17  and  C_18
REMARK    5  A    between atoms: C_21  and  N_22
REMARK                            x       y       z     vdW  Elec       q    Type
REMARK                         _______ _______ _______ _____ _____    ______ ____
ROOT
ATOM      1  C   UNL     1       0.590  12.118  20.291  0.00  0.00    +0.000 C 
ATOM      2  C   UNL     1      -0.142  12.148  21.443  0.00  0.00    +0.000 C 
ATOM      3  C   UNL     1      -0.371  13.343  22.354  0.00  0.00    +0.000 C 
ATOM      4  N   UNL     1      -1.146  11.232  21.509  0.00  0.00    +0.000 NA
ATOM      5  C   UNL     1      -1.827  11.421  20.447  0.00  0.00    +0.000 C 
ATOM      6  S   UNL     1      -2.489  13.096  20.111  0.00  0.00    +0.000 S 
ATOM      7  C   UNL     1      -3.442  12.291  18.927  0.00  0.00    +0.000 A 
ATOM      8  C   UNL     1      -4.831  12.492  19.060  0.00  0.00    +0.000 A 
ATOM      9  C   UNL     1      -5.667  11.528  18.572  0.00  0.00    +0.000 A 
ATOM     10  C   UNL     1      -5.097  10.433  17.916  0.00  0.00    +0.000 A 
ATOM     11  C   UNL     1      -3.659  10.207  17.857  0.00  0.00    +0.000 A 
ATOM     12  C   UNL     1      -2.750  11.125  18.427  0.00  0.00    +0.000 A 
ATOM     13  N   UNL     1      -1.530  10.729  19.244  0.00  0.00    +0.000 N 
ATOM     14  C   UNL     1       0.127  11.132  19.059  0.00  0.00    +0.000 C 
ENDROOT
BRANCH  14  15
ATOM     15  C   UNL     1       1.300   9.992  19.093  0.00  0.00    +0.000 A 
ATOM     16  C   UNL     1       1.350   9.030  20.158  0.00  0.00    +0.000 A 
ATOM     17  C   UNL     1       1.917   7.738  20.018  0.00  0.00    +0.000 A 
ATOM     18  C   UNL     1       2.461   7.321  18.815  0.00  0.00    +0.000 A 
ATOM     19  C   UNL     1       2.508   8.258  17.767  0.00  0.00    +0.000 A 
ATOM     20  C   UNL     1       1.949   9.572  17.910  0.00  0.00    +0.000 A 
BRANCH  18  21
ATOM     21  N   UNL     1       2.881   5.916  18.591  0.00  0.00    +0.000 N 
ATOM     22  O   UNL     1       2.150   5.199  17.889  0.00  0.00    +0.000 OA
ATOM     23  O   UNL     1       3.942   5.533  19.108  0.00  0.00    +0.000 OA
ENDBRANCH  18  21
ENDBRANCH  14  15
BRANCH   1  25
ATOM     24  C   UNL     1       2.055  13.743  18.892  0.00  0.00    +0.000 C 
ATOM     25  C   UNL     1       1.821  12.961  20.169  0.00  0.00    +0.000 C 
ATOM     26  O   UNL     1       2.605  13.038  21.110  0.00  0.00    +0.000 OA
ENDBRANCH   1  25
TORSDOF 3
ENDMDL
MODEL 5
REMARK VINA RESULT:      -6.5      8.298     10.152
REMARK  Name = 
REMARK  5 active torsions:
REMARK  status: ('A' for Active; 'I' for Inactive)
REMARK    1  A    between atoms: C_1  and  C_2
REMARK    2  A    between atoms: C_2  and  C_4
REMARK    3  A    between atoms: C_5  and  C_6
REMARK    4  A    between atoms: C_17  and  C_18
REMARK    5  A    between atoms: C_21  and  N_22
REMARK                            x       y       z     vdW  Elec       q    Type
REMARK                         _______ _______ _______ _____ _____    ______ ____
ROOT
ATOM      1  C   UNL     1      -0.462  12.720  21.611  0.00  0.00    +0.000 C 
ATOM      2  C   UNL     1      -0.720  14.057  21.714  0.00  0.00    +0.000 C 
ATOM      3  C   UNL     1      -0.771  14.886  22.987  0.00  0.00    +0.000 C 
ATOM      4  N   UNL     1      -0.392  14.791  20.616  0.00  0.00    +0.000 NA
ATOM      5  C   UNL     1       0.831  14.506  20.391  0.00  0.00    +0.000 C 
ATOM      6  S   UNL     1       2.055  14.749  21.732  0.00  0.00    +0.000 S 
ATOM      7  C   UNL     1       3.211  14.553  20.475  0.00  0.00    +0.000 A 
ATOM      8  C   UNL     1       4.126  15.618  20.350  0.00  0.00    +0.000 A 
ATOM      9  C   UNL     1       4.691  15.838  19.126  0.00  0.00    +0.000 A 
ATOM     10  C   UNL     1       4.377  14.954  18.089  0.00  0.00    +0.000 A 
ATOM     11  C   UNL     1       3.372  13.907  18.218  0.00  0.00    +0.000 A 
ATOM     12  C   UNL     1       2.688  13.696  19.435  0.00  0.00    +0.000 A 
ATOM     13  N   UNL     1       1.196  13.427  19.545  0.00  0.00    +0.000 N 
ATOM     14  C   UNL     1       0.336  12.145  20.293  0.00  0.00    +0.000 C 
ENDROOT
BRANCH  14  15
ATOM     15  C   UNL     1      -0.855  11.336  19.517  0.00  0.00    +0.000 A 
ATOM     16  C   UNL     1      -2.129  11.958  19.289  0.00  0.00    +0.000 A 
ATOM     17  C   UNL     1      -2.984  11.617  18.211  0.00  0.00    +0.000 A 
ATOM     18  C   UNL     1      -2.626  10.645  17.292  0.00  0.00    +0.000 A 
ATOM     19  C   UNL     1      -1.424   9.951  17.521  0.00  0.00    +0.000 A 
ATOM     20  C   UNL     1      -0.563  10.284  18.620  0.00  0.00    +0.000 A 
BRANCH  18  21
ATOM     21  N   UNL     1      -3.410  10.408  16.056  0.00  0.00    +0.000 N 
ATOM     22  O   UNL     1      -2.940   9.626  15.214  0.00  0.00    +0.000 OA
ATOM     23  O   UNL     1      -4.496  10.995  15.929  0.00  0.00    +0.000 OA
ENDBRANCH  18  21
ENDBRANCH  14  15
BRANCH   1  25
ATOM     24  C   UNL     1      -2.367  11.869  23.157  0.00  0.00    +0.000 C 
ATOM     25  C   UNL     1      -0.930  11.787  22.684  0.00  0.00    +0.000 C 
ATOM     26  O   UNL     1      -0.161  10.947  23.142  0.00  0.00    +0.000 OA
ENDBRANCH   1  25
TORSDOF 3
ENDMDL
MODEL 6
REMARK VINA RESULT:      -6.4     10.198     12.682
REMARK  Name = 
REMARK  5 active torsions:
REMARK  status: ('A' for Active; 'I' for Inactive)
REMARK    1  A    between atoms: C_1  and  C_2
REMARK    2  A    between atoms: C_2  and  C_4
REMARK    3  A    between atoms: C_5  and  C_6
REMARK    4  A    between atoms: C_17  and  C_18
REMARK    5  A    between atoms: C_21  and  N_22
REMARK                            x       y       z     vdW  Elec       q    Type
REMARK                         _______ _______ _______ _____ _____    ______ ____
ROOT
ATOM      1  C   UNL     1       8.414  14.682  22.561  0.00  0.00    +0.000 C 
ATOM      2  C   UNL     1       7.715  15.139  21.482  0.00  0.00    +0.000 C 
ATOM      3  C   UNL     1       7.526  16.585  21.056  0.00  0.00    +0.000 C 
ATOM      4  N   UNL     1       7.629  14.265  20.442  0.00  0.00    +0.000 NA
ATOM      5  C   UNL     1       8.837  13.943  20.190  0.00  0.00    +0.000 C 
ATOM      6  S   UNL     1      10.047  15.271  19.831  0.00  0.00    +0.000 S 
ATOM      7  C   UNL     1      11.038  13.980  19.281  0.00  0.00    +0.000 A 
ATOM      8  C   UNL     1      11.495  14.118  17.954  0.00  0.00    +0.000 A 
ATOM      9  C   UNL     1      11.796  12.981  17.259  0.00  0.00    +0.000 A 
ATOM     10  C   UNL     1      11.693  11.756  17.924  0.00  0.00    +0.000 A 
ATOM     11  C   UNL     1      11.147  11.629  19.269  0.00  0.00    +0.000 A 
ATOM     12  C   UNL     1      10.732  12.764  20.000  0.00  0.00    +0.000 A 
ATOM     13  N   UNL     1       9.456  12.835  20.823  0.00  0.00    +0.000 N 
ATOM     14  C   UNL     1       9.201  13.240  22.470  0.00  0.00    +0.000 C 
ENDROOT
BRANCH  14  15
ATOM     15  C   UNL     1       8.289  12.307  23.457  0.00  0.00    +0.000 A 
ATOM     16  C   UNL     1       8.524  12.299  24.873  0.00  0.00    +0.000 A 
ATOM     17  C   UNL     1       7.519  12.008  25.831  0.00  0.00    +0.000 A 
ATOM     18  C   UNL     1       6.223  11.715  25.443  0.00  0.00    +0.000 A 
ATOM     19  C   UNL     1       5.965  11.630  24.063  0.00  0.00    +0.000 A 
ATOM     20  C   UNL     1       6.983  11.909  23.090  0.00  0.00    +0.000 A 
BRANCH  18  21
ATOM     21  N   UNL     1       5.119  11.597  26.426  0.00  0.00    +0.000 N 
ATOM     22  O   UNL     1       5.011  12.490  27.283  0.00  0.00    +0.000 OA
ATOM     23  O   UNL     1       4.357  10.621  26.338  0.00  0.00    +0.000 OA
ENDBRANCH  18  21
ENDBRANCH  14  15
BRANCH   1  25
ATOM     24  C   UNL     1       9.745  16.094  24.287  0.00  0.00    +0.000 C 
ATOM     25  C   UNL     1       8.438  15.482  23.826  0.00  0.00    +0.000 C 
ATOM     26  O   UNL     1       7.399  15.663  24.455  0.00  0.00    +0.000 OA
ENDBRANCH   1  25
TORSDOF 3
ENDMDL
MODEL 7
REMARK VINA RESULT:      -6.4     10.221     12.777
REMARK  Name = 
REMARK  5 active torsions:
REMARK  status: ('A' for Active; 'I' for Inactive)
REMARK    1  A    between atoms: C_1  and  C_2
REMARK    2  A    between atoms: C_2  and  C_4
REMARK    3  A    between atoms: C_5  and  C_6
REMARK    4  A    between atoms: C_17  and  C_18
REMARK    5  A    between atoms: C_21  and  N_22
REMARK                            x       y       z     vdW  Elec       q    Type
REMARK                         _______ _______ _______ _____ _____    ______ ____
ROOT
ATOM      1  C   UNL     1       7.296  16.582  19.470  0.00  0.00    +0.000 C 
ATOM      2  C   UNL     1       8.165  16.925  18.475  0.00  0.00    +0.000 C 
ATOM      3  C   UNL     1       9.176  18.059  18.490  0.00  0.00    +0.000 C 
ATOM      4  N   UNL     1       8.529  15.902  17.653  0.00  0.00    +0.000 NA
ATOM      5  C   UNL     1       8.958  14.994  18.438  0.00  0.00    +0.000 C 
ATOM      6  S   UNL     1      10.306  15.404  19.608  0.00  0.00    +0.000 S 
ATOM      7  C   UNL     1      10.414  13.701  19.810  0.00  0.00    +0.000 A 
ATOM      8  C   UNL     1      11.694  13.163  19.560  0.00  0.00    +0.000 A 
ATOM      9  C   UNL     1      11.773  11.859  19.159  0.00  0.00    +0.000 A 
ATOM     10  C   UNL     1      10.589  11.121  19.083  0.00  0.00    +0.000 A 
ATOM     11  C   UNL     1       9.272  11.716  19.270  0.00  0.00    +0.000 A 
ATOM     12  C   UNL     1       9.126  13.082  19.594  0.00  0.00    +0.000 A 
ATOM     13  N   UNL     1       8.091  14.005  18.972  0.00  0.00    +0.000 N 
ATOM     14  C   UNL     1       6.895  15.003  19.691  0.00  0.00    +0.000 C 
ENDROOT
BRANCH  14  15
ATOM     15  C   UNL     1       5.339  14.986  19.185  0.00  0.00    +0.000 A 
ATOM     16  C   UNL     1       4.266  15.131  20.126  0.00  0.00    +0.000 A 
ATOM     17  C   UNL     1       2.999  15.671  19.790  0.00  0.00    +0.000 A 
ATOM     18  C   UNL     1       2.723  16.105  18.505  0.00  0.00    +0.000 A 
ATOM     19  C   UNL     1       3.716  15.906  17.529  0.00  0.00    +0.000 A 
ATOM     20  C   UNL     1       4.995  15.347  17.862  0.00  0.00    +0.000 A 
BRANCH  18  21
ATOM     21  N   UNL     1       1.480  16.845  18.177  0.00  0.00    +0.000 N 
ATOM     22  O   UNL     1       0.403  16.371  18.575  0.00  0.00    +0.000 OA
ATOM     23  O   UNL     1       1.579  17.901  17.532  0.00  0.00    +0.000 OA
ENDBRANCH  18  21
ENDBRANCH  14  15
BRANCH   1  25
ATOM     24  C   UNL     1       7.195  17.813  21.754  0.00  0.00    +0.000 C 
ATOM     25  C   UNL     1       6.695  17.647  20.333  0.00  0.00    +0.000 C 
ATOM     26  O   UNL     1       5.835  18.392  19.875  0.00  0.00    +0.000 OA
ENDBRANCH   1  25
TORSDOF 3
ENDMDL
MODEL 8
REMARK VINA RESULT:      -6.2      8.209     12.673
REMARK  Name = 
REMARK  5 active torsions:
REMARK  status: ('A' for Active; 'I' for Inactive)
REMARK    1  A    between atoms: C_1  and  C_2
REMARK    2  A    between atoms: C_2  and  C_4
REMARK    3  A    between atoms: C_5  and  C_6
REMARK    4  A    between atoms: C_17  and  C_18
REMARK    5  A    between atoms: C_21  and  N_22
REMARK                            x       y       z     vdW  Elec       q    Type
REMARK                         _______ _______ _______ _____ _____    ______ ____
ROOT
ATOM      1  C   UNL     1      -1.274  13.917  21.091  0.00  0.00    +0.000 C 
ATOM      2  C   UNL     1      -1.263  13.582  19.768  0.00  0.00    +0.000 C 
ATOM      3  C   UNL     1      -0.391  14.181  18.676  0.00  0.00    +0.000 C 
ATOM      4  N   UNL     1      -1.651  12.306  19.495  0.00  0.00    +0.000 NA
ATOM      5  C   UNL     1      -0.904  11.578  20.229  0.00  0.00    +0.000 C 
ATOM      6  S   UNL     1       0.914  11.755  20.087  0.00  0.00    +0.000 S 
ATOM      7  C   UNL     1       0.952  10.287  20.981  0.00  0.00    +0.000 A 
ATOM      8  C   UNL     1       1.672   9.245  20.362  0.00  0.00    +0.000 A 
ATOM      9  C   UNL     1       1.328   7.959  20.668  0.00  0.00    +0.000 A 
ATOM     10  C   UNL     1       0.328   7.755  21.623  0.00  0.00    +0.000 A 
ATOM     11  C   UNL     1      -0.455   8.844  22.193  0.00  0.00    +0.000 A 
ATOM     12  C   UNL     1      -0.205  10.188  21.841  0.00  0.00    +0.000 A 
ATOM     13  N   UNL     1      -1.288  11.213  21.545  0.00  0.00    +0.000 N 
ATOM     14  C   UNL     1      -1.585  12.762  22.219  0.00  0.00    +0.000 C 
ENDROOT
BRANCH  14  15
ATOM     15  C   UNL     1      -3.071  13.205  22.740  0.00  0.00    +0.000 A 
ATOM     16  C   UNL     1      -4.187  13.210  21.838  0.00  0.00    +0.000 A 
ATOM     17  C   UNL     1      -5.530  13.028  22.255  0.00  0.00    +0.000 A 
ATOM     18  C   UNL     1      -5.846  12.825  23.588  0.00  0.00    +0.000 A 
ATOM     19  C   UNL     1      -4.793  12.894  24.518  0.00  0.00    +0.000 A 
ATOM     20  C   UNL     1      -3.435  13.092  24.102  0.00  0.00    +0.000 A 
BRANCH  18  21
ATOM     21  N   UNL     1      -7.212  12.443  24.020  0.00  0.00    +0.000 N 
ATOM     22  O   UNL     1      -7.577  11.273  23.818  0.00  0.00    +0.000 OA
ATOM     23  O   UNL     1      -7.916  13.306  24.567  0.00  0.00    +0.000 OA
ENDBRANCH  18  21
ENDBRANCH  14  15
BRANCH   1  25
ATOM     24  C   UNL     1       0.137  15.647  22.416  0.00  0.00    +0.000 C 
ATOM     25  C   UNL     1      -1.029  15.335  21.502  0.00  0.00    +0.000 C 
ATOM     26  O   UNL     1      -1.750  16.230  21.069  0.00  0.00    +0.000 OA
ENDBRANCH   1  25
TORSDOF 3
ENDMDL
MODEL 9
REMARK VINA RESULT:      -6.2      8.365     12.968
REMARK  Name = 
REMARK  5 active torsions:
REMARK  status: ('A' for Active; 'I' for Inactive)
REMARK    1  A    between atoms: C_1  and  C_2
REMARK    2  A    between atoms: C_2  and  C_4
REMARK    3  A    between atoms: C_5  and  C_6
REMARK    4  A    between atoms: C_17  and  C_18
REMARK    5  A    between atoms: C_21  and  N_22
REMARK                            x       y       z     vdW  Elec       q    Type
REMARK                         _______ _______ _______ _____ _____    ______ ____
ROOT
ATOM      1  C   UNL     1      -1.475  14.190  21.844  0.00  0.00    +0.000 C 
ATOM      2  C   UNL     1      -1.392  14.840  20.647  0.00  0.00    +0.000 C 
ATOM      3  C   UNL     1      -0.604  16.103  20.341  0.00  0.00    +0.000 C 
ATOM      4  N   UNL     1      -1.576  14.053  19.551  0.00  0.00    +0.000 NA
ATOM      5  C   UNL     1      -0.739  13.102  19.694  0.00  0.00    +0.000 C 
ATOM      6  S   UNL     1       1.033  13.511  19.916  0.00  0.00    +0.000 S 
ATOM      7  C   UNL     1       1.279  11.839  19.601  0.00  0.00    +0.000 A 
ATOM      8  C   UNL     1       2.160  11.569  18.534  0.00  0.00    +0.000 A 
ATOM      9  C   UNL     1       2.011  10.388  17.864  0.00  0.00    +0.000 A 
ATOM     10  C   UNL     1       1.038   9.493  18.317  0.00  0.00    +0.000 A 
ATOM     11  C   UNL     1       0.089   9.823  19.372  0.00  0.00    +0.000 A 
ATOM     12  C   UNL     1       0.137  11.068  20.036  0.00  0.00    +0.000 A 
ATOM     13  N   UNL     1      -1.084  11.907  20.377  0.00  0.00    +0.000 N 
ATOM     14  C   UNL     1      -1.625  12.553  21.871  0.00  0.00    +0.000 C 
ENDROOT
BRANCH  14  15
ATOM     15  C   UNL     1      -3.170  12.374  22.379  0.00  0.00    +0.000 A 
ATOM     16  C   UNL     1      -3.476  12.348  23.782  0.00  0.00    +0.000 A 
ATOM     17  C   UNL     1      -4.726  12.748  24.316  0.00  0.00    +0.000 A 
ATOM     18  C   UNL     1      -5.744  13.203  23.495  0.00  0.00    +0.000 A 
ATOM     19  C   UNL     1      -5.519  13.168  22.107  0.00  0.00    +0.000 A 
ATOM     20  C   UNL     1      -4.259  12.750  21.561  0.00  0.00    +0.000 A 
BRANCH  18  21
ATOM     21  N   UNL     1      -6.984  13.804  24.044  0.00  0.00    +0.000 N 
ATOM     22  O   UNL     1      -7.026  15.040  24.157  0.00  0.00    +0.000 OA
ATOM     23  O   UNL     1      -7.916  13.045  24.354  0.00  0.00    +0.000 OA
ENDBRANCH  18  21
ENDBRANCH  14  15
BRANCH   1  25
ATOM     24  C   UNL     1      -2.606  15.911  23.425  0.00  0.00    +0.000 C 
ATOM     25  C   UNL     1      -1.456  14.973  23.119  0.00  0.00    +0.000 C 
ATOM     26  O   UNL     1      -0.534  14.823  23.915  0.00  0.00    +0.000 OA
ENDBRANCH   1  25
TORSDOF 3
ENDMDL
