MODEL 1
REMARK VINA RESULT:      -7.8      0.000      0.000
REMARK  Name = 
REMARK  9 active torsions:
REMARK  status: ('A' for Active; 'I' for Inactive)
REMARK    1  A    between atoms: C_1  and  N_2
REMARK    2  A    between atoms: N_2  and  C_3
REMARK    3  A    between atoms: N_2  and  C_21
REMARK    4  A    between atoms: C_3  and  C_4
REMARK    5  A    between atoms: C_4  and  C_5
REMARK    6  A    between atoms: C_5  and  N_6
REMARK    7  A    between atoms: C_7  and  C_9
REMARK    8  A    between atoms: C_14  and  O_15
REMARK    9  A    between atoms: C_21  and  C_22
REMARK                            x       y       z     vdW  Elec       q    Type
REMARK                         _______ _______ _______ _____ _____    ______ ____
ROOT
ATOM      1  N   UNL     1       4.421   5.682  19.266  0.00  0.00    +0.000 N 
ATOM      2  C   UNL     1       3.046   5.646  19.322  0.00  0.00    +0.000 C 
ATOM      3  O   UNL     1       2.390   4.612  19.360  0.00  0.00    +0.000 OA
ATOM      4  H   UNL     1       4.882   6.581  19.329  0.00  0.00    +0.000 HD
ENDROOT
BRANCH   2   5
ATOM      5  C   UNL     1       2.412   7.003  19.367  0.00  0.00    +0.000 A 
ATOM      6  C   UNL     1       2.507   7.770  18.269  0.00  0.00    +0.000 A 
ATOM      7  C   UNL     1       1.862   9.088  18.273  0.00  0.00    +0.000 A 
ATOM      8  O   UNL     1       1.930   9.840  17.309  0.00  0.00    +0.000 OA
ATOM      9  C   UNL     1       1.115   9.464  19.479  0.00  0.00    +0.000 A 
ATOM     10  C   UNL     1       0.415  10.672  19.562  0.00  0.00    +0.000 A 
ATOM     11  C   UNL     1      -0.284  10.994  20.722  0.00  0.00    +0.000 A 
ATOM     12  C   UNL     1      -0.280  10.112  21.805  0.00  0.00    +0.000 A 
ATOM     13  C   UNL     1       0.416   8.905  21.724  0.00  0.00    +0.000 A 
ATOM     14  C   UNL     1       1.108   8.580  20.556  0.00  0.00    +0.000 A 
ATOM     15  O   UNL     1       1.754   7.369  20.533  0.00  0.00    +0.000 OA
BRANCH  10  16
ATOM     16  O   UNL     1       0.369  11.580  18.540  0.00  0.00    +0.000 OA
ATOM     17  H   UNL     1       0.637  11.124  17.710  0.00  0.00    +0.000 HD
ENDBRANCH  10  16
ENDBRANCH   2   5
BRANCH   1  18
ATOM     18  C   UNL     1       5.222   4.478  19.370  0.00  0.00    +0.000 C 
BRANCH  18  19
ATOM     19  C   UNL     1       5.775   4.072  18.007  0.00  0.00    +0.000 C 
BRANCH  19  20
ATOM     20  C   UNL     1       7.203   4.593  17.806  0.00  0.00    +0.000 C 
BRANCH  20  22
ATOM     21  C   UNL     1       7.464   6.950  17.454  0.00  0.00    +0.000 C 
ATOM     22  N   UNL     1       7.316   5.649  16.782  0.00  0.00    +0.000 NA
BRANCH  22  23
ATOM     23  C   UNL     1       6.149   5.660  15.872  0.00  0.00    +0.000 C 
BRANCH  23  24
ATOM     24  C   UNL     1       6.421   4.998  14.537  0.00  0.00    +0.000 A 
ATOM     25  C   UNL     1       7.523   5.387  13.760  0.00  0.00    +0.000 A 
ATOM     26  C   UNL     1       7.739   4.818  12.506  0.00  0.00    +0.000 A 
ATOM     27  C   UNL     1       6.863   3.850  12.020  0.00  0.00    +0.000 A 
ATOM     28  C   UNL     1       5.781   3.435  12.795  0.00  0.00    +0.000 A 
ATOM     29  C   UNL     1       5.563   4.002  14.051  0.00  0.00    +0.000 A 
ENDBRANCH  23  24
ENDBRANCH  22  23
ENDBRANCH  20  22
ENDBRANCH  19  20
ENDBRANCH  18  19
ENDBRANCH   1  18
TORSDOF 8
ENDMDL
MODEL 2
REMARK VINA RESULT:      -7.7      3.046      8.048
REMARK  Name = 
REMARK  9 active torsions:
REMARK  status: ('A' for Active; 'I' for Inactive)
REMARK    1  A    between atoms: C_1  and  N_2
REMARK    2  A    between atoms: N_2  and  C_3
REMARK    3  A    between atoms: N_2  and  C_21
REMARK    4  A    between atoms: C_3  and  C_4
REMARK    5  A    between atoms: C_4  and  C_5
REMARK    6  A    between atoms: C_5  and  N_6
REMARK    7  A    between atoms: C_7  and  C_9
REMARK    8  A    between atoms: C_14  and  O_15
REMARK    9  A    between atoms: C_21  and  C_22
REMARK                            x       y       z     vdW  Elec       q    Type
REMARK                         _______ _______ _______ _____ _____    ______ ____
ROOT
ATOM      1  N   UNL     1       2.953   3.162  17.184  0.00  0.00    +0.000 N 
ATOM      2  C   UNL     1       4.202   3.555  17.611  0.00  0.00    +0.000 C 
ATOM      3  O   UNL     1       4.573   3.501  18.777  0.00  0.00    +0.000 OA
ATOM      4  H   UNL     1       2.764   3.157  16.189  0.00  0.00    +0.000 HD
ENDROOT
BRANCH   2   5
ATOM      5  C   UNL     1       5.091   4.031  16.504  0.00  0.00    +0.000 A 
ATOM      6  C   UNL     1       6.027   4.945  16.807  0.00  0.00    +0.000 A 
ATOM      7  C   UNL     1       6.936   5.399  15.748  0.00  0.00    +0.000 A 
ATOM      8  O   UNL     1       7.797   6.245  15.959  0.00  0.00    +0.000 OA
ATOM      9  C   UNL     1       6.782   4.786  14.424  0.00  0.00    +0.000 A 
ATOM     10  C   UNL     1       7.635   5.105  13.364  0.00  0.00    +0.000 A 
ATOM     11  C   UNL     1       7.460   4.501  12.121  0.00  0.00    +0.000 A 
ATOM     12  C   UNL     1       6.426   3.580  11.935  0.00  0.00    +0.000 A 
ATOM     13  C   UNL     1       5.574   3.258  12.993  0.00  0.00    +0.000 A 
ATOM     14  C   UNL     1       5.758   3.858  14.240  0.00  0.00    +0.000 A 
ATOM     15  O   UNL     1       4.901   3.482  15.243  0.00  0.00    +0.000 OA
BRANCH  10  16
ATOM     16  O   UNL     1       8.667   5.997  13.477  0.00  0.00    +0.000 OA
ATOM     17  H   UNL     1       8.841   6.146  14.434  0.00  0.00    +0.000 HD
ENDBRANCH  10  16
ENDBRANCH   2   5
BRANCH   1  18
ATOM     18  C   UNL     1       2.004   2.530  18.078  0.00  0.00    +0.000 C 
BRANCH  18  19
ATOM     19  C   UNL     1       0.889   3.498  18.464  0.00  0.00    +0.000 C 
BRANCH  19  20
ATOM     20  C   UNL     1       0.834   3.714  19.981  0.00  0.00    +0.000 C 
BRANCH  20  22
ATOM     21  C   UNL     1       2.528   3.736  21.677  0.00  0.00    +0.000 C 
ATOM     22  N   UNL     1       1.983   4.465  20.520  0.00  0.00    +0.000 NA
BRANCH  22  23
ATOM     23  C   UNL     1       1.608   5.845  20.901  0.00  0.00    +0.000 C 
BRANCH  23  24
ATOM     24  C   UNL     1       1.910   6.869  19.827  0.00  0.00    +0.000 A 
ATOM     25  C   UNL     1       2.702   6.526  18.720  0.00  0.00    +0.000 A 
ATOM     26  C   UNL     1       3.028   7.485  17.761  0.00  0.00    +0.000 A 
ATOM     27  C   UNL     1       2.560   8.790  17.895  0.00  0.00    +0.000 A 
ATOM     28  C   UNL     1       1.749   9.135  18.975  0.00  0.00    +0.000 A 
ATOM     29  C   UNL     1       1.421   8.177  19.936  0.00  0.00    +0.000 A 
ENDBRANCH  23  24
ENDBRANCH  22  23
ENDBRANCH  20  22
ENDBRANCH  19  20
ENDBRANCH  18  19
ENDBRANCH   1  18
TORSDOF 8
ENDMDL
MODEL 3
REMARK VINA RESULT:      -7.7      3.007      8.597
REMARK  Name = 
REMARK  9 active torsions:
REMARK  status: ('A' for Active; 'I' for Inactive)
REMARK    1  A    between atoms: C_1  and  N_2
REMARK    2  A    between atoms: N_2  and  C_3
REMARK    3  A    between atoms: N_2  and  C_21
REMARK    4  A    between atoms: C_3  and  C_4
REMARK    5  A    between atoms: C_4  and  C_5
REMARK    6  A    between atoms: C_5  and  N_6
REMARK    7  A    between atoms: C_7  and  C_9
REMARK    8  A    between atoms: C_14  and  O_15
REMARK    9  A    between atoms: C_21  and  C_22
REMARK                            x       y       z     vdW  Elec       q    Type
REMARK                         _______ _______ _______ _____ _____    ______ ____
ROOT
ATOM      1  N   UNL     1       2.320   6.906  20.365  0.00  0.00    +0.000 N 
ATOM      2  C   UNL     1       2.294   5.751  19.615  0.00  0.00    +0.000 C 
ATOM      3  O   UNL     1       1.306   5.036  19.496  0.00  0.00    +0.000 OA
ATOM      4  H   UNL     1       3.153   7.482  20.334  0.00  0.00    +0.000 HD
ENDROOT
BRANCH   2   5
ATOM      5  C   UNL     1       3.588   5.458  18.920  0.00  0.00    +0.000 A 
ATOM      6  C   UNL     1       4.692   5.356  19.678  0.00  0.00    +0.000 A 
ATOM      7  C   UNL     1       5.965   5.031  19.026  0.00  0.00    +0.000 A 
ATOM      8  O   UNL     1       7.009   4.943  19.661  0.00  0.00    +0.000 OA
ATOM      9  C   UNL     1       5.937   4.799  17.577  0.00  0.00    +0.000 A 
ATOM     10  C   UNL     1       7.084   4.426  16.871  0.00  0.00    +0.000 A 
ATOM     11  C   UNL     1       7.018   4.213  15.496  0.00  0.00    +0.000 A 
ATOM     12  C   UNL     1       5.805   4.378  14.824  0.00  0.00    +0.000 A 
ATOM     13  C   UNL     1       4.657   4.749  15.527  0.00  0.00    +0.000 A 
ATOM     14  C   UNL     1       4.725   4.952  16.907  0.00  0.00    +0.000 A 
ATOM     15  O   UNL     1       3.557   5.294  17.542  0.00  0.00    +0.000 OA
BRANCH  10  16
ATOM     16  O   UNL     1       8.303   4.246  17.465  0.00  0.00    +0.000 OA
ATOM     17  H   UNL     1       8.826   3.622  16.912  0.00  0.00    +0.000 HD
ENDBRANCH  10  16
ENDBRANCH   2   5
BRANCH   1  18
ATOM     18  C   UNL     1       1.126   7.440  20.987  0.00  0.00    +0.000 C 
BRANCH  18  19
ATOM     19  C   UNL     1       0.981   8.932  20.700  0.00  0.00    +0.000 C 
BRANCH  19  20
ATOM     20  C   UNL     1       1.240   9.244  19.222  0.00  0.00    +0.000 C 
BRANCH  20  22
ATOM     21  C   UNL     1       1.205  11.636  19.074  0.00  0.00    +0.000 C 
ATOM     22  N   UNL     1       0.485  10.404  18.713  0.00  0.00    +0.000 NA
BRANCH  22  23
ATOM     23  C   UNL     1      -0.898  10.434  19.239  0.00  0.00    +0.000 C 
BRANCH  23  24
ATOM     24  C   UNL     1      -1.952  10.531  18.156  0.00  0.00    +0.000 A 
ATOM     25  C   UNL     1      -1.802   9.826  16.952  0.00  0.00    +0.000 A 
ATOM     26  C   UNL     1      -2.744   9.961  15.933  0.00  0.00    +0.000 A 
ATOM     27  C   UNL     1      -3.847  10.794  16.110  0.00  0.00    +0.000 A 
ATOM     28  C   UNL     1      -4.021  11.477  17.313  0.00  0.00    +0.000 A 
ATOM     29  C   UNL     1      -3.080  11.342  18.335  0.00  0.00    +0.000 A 
ENDBRANCH  23  24
ENDBRANCH  22  23
ENDBRANCH  20  22
ENDBRANCH  19  20
ENDBRANCH  18  19
ENDBRANCH   1  18
TORSDOF 8
ENDMDL
MODEL 4
REMARK VINA RESULT:      -7.6      0.992      1.484
REMARK  Name = 
REMARK  9 active torsions:
REMARK  status: ('A' for Active; 'I' for Inactive)
REMARK    1  A    between atoms: C_1  and  N_2
REMARK    2  A    between atoms: N_2  and  C_3
REMARK    3  A    between atoms: N_2  and  C_21
REMARK    4  A    between atoms: C_3  and  C_4
REMARK    5  A    between atoms: C_4  and  C_5
REMARK    6  A    between atoms: C_5  and  N_6
REMARK    7  A    between atoms: C_7  and  C_9
REMARK    8  A    between atoms: C_14  and  O_15
REMARK    9  A    between atoms: C_21  and  C_22
REMARK                            x       y       z     vdW  Elec       q    Type
REMARK                         _______ _______ _______ _____ _____    ______ ____
ROOT
ATOM      1  N   UNL     1       2.466   4.619  18.773  0.00  0.00    +0.000 N 
ATOM      2  C   UNL     1       2.365   5.289  19.971  0.00  0.00    +0.000 C 
ATOM      3  O   UNL     1       2.568   4.772  21.063  0.00  0.00    +0.000 OA
ATOM      4  H   UNL     1       2.369   5.149  17.915  0.00  0.00    +0.000 HD
ENDROOT
BRANCH   2   5
ATOM      5  C   UNL     1       2.012   6.737  19.820  0.00  0.00    +0.000 A 
ATOM      6  C   UNL     1       2.294   7.328  18.648  0.00  0.00    +0.000 A 
ATOM      7  C   UNL     1       1.922   8.735  18.461  0.00  0.00    +0.000 A 
ATOM      8  O   UNL     1       2.171   9.333  17.421  0.00  0.00    +0.000 OA
ATOM      9  C   UNL     1       1.223   9.396  19.569  0.00  0.00    +0.000 A 
ATOM     10  C   UNL     1       0.774  10.716  19.470  0.00  0.00    +0.000 A 
ATOM     11  C   UNL     1       0.113  11.310  20.542  0.00  0.00    +0.000 A 
ATOM     12  C   UNL     1      -0.095  10.587  21.718  0.00  0.00    +0.000 A 
ATOM     13  C   UNL     1       0.351   9.268  21.820  0.00  0.00    +0.000 A 
ATOM     14  C   UNL     1       1.005   8.672  20.740  0.00  0.00    +0.000 A 
ATOM     15  O   UNL     1       1.399   7.366  20.895  0.00  0.00    +0.000 OA
BRANCH  10  16
ATOM     16  O   UNL     1       0.943  11.481  18.349  0.00  0.00    +0.000 OA
ATOM     17  H   UNL     1       0.392  12.292  18.443  0.00  0.00    +0.000 HD
ENDBRANCH  10  16
ENDBRANCH   2   5
BRANCH   1  18
ATOM     18  C   UNL     1       2.946   3.254  18.699  0.00  0.00    +0.000 C 
BRANCH  18  19
ATOM     19  C   UNL     1       4.084   3.129  17.690  0.00  0.00    +0.000 C 
BRANCH  19  20
ATOM     20  C   UNL     1       5.218   4.113  18.001  0.00  0.00    +0.000 C 
BRANCH  20  22
ATOM     21  C   UNL     1       7.493   4.677  17.499  0.00  0.00    +0.000 C 
ATOM     22  N   UNL     1       6.213   4.240  16.919  0.00  0.00    +0.000 NA
BRANCH  22  23
ATOM     23  C   UNL     1       5.767   5.182  15.869  0.00  0.00    +0.000 C 
BRANCH  23  24
ATOM     24  C   UNL     1       6.166   4.758  14.471  0.00  0.00    +0.000 A 
ATOM     25  C   UNL     1       5.378   3.847  13.751  0.00  0.00    +0.000 A 
ATOM     26  C   UNL     1       5.776   3.413  12.487  0.00  0.00    +0.000 A 
ATOM     27  C   UNL     1       6.959   3.891  11.928  0.00  0.00    +0.000 A 
ATOM     28  C   UNL     1       7.736   4.817  12.622  0.00  0.00    +0.000 A 
ATOM     29  C   UNL     1       7.339   5.254  13.887  0.00  0.00    +0.000 A 
ENDBRANCH  23  24
ENDBRANCH  22  23
ENDBRANCH  20  22
ENDBRANCH  19  20
ENDBRANCH  18  19
ENDBRANCH   1  18
TORSDOF 8
ENDMDL
MODEL 5
REMARK VINA RESULT:      -7.5      3.116      8.386
REMARK  Name = 
REMARK  9 active torsions:
REMARK  status: ('A' for Active; 'I' for Inactive)
REMARK    1  A    between atoms: C_1  and  N_2
REMARK    2  A    between atoms: N_2  and  C_3
REMARK    3  A    between atoms: N_2  and  C_21
REMARK    4  A    between atoms: C_3  and  C_4
REMARK    5  A    between atoms: C_4  and  C_5
REMARK    6  A    between atoms: C_5  and  N_6
REMARK    7  A    between atoms: C_7  and  C_9
REMARK    8  A    between atoms: C_14  and  O_15
REMARK    9  A    between atoms: C_21  and  C_22
REMARK                            x       y       z     vdW  Elec       q    Type
REMARK                         _______ _______ _______ _____ _____    ______ ____
ROOT
ATOM      1  N   UNL     1       1.989   7.067  20.628  0.00  0.00    +0.000 N 
ATOM      2  C   UNL     1       1.929   5.720  20.353  0.00  0.00    +0.000 C 
ATOM      3  O   UNL     1       1.056   4.973  20.780  0.00  0.00    +0.000 OA
ATOM      4  H   UNL     1       2.694   7.623  20.161  0.00  0.00    +0.000 HD
ENDROOT
BRANCH   2   5
ATOM      5  C   UNL     1       3.023   5.244  19.447  0.00  0.00    +0.000 A 
ATOM      6  C   UNL     1       2.669   4.529  18.367  0.00  0.00    +0.000 A 
ATOM      7  C   UNL     1       3.718   4.085  17.443  0.00  0.00    +0.000 A 
ATOM      8  O   UNL     1       3.460   3.414  16.451  0.00  0.00    +0.000 OA
ATOM      9  C   UNL     1       5.095   4.490  17.747  0.00  0.00    +0.000 A 
ATOM     10  C   UNL     1       6.160   4.169  16.900  0.00  0.00    +0.000 A 
ATOM     11  C   UNL     1       7.453   4.572  17.221  0.00  0.00    +0.000 A 
ATOM     12  C   UNL     1       7.686   5.293  18.394  0.00  0.00    +0.000 A 
ATOM     13  C   UNL     1       6.625   5.617  19.241  0.00  0.00    +0.000 A 
ATOM     14  C   UNL     1       5.328   5.220  18.912  0.00  0.00    +0.000 A 
ATOM     15  O   UNL     1       4.326   5.589  19.775  0.00  0.00    +0.000 OA
BRANCH  10  16
ATOM     16  O   UNL     1       6.003   3.466  15.736  0.00  0.00    +0.000 OA
ATOM     17  H   UNL     1       5.087   3.616  15.407  0.00  0.00    +0.000 HD
ENDBRANCH  10  16
ENDBRANCH   2   5
BRANCH   1  18
ATOM     18  C   UNL     1       0.937   7.745  21.360  0.00  0.00    +0.000 C 
BRANCH  18  19
ATOM     19  C   UNL     1       0.605   9.089  20.717  0.00  0.00    +0.000 C 
BRANCH  19  20
ATOM     20  C   UNL     1       1.375   9.289  19.407  0.00  0.00    +0.000 C 
BRANCH  20  22
ATOM     21  C   UNL     1       1.866  11.338  18.265  0.00  0.00    +0.000 C 
ATOM     22  N   UNL     1       0.817  10.343  18.540  0.00  0.00    +0.000 NA
BRANCH  22  23
ATOM     23  C   UNL     1      -0.368  10.987  19.149  0.00  0.00    +0.000 C 
BRANCH  23  24
ATOM     24  C   UNL     1      -1.613  10.891  18.291  0.00  0.00    +0.000 A 
ATOM     25  C   UNL     1      -2.741  11.674  18.584  0.00  0.00    +0.000 A 
ATOM     26  C   UNL     1      -3.906  11.544  17.830  0.00  0.00    +0.000 A 
ATOM     27  C   UNL     1      -3.952  10.639  16.771  0.00  0.00    +0.000 A 
ATOM     28  C   UNL     1      -2.829   9.878  16.453  0.00  0.00    +0.000 A 
ATOM     29  C   UNL     1      -1.661  10.007  17.206  0.00  0.00    +0.000 A 
ENDBRANCH  23  24
ENDBRANCH  22  23
ENDBRANCH  20  22
ENDBRANCH  19  20
ENDBRANCH  18  19
ENDBRANCH   1  18
TORSDOF 8
ENDMDL
MODEL 6
REMARK VINA RESULT:      -7.4      3.367      5.983
REMARK  Name = 
REMARK  9 active torsions:
REMARK  status: ('A' for Active; 'I' for Inactive)
REMARK    1  A    between atoms: C_1  and  N_2
REMARK    2  A    between atoms: N_2  and  C_3
REMARK    3  A    between atoms: N_2  and  C_21
REMARK    4  A    between atoms: C_3  and  C_4
REMARK    5  A    between atoms: C_4  and  C_5
REMARK    6  A    between atoms: C_5  and  N_6
REMARK    7  A    between atoms: C_7  and  C_9
REMARK    8  A    between atoms: C_14  and  O_15
REMARK    9  A    between atoms: C_21  and  C_22
REMARK                            x       y       z     vdW  Elec       q    Type
REMARK                         _______ _______ _______ _____ _____    ______ ____
ROOT
ATOM      1  N   UNL     1       1.142   9.216  17.882  0.00  0.00    +0.000 N 
ATOM      2  C   UNL     1       0.574   9.955  18.895  0.00  0.00    +0.000 C 
ATOM      3  O   UNL     1       1.145  10.234  19.942  0.00  0.00    +0.000 OA
ATOM      4  H   UNL     1       0.629   9.110  17.016  0.00  0.00    +0.000 HD
ENDROOT
BRANCH   2   5
ATOM      5  C   UNL     1      -0.816  10.424  18.587  0.00  0.00    +0.000 A 
ATOM      6  C   UNL     1      -1.395   9.963  17.468  0.00  0.00    +0.000 A 
ATOM      7  C   UNL     1      -2.769  10.377  17.164  0.00  0.00    +0.000 A 
ATOM      8  O   UNL     1      -3.343  10.004  16.148  0.00  0.00    +0.000 OA
ATOM      9  C   UNL     1      -3.438  11.247  18.137  0.00  0.00    +0.000 A 
ATOM     10  C   UNL     1      -4.766  11.650  17.972  0.00  0.00    +0.000 A 
ATOM     11  C   UNL     1      -5.368  12.476  18.918  0.00  0.00    +0.000 A 
ATOM     12  C   UNL     1      -4.640  12.905  20.030  0.00  0.00    +0.000 A 
ATOM     13  C   UNL     1      -3.314  12.503  20.199  0.00  0.00    +0.000 A 
ATOM     14  C   UNL     1      -2.716  11.667  19.254  0.00  0.00    +0.000 A 
ATOM     15  O   UNL     1      -1.418  11.291  19.489  0.00  0.00    +0.000 OA
BRANCH  10  16
ATOM     16  O   UNL     1      -5.536  11.267  16.908  0.00  0.00    +0.000 OA
ATOM     17  H   UNL     1      -6.445  11.080  17.238  0.00  0.00    +0.000 HD
ENDBRANCH  10  16
ENDBRANCH   2   5
BRANCH   1  18
ATOM     18  C   UNL     1       2.530   8.802  17.925  0.00  0.00    +0.000 C 
BRANCH  18  19
ATOM     19  C   UNL     1       2.646   7.310  18.225  0.00  0.00    +0.000 C 
BRANCH  19  20
ATOM     20  C   UNL     1       3.901   6.706  17.583  0.00  0.00    +0.000 C 
BRANCH  20  22
ATOM     21  C   UNL     1       5.785   5.254  17.875  0.00  0.00    +0.000 C 
ATOM     22  N   UNL     1       4.377   5.477  18.244  0.00  0.00    +0.000 NA
BRANCH  22  23
ATOM     23  C   UNL     1       3.551   4.303  17.886  0.00  0.00    +0.000 C 
BRANCH  23  24
ATOM     24  C   UNL     1       2.760   3.745  19.051  0.00  0.00    +0.000 A 
ATOM     25  C   UNL     1       1.357   3.787  19.044  0.00  0.00    +0.000 A 
ATOM     26  C   UNL     1       0.631   3.327  20.142  0.00  0.00    +0.000 A 
ATOM     27  C   UNL     1       1.299   2.812  21.251  0.00  0.00    +0.000 A 
ATOM     28  C   UNL     1       2.691   2.740  21.257  0.00  0.00    +0.000 A 
ATOM     29  C   UNL     1       3.420   3.199  20.159  0.00  0.00    +0.000 A 
ENDBRANCH  23  24
ENDBRANCH  22  23
ENDBRANCH  20  22
ENDBRANCH  19  20
ENDBRANCH  18  19
ENDBRANCH   1  18
TORSDOF 8
ENDMDL
MODEL 7
REMARK VINA RESULT:      -7.3      4.652      7.535
REMARK  Name = 
REMARK  9 active torsions:
REMARK  status: ('A' for Active; 'I' for Inactive)
REMARK    1  A    between atoms: C_1  and  N_2
REMARK    2  A    between atoms: N_2  and  C_3
REMARK    3  A    between atoms: N_2  and  C_21
REMARK    4  A    between atoms: C_3  and  C_4
REMARK    5  A    between atoms: C_4  and  C_5
REMARK    6  A    between atoms: C_5  and  N_6
REMARK    7  A    between atoms: C_7  and  C_9
REMARK    8  A    between atoms: C_14  and  O_15
REMARK    9  A    between atoms: C_21  and  C_22
REMARK                            x       y       z     vdW  Elec       q    Type
REMARK                         _______ _______ _______ _____ _____    ______ ____
ROOT
ATOM      1  N   UNL     1       7.262   7.679  17.219  0.00  0.00    +0.000 N 
ATOM      2  C   UNL     1       8.127   8.013  18.237  0.00  0.00    +0.000 C 
ATOM      3  O   UNL     1       8.584   7.206  19.038  0.00  0.00    +0.000 OA
ATOM      4  H   UNL     1       7.006   8.395  16.551  0.00  0.00    +0.000 HD
ENDROOT
BRANCH   2   5
ATOM      5  C   UNL     1       8.492   9.466  18.262  0.00  0.00    +0.000 A 
ATOM      6  C   UNL     1       7.793  10.296  17.472  0.00  0.00    +0.000 A 
ATOM      7  C   UNL     1       8.105  11.729  17.507  0.00  0.00    +0.000 A 
ATOM      8  O   UNL     1       7.515  12.533  16.795  0.00  0.00    +0.000 OA
ATOM      9  C   UNL     1       9.147  12.166  18.443  0.00  0.00    +0.000 A 
ATOM     10  C   UNL     1       9.478  13.515  18.596  0.00  0.00    +0.000 A 
ATOM     11  C   UNL     1      10.472  13.892  19.496  0.00  0.00    +0.000 A 
ATOM     12  C   UNL     1      11.141  12.919  20.242  0.00  0.00    +0.000 A 
ATOM     13  C   UNL     1      10.811  11.570  20.092  0.00  0.00    +0.000 A 
ATOM     14  C   UNL     1       9.808  11.197  19.196  0.00  0.00    +0.000 A 
ATOM     15  O   UNL     1       9.516   9.858  19.113  0.00  0.00    +0.000 OA
BRANCH  10  16
ATOM     16  O   UNL     1       8.864  14.519  17.899  0.00  0.00    +0.000 OA
ATOM     17  H   UNL     1       9.455  15.307  17.907  0.00  0.00    +0.000 HD
ENDBRANCH  10  16
ENDBRANCH   2   5
BRANCH   1  18
ATOM     18  C   UNL     1       6.911   6.302  16.935  0.00  0.00    +0.000 C 
BRANCH  18  19
ATOM     19  C   UNL     1       5.476   6.198  16.429  0.00  0.00    +0.000 C 
BRANCH  19  20
ATOM     20  C   UNL     1       4.579   7.265  17.066  0.00  0.00    +0.000 C 
BRANCH  20  22
ATOM     21  C   UNL     1       2.566   7.837  18.236  0.00  0.00    +0.000 C 
ATOM     22  N   UNL     1       3.383   6.720  17.735  0.00  0.00    +0.000 NA
BRANCH  22  23
ATOM     23  C   UNL     1       3.741   5.799  18.837  0.00  0.00    +0.000 C 
BRANCH  23  24
ATOM     24  C   UNL     1       2.662   4.782  19.146  0.00  0.00    +0.000 A 
ATOM     25  C   UNL     1       2.120   4.691  20.438  0.00  0.00    +0.000 A 
ATOM     26  C   UNL     1       1.168   3.716  20.737  0.00  0.00    +0.000 A 
ATOM     27  C   UNL     1       0.743   2.832  19.748  0.00  0.00    +0.000 A 
ATOM     28  C   UNL     1       1.254   2.931  18.455  0.00  0.00    +0.000 A 
ATOM     29  C   UNL     1       2.206   3.906  18.152  0.00  0.00    +0.000 A 
ENDBRANCH  23  24
ENDBRANCH  22  23
ENDBRANCH  20  22
ENDBRANCH  19  20
ENDBRANCH  18  19
ENDBRANCH   1  18
TORSDOF 8
ENDMDL
MODEL 8
REMARK VINA RESULT:      -7.3      3.140      8.269
REMARK  Name = 
REMARK  9 active torsions:
REMARK  status: ('A' for Active; 'I' for Inactive)
REMARK    1  A    between atoms: C_1  and  N_2
REMARK    2  A    between atoms: N_2  and  C_3
REMARK    3  A    between atoms: N_2  and  C_21
REMARK    4  A    between atoms: C_3  and  C_4
REMARK    5  A    between atoms: C_4  and  C_5
REMARK    6  A    between atoms: C_5  and  N_6
REMARK    7  A    between atoms: C_7  and  C_9
REMARK    8  A    between atoms: C_14  and  O_15
REMARK    9  A    between atoms: C_21  and  C_22
REMARK                            x       y       z     vdW  Elec       q    Type
REMARK                         _______ _______ _______ _____ _____    ______ ____
ROOT
ATOM      1  N   UNL     1       1.858   6.816  20.667  0.00  0.00    +0.000 N 
ATOM      2  C   UNL     1       1.903   5.473  20.364  0.00  0.00    +0.000 C 
ATOM      3  O   UNL     1       1.104   4.649  20.792  0.00  0.00    +0.000 OA
ATOM      4  H   UNL     1       2.505   7.437  20.197  0.00  0.00    +0.000 HD
ENDROOT
BRANCH   2   5
ATOM      5  C   UNL     1       3.012   5.107  19.425  0.00  0.00    +0.000 A 
ATOM      6  C   UNL     1       2.678   4.503  18.274  0.00  0.00    +0.000 A 
ATOM      7  C   UNL     1       3.742   4.169  17.320  0.00  0.00    +0.000 A 
ATOM      8  O   UNL     1       3.502   3.600  16.262  0.00  0.00    +0.000 OA
ATOM      9  C   UNL     1       5.110   4.560  17.678  0.00  0.00    +0.000 A 
ATOM     10  C   UNL     1       6.186   4.341  16.814  0.00  0.00    +0.000 A 
ATOM     11  C   UNL     1       7.471   4.727  17.188  0.00  0.00    +0.000 A 
ATOM     12  C   UNL     1       7.683   5.328  18.431  0.00  0.00    +0.000 A 
ATOM     13  C   UNL     1       6.610   5.549  19.296  0.00  0.00    +0.000 A 
ATOM     14  C   UNL     1       5.322   5.170  18.914  0.00  0.00    +0.000 A 
ATOM     15  O   UNL     1       4.307   5.435  19.800  0.00  0.00    +0.000 OA
BRANCH  10  16
ATOM     16  O   UNL     1       6.050   3.760  15.583  0.00  0.00    +0.000 OA
ATOM     17  H   UNL     1       5.104   3.819  15.317  0.00  0.00    +0.000 HD
ENDBRANCH  10  16
ENDBRANCH   2   5
BRANCH   1  18
ATOM     18  C   UNL     1       0.772   7.390  21.435  0.00  0.00    +0.000 C 
BRANCH  18  19
ATOM     19  C   UNL     1       0.678   8.896  21.206  0.00  0.00    +0.000 C 
BRANCH  19  20
ATOM     20  C   UNL     1       1.608   9.349  20.075  0.00  0.00    +0.000 C 
BRANCH  20  22
ATOM     21  C   UNL     1       1.933   9.082  17.715  0.00  0.00    +0.000 C 
ATOM     22  N   UNL     1       0.952   9.427  18.756  0.00  0.00    +0.000 NA
BRANCH  22  23
ATOM     23  C   UNL     1       0.375  10.767  18.507  0.00  0.00    +0.000 C 
BRANCH  23  24
ATOM     24  C   UNL     1      -1.115  10.740  18.239  0.00  0.00    +0.000 A 
ATOM     25  C   UNL     1      -1.655   9.837  17.311  0.00  0.00    +0.000 A 
ATOM     26  C   UNL     1      -3.019   9.852  17.021  0.00  0.00    +0.000 A 
ATOM     27  C   UNL     1      -3.856  10.762  17.662  0.00  0.00    +0.000 A 
ATOM     28  C   UNL     1      -3.336  11.645  18.607  0.00  0.00    +0.000 A 
ATOM     29  C   UNL     1      -1.971  11.631  18.899  0.00  0.00    +0.000 A 
ENDBRANCH  23  24
ENDBRANCH  22  23
ENDBRANCH  20  22
ENDBRANCH  19  20
ENDBRANCH  18  19
ENDBRANCH   1  18
TORSDOF 8
ENDMDL
MODEL 9
REMARK VINA RESULT:      -7.3      1.875      3.154
REMARK  Name = 
REMARK  9 active torsions:
REMARK  status: ('A' for Active; 'I' for Inactive)
REMARK    1  A    between atoms: C_1  and  N_2
REMARK    2  A    between atoms: N_2  and  C_3
REMARK    3  A    between atoms: N_2  and  C_21
REMARK    4  A    between atoms: C_3  and  C_4
REMARK    5  A    between atoms: C_4  and  C_5
REMARK    6  A    between atoms: C_5  and  N_6
REMARK    7  A    between atoms: C_7  and  C_9
REMARK    8  A    between atoms: C_14  and  O_15
REMARK    9  A    between atoms: C_21  and  C_22
REMARK                            x       y       z     vdW  Elec       q    Type
REMARK                         _______ _______ _______ _____ _____    ______ ____
ROOT
ATOM      1  N   UNL     1       1.923   4.719  19.010  0.00  0.00    +0.000 N 
ATOM      2  C   UNL     1       2.091   5.460  20.158  0.00  0.00    +0.000 C 
ATOM      3  O   UNL     1       2.461   4.990  21.227  0.00  0.00    +0.000 OA
ATOM      4  H   UNL     1       1.700   5.206  18.151  0.00  0.00    +0.000 HD
ENDROOT
BRANCH   2   5
ATOM      5  C   UNL     1       1.807   6.920  19.976  0.00  0.00    +0.000 A 
ATOM      6  C   UNL     1       2.116   7.471  18.792  0.00  0.00    +0.000 A 
ATOM      7  C   UNL     1       1.812   8.890  18.576  0.00  0.00    +0.000 A 
ATOM      8  O   UNL     1       2.088   9.453  17.523  0.00  0.00    +0.000 OA
ATOM      9  C   UNL     1       1.147   9.607  19.669  0.00  0.00    +0.000 A 
ATOM     10  C   UNL     1       0.762  10.945  19.542  0.00  0.00    +0.000 A 
ATOM     11  C   UNL     1       0.131  11.593  20.601  0.00  0.00    +0.000 A 
ATOM     12  C   UNL     1      -0.110  10.905  21.793  0.00  0.00    +0.000 A 
ATOM     13  C   UNL     1       0.273   9.569  21.922  0.00  0.00    +0.000 A 
ATOM     14  C   UNL     1       0.895   8.919  20.855  0.00  0.00    +0.000 A 
ATOM     15  O   UNL     1       1.226   7.600  21.038  0.00  0.00    +0.000 OA
BRANCH  10  16
ATOM     16  O   UNL     1       0.966  11.677  18.405  0.00  0.00    +0.000 OA
ATOM     17  H   UNL     1       1.622  11.200  17.845  0.00  0.00    +0.000 HD
ENDBRANCH  10  16
ENDBRANCH   2   5
BRANCH   1  18
ATOM     18  C   UNL     1       2.293   3.319  18.943  0.00  0.00    +0.000 C 
BRANCH  18  19
ATOM     19  C   UNL     1       2.651   2.918  17.515  0.00  0.00    +0.000 C 
BRANCH  19  20
ATOM     20  C   UNL     1       4.161   3.014  17.268  0.00  0.00    +0.000 C 
BRANCH  20  22
ATOM     21  C   UNL     1       5.928   3.844  15.878  0.00  0.00    +0.000 C 
ATOM     22  N   UNL     1       4.546   4.080  16.325  0.00  0.00    +0.000 NA
BRANCH  22  23
ATOM     23  C   UNL     1       4.415   5.424  16.930  0.00  0.00    +0.000 C 
BRANCH  23  24
ATOM     24  C   UNL     1       5.682   5.908  17.604  0.00  0.00    +0.000 A 
ATOM     25  C   UNL     1       6.441   6.942  17.033  0.00  0.00    +0.000 A 
ATOM     26  C   UNL     1       7.638   7.347  17.623  0.00  0.00    +0.000 A 
ATOM     27  C   UNL     1       8.082   6.731  18.791  0.00  0.00    +0.000 A 
ATOM     28  C   UNL     1       7.322   5.722  19.381  0.00  0.00    +0.000 A 
ATOM     29  C   UNL     1       6.124   5.315  18.794  0.00  0.00    +0.000 A 
ENDBRANCH  23  24
ENDBRANCH  22  23
ENDBRANCH  20  22
ENDBRANCH  19  20
ENDBRANCH  18  19
ENDBRANCH   1  18
TORSDOF 8
ENDMDL
