MODEL 1
REMARK VINA RESULT:      -7.8      0.000      0.000
REMARK  Name = 
REMARK  3 active torsions:
REMARK  status: ('A' for Active; 'I' for Inactive)
REMARK    1  A    between atoms: C_1  and  N_2
REMARK    2  A    between atoms: C_4  and  C_5
REMARK    3  A    between atoms: N_12  and  C_13
REMARK                            x       y       z     vdW  Elec       q    Type
REMARK                         _______ _______ _______ _____ _____    ______ ____
ROOT
ATOM      1  C   UNL     1       6.523   4.011  14.639  0.00  0.00    +0.000 C 
ATOM      2  N   UNL     1       6.411   4.571  15.966  0.00  0.00    +0.000 N 
ATOM      3  N   UNL     1       7.500   5.113  16.569  0.00  0.00    +0.000 NA
ATOM      4  C   UNL     1       7.042   5.539  17.769  0.00  0.00    +0.000 A 
ATOM      5  C   UNL     1       5.664   5.265  17.901  0.00  0.00    +0.000 A 
ATOM      6  C   UNL     1       5.291   4.639  16.737  0.00  0.00    +0.000 A 
ATOM      7  C   UNL     1       3.922   4.117  16.467  0.00  0.00    +0.000 C 
ATOM      8  C   UNL     1       2.910   4.732  17.475  0.00  0.00    +0.000 C 
ATOM      9  N   UNL     1       3.415   4.866  18.864  0.00  0.00    +0.000 N 
ATOM     10  C   UNL     1       4.733   5.528  19.027  0.00  0.00    +0.000 C 
ENDROOT
BRANCH   9  11
ATOM     11  C   UNL     1       3.033   4.005  19.888  0.00  0.00    +0.000 A 
ATOM     12  C   UNL     1       1.886   4.308  20.642  0.00  0.00    +0.000 A 
ATOM     13  C   UNL     1       1.492   3.477  21.682  0.00  0.00    +0.000 A 
ATOM     14  N   UNL     1       2.156   2.362  22.038  0.00  0.00    +0.000 NA
ATOM     15  C   UNL     1       3.258   2.071  21.308  0.00  0.00    +0.000 A 
ATOM     16  C   UNL     1       3.715   2.838  20.243  0.00  0.00    +0.000 A 
ATOM     17  F   UNL     1       4.838   2.462  19.611  0.00  0.00    +0.000 F 
ENDBRANCH   9  11
BRANCH   4  18
ATOM     18  C   UNL     1       7.884   6.182  18.785  0.00  0.00    +0.000 C 
ATOM     19  N   UNL     1       8.173   5.410  19.874  0.00  0.00    +0.000 N 
ATOM     20  O   UNL     1       8.303   7.331  18.695  0.00  0.00    +0.000 OA
ATOM     21  H   UNL     1       7.782   4.480  19.933  0.00  0.00    +0.000 HD
ATOM     22  H   UNL     1       8.708   5.811  20.627  0.00  0.00    +0.000 HD
ENDBRANCH   4  18
TORSDOF 2
ENDMDL
MODEL 2
REMARK VINA RESULT:      -7.8      1.076      1.497
REMARK  Name = 
REMARK  3 active torsions:
REMARK  status: ('A' for Active; 'I' for Inactive)
REMARK    1  A    between atoms: C_1  and  N_2
REMARK    2  A    between atoms: C_4  and  C_5
REMARK    3  A    between atoms: N_12  and  C_13
REMARK                            x       y       z     vdW  Elec       q    Type
REMARK                         _______ _______ _______ _____ _____    ______ ____
ROOT
ATOM      1  C   UNL     1       6.474   4.021  14.648  0.00  0.00    +0.000 C 
ATOM      2  N   UNL     1       6.385   4.597  15.969  0.00  0.00    +0.000 N 
ATOM      3  N   UNL     1       7.484   5.150  16.544  0.00  0.00    +0.000 NA
ATOM      4  C   UNL     1       7.047   5.590  17.747  0.00  0.00    +0.000 A 
ATOM      5  C   UNL     1       5.673   5.315  17.908  0.00  0.00    +0.000 A 
ATOM      6  C   UNL     1       5.279   4.672  16.760  0.00  0.00    +0.000 A 
ATOM      7  C   UNL     1       3.908   4.144  16.522  0.00  0.00    +0.000 C 
ATOM      8  C   UNL     1       2.913   4.769  17.541  0.00  0.00    +0.000 C 
ATOM      9  N   UNL     1       3.443   4.922  18.918  0.00  0.00    +0.000 N 
ATOM     10  C   UNL     1       4.762   5.589  19.048  0.00  0.00    +0.000 C 
ENDROOT
BRANCH   9  11
ATOM     11  C   UNL     1       3.083   4.073  19.960  0.00  0.00    +0.000 A 
ATOM     12  C   UNL     1       3.842   2.912  20.187  0.00  0.00    +0.000 A 
ATOM     13  C   UNL     1       3.495   2.036  21.208  0.00  0.00    +0.000 A 
ATOM     14  N   UNL     1       2.441   2.223  22.025  0.00  0.00    +0.000 NA
ATOM     15  C   UNL     1       1.715   3.345  21.806  0.00  0.00    +0.000 A 
ATOM     16  C   UNL     1       1.999   4.280  20.818  0.00  0.00    +0.000 A 
ATOM     17  F   UNL     1       1.188   5.341  20.680  0.00  0.00    +0.000 F 
ENDBRANCH   9  11
BRANCH   4  18
ATOM     18  C   UNL     1       7.906   6.249  18.739  0.00  0.00    +0.000 C 
ATOM     19  N   UNL     1       8.205   5.497  19.839  0.00  0.00    +0.000 N 
ATOM     20  O   UNL     1       8.331   7.393  18.620  0.00  0.00    +0.000 OA
ATOM     21  H   UNL     1       7.809   4.571  19.922  0.00  0.00    +0.000 HD
ATOM     22  H   UNL     1       8.752   5.911  20.577  0.00  0.00    +0.000 HD
ENDBRANCH   4  18
TORSDOF 2
ENDMDL
MODEL 3
REMARK VINA RESULT:      -7.5      1.476      1.804
REMARK  Name = 
REMARK  3 active torsions:
REMARK  status: ('A' for Active; 'I' for Inactive)
REMARK    1  A    between atoms: C_1  and  N_2
REMARK    2  A    between atoms: C_4  and  C_5
REMARK    3  A    between atoms: N_12  and  C_13
REMARK                            x       y       z     vdW  Elec       q    Type
REMARK                         _______ _______ _______ _____ _____    ______ ____
ROOT
ATOM      1  C   UNL     1       6.457   4.010  14.130  0.00  0.00    +0.000 C 
ATOM      2  N   UNL     1       6.304   4.713  15.383  0.00  0.00    +0.000 N 
ATOM      3  N   UNL     1       7.300   5.518  15.835  0.00  0.00    +0.000 NA
ATOM      4  C   UNL     1       6.827   6.013  17.002  0.00  0.00    +0.000 A 
ATOM      5  C   UNL     1       5.532   5.517  17.264  0.00  0.00    +0.000 A 
ATOM      6  C   UNL     1       5.228   4.683  16.216  0.00  0.00    +0.000 A 
ATOM      7  C   UNL     1       3.970   3.893  16.110  0.00  0.00    +0.000 C 
ATOM      8  C   UNL     1       2.909   4.446  17.103  0.00  0.00    +0.000 C 
ATOM      9  N   UNL     1       3.444   4.855  18.425  0.00  0.00    +0.000 N 
ATOM     10  C   UNL     1       4.621   5.758  18.412  0.00  0.00    +0.000 C 
ENDROOT
BRANCH   9  11
ATOM     11  C   UNL     1       3.278   4.085  19.573  0.00  0.00    +0.000 A 
ATOM     12  C   UNL     1       4.119   2.978  19.779  0.00  0.00    +0.000 A 
ATOM     13  C   UNL     1       3.964   2.181  20.905  0.00  0.00    +0.000 A 
ATOM     14  N   UNL     1       3.028   2.396  21.848  0.00  0.00    +0.000 NA
ATOM     15  C   UNL     1       2.223   3.465  21.648  0.00  0.00    +0.000 A 
ATOM     16  C   UNL     1       2.316   4.322  20.559  0.00  0.00    +0.000 A 
ATOM     17  F   UNL     1       1.441   5.335  20.456  0.00  0.00    +0.000 F 
ENDBRANCH   9  11
BRANCH   4  18
ATOM     18  C   UNL     1       7.580   6.927  17.869  0.00  0.00    +0.000 C 
ATOM     19  N   UNL     1       7.688   8.208  17.408  0.00  0.00    +0.000 N 
ATOM     20  O   UNL     1       8.094   6.592  18.931  0.00  0.00    +0.000 OA
ATOM     21  H   UNL     1       7.283   8.442  16.512  0.00  0.00    +0.000 HD
ATOM     22  H   UNL     1       8.233   8.871  17.936  0.00  0.00    +0.000 HD
ENDBRANCH   4  18
TORSDOF 2
ENDMDL
MODEL 4
REMARK VINA RESULT:      -7.3      2.800      5.978
REMARK  Name = 
REMARK  3 active torsions:
REMARK  status: ('A' for Active; 'I' for Inactive)
REMARK    1  A    between atoms: C_1  and  N_2
REMARK    2  A    between atoms: C_4  and  C_5
REMARK    3  A    between atoms: N_12  and  C_13
REMARK                            x       y       z     vdW  Elec       q    Type
REMARK                         _______ _______ _______ _____ _____    ______ ____
ROOT
ATOM      1  C   UNL     1       1.414   8.536  20.965  0.00  0.00    +0.000 C 
ATOM      2  N   UNL     1       1.721   7.195  20.524  0.00  0.00    +0.000 N 
ATOM      3  N   UNL     1       1.308   6.129  21.255  0.00  0.00    +0.000 NA
ATOM      4  C   UNL     1       1.750   5.055  20.561  0.00  0.00    +0.000 A 
ATOM      5  C   UNL     1       2.430   5.463  19.394  0.00  0.00    +0.000 A 
ATOM      6  C   UNL     1       2.403   6.836  19.402  0.00  0.00    +0.000 A 
ATOM      7  C   UNL     1       3.059   7.694  18.377  0.00  0.00    +0.000 C 
ATOM      8  C   UNL     1       3.406   6.848  17.119  0.00  0.00    +0.000 C 
ATOM      9  N   UNL     1       3.907   5.481  17.403  0.00  0.00    +0.000 N 
ATOM     10  C   UNL     1       3.097   4.661  18.337  0.00  0.00    +0.000 C 
ENDROOT
BRANCH   9  11
ATOM     11  C   UNL     1       5.252   5.137  17.298  0.00  0.00    +0.000 A 
ATOM     12  C   UNL     1       5.738   4.653  16.071  0.00  0.00    +0.000 A 
ATOM     13  C   UNL     1       7.070   4.283  15.943  0.00  0.00    +0.000 A 
ATOM     14  N   UNL     1       7.964   4.354  16.947  0.00  0.00    +0.000 NA
ATOM     15  C   UNL     1       7.493   4.825  18.125  0.00  0.00    +0.000 A 
ATOM     16  C   UNL     1       6.181   5.229  18.338  0.00  0.00    +0.000 A 
ATOM     17  F   UNL     1       5.826   5.653  19.561  0.00  0.00    +0.000 F 
ENDBRANCH   9  11
BRANCH   4  18
ATOM     18  C   UNL     1       1.551   3.665  20.989  0.00  0.00    +0.000 C 
ATOM     19  N   UNL     1       0.630   2.961  20.267  0.00  0.00    +0.000 N 
ATOM     20  O   UNL     1       2.146   3.149  21.929  0.00  0.00    +0.000 OA
ATOM     21  H   UNL     1       0.133   3.426  19.521  0.00  0.00    +0.000 HD
ATOM     22  H   UNL     1       0.416   2.015  20.541  0.00  0.00    +0.000 HD
ENDBRANCH   4  18
TORSDOF 2
ENDMDL
MODEL 5
REMARK VINA RESULT:      -7.1      2.942      6.008
REMARK  Name = 
REMARK  3 active torsions:
REMARK  status: ('A' for Active; 'I' for Inactive)
REMARK    1  A    between atoms: C_1  and  N_2
REMARK    2  A    between atoms: C_4  and  C_5
REMARK    3  A    between atoms: N_12  and  C_13
REMARK                            x       y       z     vdW  Elec       q    Type
REMARK                         _______ _______ _______ _____ _____    ______ ____
ROOT
ATOM      1  C   UNL     1       1.465   8.628  20.906  0.00  0.00    +0.000 C 
ATOM      2  N   UNL     1       1.748   7.280  20.470  0.00  0.00    +0.000 N 
ATOM      3  N   UNL     1       1.331   6.224  21.214  0.00  0.00    +0.000 NA
ATOM      4  C   UNL     1       1.749   5.139  20.521  0.00  0.00    +0.000 A 
ATOM      5  C   UNL     1       2.417   5.531  19.341  0.00  0.00    +0.000 A 
ATOM      6  C   UNL     1       2.408   6.904  19.340  0.00  0.00    +0.000 A 
ATOM      7  C   UNL     1       3.061   7.747  18.300  0.00  0.00    +0.000 C 
ATOM      8  C   UNL     1       3.378   6.888  17.042  0.00  0.00    +0.000 C 
ATOM      9  N   UNL     1       3.866   5.517  17.329  0.00  0.00    +0.000 N 
ATOM     10  C   UNL     1       3.058   4.713  18.280  0.00  0.00    +0.000 C 
ENDROOT
BRANCH   9  11
ATOM     11  C   UNL     1       5.204   5.154  17.207  0.00  0.00    +0.000 A 
ATOM     12  C   UNL     1       6.053   5.296  18.318  0.00  0.00    +0.000 A 
ATOM     13  C   UNL     1       7.397   4.961  18.220  0.00  0.00    +0.000 A 
ATOM     14  N   UNL     1       7.969   4.495  17.094  0.00  0.00    +0.000 NA
ATOM     15  C   UNL     1       7.147   4.356  16.027  0.00  0.00    +0.000 A 
ATOM     16  C   UNL     1       5.790   4.654  16.041  0.00  0.00    +0.000 A 
ATOM     17  F   UNL     1       5.083   4.500  14.911  0.00  0.00    +0.000 F 
ENDBRANCH   9  11
BRANCH   4  18
ATOM     18  C   UNL     1       1.538   3.755  20.961  0.00  0.00    +0.000 C 
ATOM     19  N   UNL     1       0.580   3.066  20.273  0.00  0.00    +0.000 N 
ATOM     20  O   UNL     1       2.155   3.231  21.882  0.00  0.00    +0.000 OA
ATOM     21  H   UNL     1       0.067   3.539  19.543  0.00  0.00    +0.000 HD
ATOM     22  H   UNL     1       0.357   2.126  20.558  0.00  0.00    +0.000 HD
ENDBRANCH   4  18
TORSDOF 2
ENDMDL
MODEL 6
REMARK VINA RESULT:      -6.9      2.533      5.777
REMARK  Name = 
REMARK  3 active torsions:
REMARK  status: ('A' for Active; 'I' for Inactive)
REMARK    1  A    between atoms: C_1  and  N_2
REMARK    2  A    between atoms: C_4  and  C_5
REMARK    3  A    between atoms: N_12  and  C_13
REMARK                            x       y       z     vdW  Elec       q    Type
REMARK                         _______ _______ _______ _____ _____    ______ ____
ROOT
ATOM      1  C   UNL     1       0.902   2.749  20.631  0.00  0.00    +0.000 C 
ATOM      2  N   UNL     1       1.669   3.937  20.338  0.00  0.00    +0.000 N 
ATOM      3  N   UNL     1       1.123   5.164  20.537  0.00  0.00    +0.000 NA
ATOM      4  C   UNL     1       2.100   6.029  20.178  0.00  0.00    +0.000 A 
ATOM      5  C   UNL     1       3.254   5.330  19.765  0.00  0.00    +0.000 A 
ATOM      6  C   UNL     1       2.946   3.996  19.870  0.00  0.00    +0.000 A 
ATOM      7  C   UNL     1       3.863   2.890  19.479  0.00  0.00    +0.000 C 
ATOM      8  C   UNL     1       5.316   3.428  19.336  0.00  0.00    +0.000 C 
ATOM      9  N   UNL     1       5.427   4.768  18.710  0.00  0.00    +0.000 N 
ATOM     10  C   UNL     1       4.562   5.835  19.273  0.00  0.00    +0.000 C 
ENDROOT
BRANCH   9  11
ATOM     11  C   UNL     1       5.843   4.951  17.395  0.00  0.00    +0.000 A 
ATOM     12  C   UNL     1       4.928   5.451  16.453  0.00  0.00    +0.000 A 
ATOM     13  C   UNL     1       5.309   5.625  15.129  0.00  0.00    +0.000 A 
ATOM     14  N   UNL     1       6.538   5.334  14.663  0.00  0.00    +0.000 NA
ATOM     15  C   UNL     1       7.418   4.856  15.574  0.00  0.00    +0.000 A 
ATOM     16  C   UNL     1       7.125   4.664  16.918  0.00  0.00    +0.000 A 
ATOM     17  F   UNL     1       8.075   4.157  17.720  0.00  0.00    +0.000 F 
ENDBRANCH   9  11
BRANCH   4  18
ATOM     18  C   UNL     1       1.953   7.489  20.208  0.00  0.00    +0.000 C 
ATOM     19  N   UNL     1       1.805   8.033  21.451  0.00  0.00    +0.000 N 
ATOM     20  O   UNL     1       1.950   8.194  19.205  0.00  0.00    +0.000 OA
ATOM     21  H   UNL     1       1.777   7.419  22.254  0.00  0.00    +0.000 HD
ATOM     22  H   UNL     1       1.654   9.025  21.534  0.00  0.00    +0.000 HD
ENDBRANCH   4  18
TORSDOF 2
ENDMDL
MODEL 7
REMARK VINA RESULT:      -6.9      2.621      3.720
REMARK  Name = 
REMARK  3 active torsions:
REMARK  status: ('A' for Active; 'I' for Inactive)
REMARK    1  A    between atoms: C_1  and  N_2
REMARK    2  A    between atoms: C_4  and  C_5
REMARK    3  A    between atoms: N_12  and  C_13
REMARK                            x       y       z     vdW  Elec       q    Type
REMARK                         _______ _______ _______ _____ _____    ______ ____
ROOT
ATOM      1  C   UNL     1       7.932   7.796  17.972  0.00  0.00    +0.000 C 
ATOM      2  N   UNL     1       7.360   6.658  17.291  0.00  0.00    +0.000 N 
ATOM      3  N   UNL     1       7.573   6.485  15.962  0.00  0.00    +0.000 NA
ATOM      4  C   UNL     1       6.915   5.340  15.663  0.00  0.00    +0.000 A 
ATOM      5  C   UNL     1       6.303   4.804  16.815  0.00  0.00    +0.000 A 
ATOM      6  C   UNL     1       6.598   5.671  17.838  0.00  0.00    +0.000 A 
ATOM      7  C   UNL     1       6.100   5.523  19.234  0.00  0.00    +0.000 C 
ATOM      8  C   UNL     1       5.569   4.078  19.458  0.00  0.00    +0.000 C 
ATOM      9  N   UNL     1       4.817   3.505  18.315  0.00  0.00    +0.000 N 
ATOM     10  C   UNL     1       5.471   3.585  16.986  0.00  0.00    +0.000 C 
ENDROOT
BRANCH   9  11
ATOM     11  C   UNL     1       3.429   3.398  18.307  0.00  0.00    +0.000 A 
ATOM     12  C   UNL     1       2.835   2.189  18.709  0.00  0.00    +0.000 A 
ATOM     13  C   UNL     1       1.454   2.048  18.693  0.00  0.00    +0.000 A 
ATOM     14  N   UNL     1       0.609   3.020  18.300  0.00  0.00    +0.000 NA
ATOM     15  C   UNL     1       1.184   4.184  17.917  0.00  0.00    +0.000 A 
ATOM     16  C   UNL     1       2.554   4.416  17.915  0.00  0.00    +0.000 A 
ATOM     17  F   UNL     1       3.008   5.604  17.487  0.00  0.00    +0.000 F 
ENDBRANCH   9  11
BRANCH   4  18
ATOM     18  C   UNL     1       6.848   4.763  14.315  0.00  0.00    +0.000 C 
ATOM     19  N   UNL     1       7.698   5.318  13.402  0.00  0.00    +0.000 N 
ATOM     20  O   UNL     1       6.088   3.853  14.000  0.00  0.00    +0.000 OA
ATOM     21  H   UNL     1       8.285   6.090  13.686  0.00  0.00    +0.000 HD
ATOM     22  H   UNL     1       7.666   4.996  12.448  0.00  0.00    +0.000 HD
ENDBRANCH   4  18
TORSDOF 2
ENDMDL
MODEL 8
REMARK VINA RESULT:      -6.8      2.398      5.805
REMARK  Name = 
REMARK  3 active torsions:
REMARK  status: ('A' for Active; 'I' for Inactive)
REMARK    1  A    between atoms: C_1  and  N_2
REMARK    2  A    between atoms: C_4  and  C_5
REMARK    3  A    between atoms: N_12  and  C_13
REMARK                            x       y       z     vdW  Elec       q    Type
REMARK                         _______ _______ _______ _____ _____    ______ ____
ROOT
ATOM      1  C   UNL     1       1.107   2.796  21.143  0.00  0.00    +0.000 C 
ATOM      2  N   UNL     1       1.831   3.933  20.624  0.00  0.00    +0.000 N 
ATOM      3  N   UNL     1       1.281   5.173  20.683  0.00  0.00    +0.000 NA
ATOM      4  C   UNL     1       2.215   5.980  20.128  0.00  0.00    +0.000 A 
ATOM      5  C   UNL     1       3.346   5.235  19.735  0.00  0.00    +0.000 A 
ATOM      6  C   UNL     1       3.068   3.929  20.056  0.00  0.00    +0.000 A 
ATOM      7  C   UNL     1       3.971   2.782  19.761  0.00  0.00    +0.000 C 
ATOM      8  C   UNL     1       5.400   3.301  19.432  0.00  0.00    +0.000 C 
ATOM      9  N   UNL     1       5.442   4.535  18.611  0.00  0.00    +0.000 N 
ATOM     10  C   UNL     1       4.605   5.668  19.076  0.00  0.00    +0.000 C 
ENDROOT
BRANCH   9  11
ATOM     11  C   UNL     1       5.756   4.525  17.255  0.00  0.00    +0.000 A 
ATOM     12  C   UNL     1       7.045   4.914  16.851  0.00  0.00    +0.000 A 
ATOM     13  C   UNL     1       7.381   4.932  15.504  0.00  0.00    +0.000 A 
ATOM     14  N   UNL     1       6.528   4.596  14.518  0.00  0.00    +0.000 NA
ATOM     15  C   UNL     1       5.289   4.219  14.911  0.00  0.00    +0.000 A 
ATOM     16  C   UNL     1       4.873   4.159  16.236  0.00  0.00    +0.000 A 
ATOM     17  F   UNL     1       3.608   3.795  16.500  0.00  0.00    +0.000 F 
ENDBRANCH   9  11
BRANCH   4  18
ATOM     18  C   UNL     1       2.047   7.428  19.957  0.00  0.00    +0.000 C 
ATOM     19  N   UNL     1       1.751   8.118  21.097  0.00  0.00    +0.000 N 
ATOM     20  O   UNL     1       2.149   8.003  18.878  0.00  0.00    +0.000 OA
ATOM     21  H   UNL     1       1.639   7.609  21.963  0.00  0.00    +0.000 HD
ATOM     22  H   UNL     1       1.578   9.109  21.036  0.00  0.00    +0.000 HD
ENDBRANCH   4  18
TORSDOF 2
ENDMDL
MODEL 9
REMARK VINA RESULT:      -6.8      3.146      4.363
REMARK  Name = 
REMARK  3 active torsions:
REMARK  status: ('A' for Active; 'I' for Inactive)
REMARK    1  A    between atoms: C_1  and  N_2
REMARK    2  A    between atoms: C_4  and  C_5
REMARK    3  A    between atoms: N_12  and  C_13
REMARK                            x       y       z     vdW  Elec       q    Type
REMARK                         _______ _______ _______ _____ _____    ______ ____
ROOT
ATOM      1  C   UNL     1       4.240   2.108  19.864  0.00  0.00    +0.000 C 
ATOM      2  N   UNL     1       4.613   3.418  19.384  0.00  0.00    +0.000 N 
ATOM      3  N   UNL     1       5.914   3.804  19.405  0.00  0.00    +0.000 NA
ATOM      4  C   UNL     1       5.902   5.054  18.887  0.00  0.00    +0.000 A 
ATOM      5  C   UNL     1       4.589   5.434  18.538  0.00  0.00    +0.000 A 
ATOM      6  C   UNL     1       3.786   4.372  18.875  0.00  0.00    +0.000 A 
ATOM      7  C   UNL     1       2.304   4.362  18.732  0.00  0.00    +0.000 C 
ATOM      8  C   UNL     1       1.853   5.517  17.792  0.00  0.00    +0.000 C 
ATOM      9  N   UNL     1       2.594   6.790  17.967  0.00  0.00    +0.000 N 
ATOM     10  C   UNL     1       4.075   6.700  17.956  0.00  0.00    +0.000 C 
ENDROOT
BRANCH   9  11
ATOM     11  C   UNL     1       2.053   7.889  18.628  0.00  0.00    +0.000 A 
ATOM     12  C   UNL     1       1.849   9.082  17.914  0.00  0.00    +0.000 A 
ATOM     13  C   UNL     1       1.330  10.200  18.553  0.00  0.00    +0.000 A 
ATOM     14  N   UNL     1       0.998  10.227  19.858  0.00  0.00    +0.000 NA
ATOM     15  C   UNL     1       1.193   9.075  20.541  0.00  0.00    +0.000 A 
ATOM     16  C   UNL     1       1.694   7.907  19.979  0.00  0.00    +0.000 A 
ATOM     17  F   UNL     1       1.869   6.834  20.766  0.00  0.00    +0.000 F 
ENDBRANCH   9  11
BRANCH   4  18
ATOM     18  C   UNL     1       7.100   5.887  18.731  0.00  0.00    +0.000 C 
ATOM     19  N   UNL     1       8.047   5.731  19.703  0.00  0.00    +0.000 N 
ATOM     20  O   UNL     1       7.263   6.682  17.812  0.00  0.00    +0.000 OA
ATOM     21  H   UNL     1       7.865   5.094  20.466  0.00  0.00    +0.000 HD
ATOM     22  H   UNL     1       8.871   6.309  19.677  0.00  0.00    +0.000 HD
ENDBRANCH   4  18
TORSDOF 2
ENDMDL
