MODEL 1
REMARK VINA RESULT:      -7.3      0.000      0.000
REMARK  Name = 
REMARK  17 active torsions:
REMARK  status: ('A' for Active; 'I' for Inactive)
REMARK    1  A    between atoms: C_1  and  O_2
REMARK    2  A    between atoms: O_2  and  C_3
REMARK    3  A    between atoms: C_3  and  C_4
REMARK    4  A    between atoms: C_4  and  N_5
REMARK    5  A    between atoms: N_5  and  C_18
REMARK    6  A    between atoms: C_6  and  C_8
REMARK    7  A    between atoms: C_8  and  C_9
REMARK    8  A    between atoms: C_9  and  C_10
REMARK    9  A    between atoms: C_18  and  C_19
REMARK   10  A    between atoms: C_18  and  C_27
REMARK   11  A    between atoms: N_21  and  C_22
REMARK   12  A    between atoms: C_22  and  C_23
REMARK   13  A    between atoms: C_23  and  C_24
REMARK   14  A    between atoms: C_24  and  C_25
REMARK   15  A    between atoms: C_24  and  C_26
REMARK   16  A    between atoms: C_30  and  O_31
REMARK   17  A    between atoms: O_31  and  C_32
REMARK                            x       y       z     vdW  Elec       q    Type
REMARK                         _______ _______ _______ _____ _____    ______ ____
ROOT
ATOM      1  N   UNL     1       5.581   5.815  16.953  0.00  0.00    +0.000 N 
ATOM      2  C   UNL     1       6.411   6.315  17.970  0.00  0.00    +0.000 C 
ATOM      3  O   UNL     1       6.090   6.268  19.159  0.00  0.00    +0.000 OA
ENDROOT
BRANCH   1   4
ATOM      4  C   UNL     1       5.911   5.925  15.501  0.00  0.00    +0.000 C 
BRANCH   4   5
ATOM      5  C   UNL     1       6.853   4.883  14.861  0.00  0.00    +0.000 C 
BRANCH   5   7
ATOM      6  C   UNL     1       7.836   5.244  12.769  0.00  0.00    +0.000 C 
ATOM      7  O   UNL     1       7.975   5.455  14.176  0.00  0.00    +0.000 OA
ENDBRANCH   5   7
ENDBRANCH   4   5
ENDBRANCH   1   4
BRANCH   2   8
ATOM      8  C   UNL     1       7.710   7.014  17.578  0.00  0.00    +0.000 C 
BRANCH   8   9
ATOM      9  C   UNL     1       7.570   8.528  17.310  0.00  0.00    +0.000 C 
BRANCH   9  10
ATOM     10  C   UNL     1       8.492   9.260  18.276  0.00  0.00    +0.000 C 
ATOM     11  O   UNL     1       8.996   8.662  19.226  0.00  0.00    +0.000 OA
ATOM     12  N   UNL     1       8.650  10.600  18.002  0.00  0.00    +0.000 N 
ATOM     13  C   UNL     1       9.439  11.370  18.818  0.00  0.00    +0.000 A 
ATOM     14  N   UNL     1      10.339  10.982  19.686  0.00  0.00    +0.000 NA
ATOM     15  C   UNL     1      10.829  12.074  20.367  0.00  0.00    +0.000 A 
ATOM     16  C   UNL     1      10.286  13.287  20.002  0.00  0.00    +0.000 A 
ATOM     17  S   UNL     1       9.180  13.054  18.704  0.00  0.00    +0.000 S 
ATOM     18  H   UNL     1       8.063  11.076  17.336  0.00  0.00    +0.000 HD
ENDBRANCH   9  10
ENDBRANCH   8   9
ENDBRANCH   2   8
BRANCH   1  19
ATOM     19  C   UNL     1       4.257   5.272  17.344  0.00  0.00    +0.000 C 
BRANCH  19  20
ATOM     20  C   UNL     1       3.309   6.228  18.059  0.00  0.00    +0.000 A 
ATOM     21  C   UNL     1       2.935   7.463  17.522  0.00  0.00    +0.000 A 
ATOM     22  C   UNL     1       2.249   8.390  18.309  0.00  0.00    +0.000 A 
ATOM     23  C   UNL     1       1.860   8.069  19.607  0.00  0.00    +0.000 A 
ATOM     24  C   UNL     1       2.144   6.809  20.120  0.00  0.00    +0.000 A 
ATOM     25  C   UNL     1       2.844   5.889  19.344  0.00  0.00    +0.000 A 
BRANCH  23  26
ATOM     26  O   UNL     1       1.252   9.081  20.316  0.00  0.00    +0.000 OA
ATOM     27  C   UNL     1       0.883  10.209  19.556  0.00  0.00    +0.000 C 
ENDBRANCH  23  26
ENDBRANCH  19  20
BRANCH  19  28
ATOM     28  C   UNL     1       4.345   3.880  18.049  0.00  0.00    +0.000 C 
ATOM     29  O   UNL     1       5.269   3.612  18.823  0.00  0.00    +0.000 OA
ATOM     30  N   UNL     1       3.342   2.977  17.763  0.00  0.00    +0.000 N 
ATOM     31  H   UNL     1       2.468   3.373  17.413  0.00  0.00    +0.000 HD
BRANCH  30  32
ATOM     32  C   UNL     1       3.358   1.673  18.384  0.00  0.00    +0.000 C 
BRANCH  32  33
ATOM     33  C   UNL     1       2.282   1.496  19.451  0.00  0.00    +0.000 C 
BRANCH  33  34
ATOM     34  C   UNL     1       1.884   2.800  20.167  0.00  0.00    +0.000 C 
ATOM     35  C   UNL     1       0.449   3.227  19.854  0.00  0.00    +0.000 C 
ATOM     36  C   UNL     1       2.058   2.636  21.678  0.00  0.00    +0.000 C 
ENDBRANCH  33  34
ENDBRANCH  32  33
ENDBRANCH  30  32
ENDBRANCH  19  28
ENDBRANCH   1  19
TORSDOF 13
ENDMDL
MODEL 2
REMARK VINA RESULT:      -7.1      1.289      1.551
REMARK  Name = 
REMARK  17 active torsions:
REMARK  status: ('A' for Active; 'I' for Inactive)
REMARK    1  A    between atoms: C_1  and  O_2
REMARK    2  A    between atoms: O_2  and  C_3
REMARK    3  A    between atoms: C_3  and  C_4
REMARK    4  A    between atoms: C_4  and  N_5
REMARK    5  A    between atoms: N_5  and  C_18
REMARK    6  A    between atoms: C_6  and  C_8
REMARK    7  A    between atoms: C_8  and  C_9
REMARK    8  A    between atoms: C_9  and  C_10
REMARK    9  A    between atoms: C_18  and  C_19
REMARK   10  A    between atoms: C_18  and  C_27
REMARK   11  A    between atoms: N_21  and  C_22
REMARK   12  A    between atoms: C_22  and  C_23
REMARK   13  A    between atoms: C_23  and  C_24
REMARK   14  A    between atoms: C_24  and  C_25
REMARK   15  A    between atoms: C_24  and  C_26
REMARK   16  A    between atoms: C_30  and  O_31
REMARK   17  A    between atoms: O_31  and  C_32
REMARK                            x       y       z     vdW  Elec       q    Type
REMARK                         _______ _______ _______ _____ _____    ______ ____
ROOT
ATOM      1  N   UNL     1       5.321   5.554  16.720  0.00  0.00    +0.000 N 
ATOM      2  C   UNL     1       6.125   5.769  17.850  0.00  0.00    +0.000 C 
ATOM      3  O   UNL     1       5.683   5.677  18.997  0.00  0.00    +0.000 OA
ENDROOT
BRANCH   1   4
ATOM      4  C   UNL     1       5.812   5.730  15.321  0.00  0.00    +0.000 C 
BRANCH   4   5
ATOM      5  C   UNL     1       6.961   4.835  14.807  0.00  0.00    +0.000 C 
BRANCH   5   7
ATOM      6  C   UNL     1       5.236   3.925  13.515  0.00  0.00    +0.000 C 
ATOM      7  O   UNL     1       6.519   3.673  14.094  0.00  0.00    +0.000 OA
ENDBRANCH   5   7
ENDBRANCH   4   5
ENDBRANCH   1   4
BRANCH   2   8
ATOM      8  C   UNL     1       7.572   6.214  17.647  0.00  0.00    +0.000 C 
BRANCH   8   9
ATOM      9  C   UNL     1       8.152   7.058  18.801  0.00  0.00    +0.000 C 
BRANCH   9  10
ATOM     10  C   UNL     1       8.305   8.489  18.301  0.00  0.00    +0.000 C 
ATOM     11  O   UNL     1       7.826   8.822  17.217  0.00  0.00    +0.000 OA
ATOM     12  N   UNL     1       9.037   9.305  19.133  0.00  0.00    +0.000 N 
ATOM     13  C   UNL     1       9.263  10.610  18.777  0.00  0.00    +0.000 A 
ATOM     14  N   UNL     1       8.638  11.332  17.881  0.00  0.00    +0.000 NA
ATOM     15  C   UNL     1       9.246  12.561  17.767  0.00  0.00    +0.000 A 
ATOM     16  C   UNL     1      10.337  12.755  18.586  0.00  0.00    +0.000 A 
ATOM     17  S   UNL     1      10.556  11.374  19.590  0.00  0.00    +0.000 S 
ATOM     18  H   UNL     1       9.569   8.933  19.904  0.00  0.00    +0.000 HD
ENDBRANCH   9  10
ENDBRANCH   8   9
ENDBRANCH   2   8
BRANCH   1  19
ATOM     19  C   UNL     1       3.882   5.266  16.938  0.00  0.00    +0.000 C 
BRANCH  19  20
ATOM     20  C   UNL     1       3.106   6.263  17.792  0.00  0.00    +0.000 A 
ATOM     21  C   UNL     1       2.930   7.599  17.418  0.00  0.00    +0.000 A 
ATOM     22  C   UNL     1       2.409   8.518  18.331  0.00  0.00    +0.000 A 
ATOM     23  C   UNL     1       1.985   8.103  19.592  0.00  0.00    +0.000 A 
ATOM     24  C   UNL     1       2.069   6.760  19.941  0.00  0.00    +0.000 A 
ATOM     25  C   UNL     1       2.605   5.845  19.039  0.00  0.00    +0.000 A 
BRANCH  23  26
ATOM     26  O   UNL     1       1.555   9.103  20.436  0.00  0.00    +0.000 OA
ATOM     27  C   UNL     1       1.275   8.696  21.755  0.00  0.00    +0.000 C 
ENDBRANCH  23  26
ENDBRANCH  19  20
BRANCH  19  28
ATOM     28  C   UNL     1       3.605   3.785  17.353  0.00  0.00    +0.000 C 
ATOM     29  O   UNL     1       4.514   2.950  17.392  0.00  0.00    +0.000 OA
ATOM     30  N   UNL     1       2.302   3.464  17.671  0.00  0.00    +0.000 N 
ATOM     31  H   UNL     1       1.703   4.244  17.947  0.00  0.00    +0.000 HD
BRANCH  30  32
ATOM     32  C   UNL     1       1.975   2.115  18.068  0.00  0.00    +0.000 C 
BRANCH  32  33
ATOM     33  C   UNL     1       1.735   1.965  19.567  0.00  0.00    +0.000 C 
BRANCH  33  34
ATOM     34  C   UNL     1       2.616   2.877  20.441  0.00  0.00    +0.000 C 
ATOM     35  C   UNL     1       1.943   3.253  21.762  0.00  0.00    +0.000 C 
ATOM     36  C   UNL     1       3.956   2.194  20.718  0.00  0.00    +0.000 C 
ENDBRANCH  33  34
ENDBRANCH  32  33
ENDBRANCH  30  32
ENDBRANCH  19  28
ENDBRANCH   1  19
TORSDOF 13
ENDMDL
MODEL 3
REMARK VINA RESULT:      -7.0      0.960      1.283
REMARK  Name = 
REMARK  17 active torsions:
REMARK  status: ('A' for Active; 'I' for Inactive)
REMARK    1  A    between atoms: C_1  and  O_2
REMARK    2  A    between atoms: O_2  and  C_3
REMARK    3  A    between atoms: C_3  and  C_4
REMARK    4  A    between atoms: C_4  and  N_5
REMARK    5  A    between atoms: N_5  and  C_18
REMARK    6  A    between atoms: C_6  and  C_8
REMARK    7  A    between atoms: C_8  and  C_9
REMARK    8  A    between atoms: C_9  and  C_10
REMARK    9  A    between atoms: C_18  and  C_19
REMARK   10  A    between atoms: C_18  and  C_27
REMARK   11  A    between atoms: N_21  and  C_22
REMARK   12  A    between atoms: C_22  and  C_23
REMARK   13  A    between atoms: C_23  and  C_24
REMARK   14  A    between atoms: C_24  and  C_25
REMARK   15  A    between atoms: C_24  and  C_26
REMARK   16  A    between atoms: C_30  and  O_31
REMARK   17  A    between atoms: O_31  and  C_32
REMARK                            x       y       z     vdW  Elec       q    Type
REMARK                         _______ _______ _______ _____ _____    ______ ____
ROOT
ATOM      1  N   UNL     1       5.327   5.694  16.956  0.00  0.00    +0.000 N 
ATOM      2  C   UNL     1       6.238   6.080  17.952  0.00  0.00    +0.000 C 
ATOM      3  O   UNL     1       5.937   6.085  19.148  0.00  0.00    +0.000 OA
ENDROOT
BRANCH   1   4
ATOM      4  C   UNL     1       5.641   5.749  15.497  0.00  0.00    +0.000 C 
BRANCH   4   5
ATOM      5  C   UNL     1       5.287   4.541  14.603  0.00  0.00    +0.000 C 
BRANCH   5   7
ATOM      6  C   UNL     1       7.472   4.947  13.873  0.00  0.00    +0.000 C 
ATOM      7  O   UNL     1       6.405   3.995  13.892  0.00  0.00    +0.000 OA
ENDBRANCH   5   7
ENDBRANCH   4   5
ENDBRANCH   1   4
BRANCH   2   8
ATOM      8  C   UNL     1       7.613   6.591  17.531  0.00  0.00    +0.000 C 
BRANCH   8   9
ATOM      9  C   UNL     1       7.640   8.068  17.082  0.00  0.00    +0.000 C 
BRANCH   9  10
ATOM     10  C   UNL     1       8.420   8.858  18.125  0.00  0.00    +0.000 C 
ATOM     11  O   UNL     1       8.798   8.313  19.162  0.00  0.00    +0.000 OA
ATOM     12  N   UNL     1       8.603  10.185  17.810  0.00  0.00    +0.000 N 
ATOM     13  C   UNL     1       9.271  11.004  18.685  0.00  0.00    +0.000 A 
ATOM     14  N   UNL     1      10.050  10.671  19.682  0.00  0.00    +0.000 NA
ATOM     15  C   UNL     1      10.436  11.800  20.368  0.00  0.00    +0.000 A 
ATOM     16  C   UNL     1       9.938  12.987  19.875  0.00  0.00    +0.000 A 
ATOM     17  S   UNL     1       9.016  12.677  18.455  0.00  0.00    +0.000 S 
ATOM     18  H   UNL     1       8.107  10.622  17.049  0.00  0.00    +0.000 HD
ENDBRANCH   9  10
ENDBRANCH   8   9
ENDBRANCH   2   8
BRANCH   1  19
ATOM     19  C   UNL     1       3.949   5.341  17.375  0.00  0.00    +0.000 C 
BRANCH  19  20
ATOM     20  C   UNL     1       3.231   6.339  18.277  0.00  0.00    +0.000 A 
ATOM     21  C   UNL     1       2.777   6.008  19.558  0.00  0.00    +0.000 A 
ATOM     22  C   UNL     1       1.937   6.882  20.250  0.00  0.00    +0.000 A 
ATOM     23  C   UNL     1       1.606   8.123  19.712  0.00  0.00    +0.000 A 
ATOM     24  C   UNL     1       2.127   8.502  18.480  0.00  0.00    +0.000 A 
ATOM     25  C   UNL     1       2.950   7.625  17.779  0.00  0.00    +0.000 A 
BRANCH  23  26
ATOM     26  O   UNL     1       0.715   8.874  20.447  0.00  0.00    +0.000 OA
ATOM     27  C   UNL     1       0.214  10.019  19.795  0.00  0.00    +0.000 C 
ENDBRANCH  23  26
ENDBRANCH  19  20
BRANCH  19  28
ATOM     28  C   UNL     1       3.818   3.871  17.890  0.00  0.00    +0.000 C 
ATOM     29  O   UNL     1       3.193   3.021  17.250  0.00  0.00    +0.000 OA
ATOM     30  N   UNL     1       4.436   3.578  19.089  0.00  0.00    +0.000 N 
ATOM     31  H   UNL     1       5.193   4.204  19.368  0.00  0.00    +0.000 HD
BRANCH  30  32
ATOM     32  C   UNL     1       4.361   2.238  19.621  0.00  0.00    +0.000 C 
BRANCH  32  33
ATOM     33  C   UNL     1       3.419   2.112  20.815  0.00  0.00    +0.000 C 
BRANCH  33  34
ATOM     34  C   UNL     1       2.036   2.752  20.598  0.00  0.00    +0.000 C 
ATOM     35  C   UNL     1       1.193   1.995  19.570  0.00  0.00    +0.000 C 
ATOM     36  C   UNL     1       1.285   2.830  21.928  0.00  0.00    +0.000 C 
ENDBRANCH  33  34
ENDBRANCH  32  33
ENDBRANCH  30  32
ENDBRANCH  19  28
ENDBRANCH   1  19
TORSDOF 13
ENDMDL
MODEL 4
REMARK VINA RESULT:      -7.0      4.941      9.227
REMARK  Name = 
REMARK  17 active torsions:
REMARK  status: ('A' for Active; 'I' for Inactive)
REMARK    1  A    between atoms: C_1  and  O_2
REMARK    2  A    between atoms: O_2  and  C_3
REMARK    3  A    between atoms: C_3  and  C_4
REMARK    4  A    between atoms: C_4  and  N_5
REMARK    5  A    between atoms: N_5  and  C_18
REMARK    6  A    between atoms: C_6  and  C_8
REMARK    7  A    between atoms: C_8  and  C_9
REMARK    8  A    between atoms: C_9  and  C_10
REMARK    9  A    between atoms: C_18  and  C_19
REMARK   10  A    between atoms: C_18  and  C_27
REMARK   11  A    between atoms: N_21  and  C_22
REMARK   12  A    between atoms: C_22  and  C_23
REMARK   13  A    between atoms: C_23  and  C_24
REMARK   14  A    between atoms: C_24  and  C_25
REMARK   15  A    between atoms: C_24  and  C_26
REMARK   16  A    between atoms: C_30  and  O_31
REMARK   17  A    between atoms: O_31  and  C_32
REMARK                            x       y       z     vdW  Elec       q    Type
REMARK                         _______ _______ _______ _____ _____    ______ ____
ROOT
ATOM      1  N   UNL     1       0.747  10.130  19.474  0.00  0.00    +0.000 N 
ATOM      2  C   UNL     1       1.620   9.545  18.544  0.00  0.00    +0.000 C 
ATOM      3  O   UNL     1       1.891  10.085  17.470  0.00  0.00    +0.000 OA
ENDROOT
BRANCH   1   4
ATOM      4  C   UNL     1       0.345   9.465  20.749  0.00  0.00    +0.000 C 
BRANCH   4   5
ATOM      5  C   UNL     1       1.320   9.474  21.946  0.00  0.00    +0.000 C 
BRANCH   5   7
ATOM      6  C   UNL     1      -0.670   9.774  23.139  0.00  0.00    +0.000 C 
ATOM      7  O   UNL     1       0.746   9.973  23.161  0.00  0.00    +0.000 OA
ENDBRANCH   5   7
ENDBRANCH   4   5
ENDBRANCH   1   4
BRANCH   2   8
ATOM      8  C   UNL     1       2.182   8.156  18.839  0.00  0.00    +0.000 C 
BRANCH   8   9
ATOM      9  C   UNL     1       3.225   7.655  17.817  0.00  0.00    +0.000 C 
BRANCH   9  10
ATOM     10  C   UNL     1       3.291   6.136  17.925  0.00  0.00    +0.000 C 
ATOM     11  O   UNL     1       4.003   5.491  17.156  0.00  0.00    +0.000 OA
ATOM     12  N   UNL     1       2.475   5.601  18.895  0.00  0.00    +0.000 N 
ATOM     13  C   UNL     1       2.430   4.242  19.070  0.00  0.00    +0.000 A 
ATOM     14  N   UNL     1       3.279   3.337  18.651  0.00  0.00    +0.000 NA
ATOM     15  C   UNL     1       2.806   2.080  18.955  0.00  0.00    +0.000 A 
ATOM     16  C   UNL     1       1.591   2.050  19.606  0.00  0.00    +0.000 A 
ATOM     17  S   UNL     1       1.066   3.660  19.915  0.00  0.00    +0.000 S 
ATOM     18  H   UNL     1       1.770   6.154  19.357  0.00  0.00    +0.000 HD
ENDBRANCH   9  10
ENDBRANCH   8   9
ENDBRANCH   2   8
BRANCH   1  19
ATOM     19  C   UNL     1       0.097  11.412  19.104  0.00  0.00    +0.000 C 
BRANCH  19  20
ATOM     20  C   UNL     1      -0.075  12.438  20.218  0.00  0.00    +0.000 A 
ATOM     21  C   UNL     1       0.967  13.263  20.652  0.00  0.00    +0.000 A 
ATOM     22  C   UNL     1       0.821  14.023  21.815  0.00  0.00    +0.000 A 
ATOM     23  C   UNL     1      -0.386  14.030  22.510  0.00  0.00    +0.000 A 
ATOM     24  C   UNL     1      -1.460  13.286  22.036  0.00  0.00    +0.000 A 
ATOM     25  C   UNL     1      -1.311  12.514  20.887  0.00  0.00    +0.000 A 
BRANCH  23  26
ATOM     26  O   UNL     1      -0.396  14.757  23.681  0.00  0.00    +0.000 OA
ATOM     27  C   UNL     1      -1.639  14.812  24.342  0.00  0.00    +0.000 C 
ENDBRANCH  23  26
ENDBRANCH  19  20
BRANCH  19  28
ATOM     28  C   UNL     1      -1.205  11.222  18.262  0.00  0.00    +0.000 C 
ATOM     29  O   UNL     1      -1.645  12.129  17.549  0.00  0.00    +0.000 OA
ATOM     30  N   UNL     1      -1.830   9.996  18.357  0.00  0.00    +0.000 N 
ATOM     31  H   UNL     1      -1.246   9.218  18.669  0.00  0.00    +0.000 HD
BRANCH  30  32
ATOM     32  C   UNL     1      -3.036   9.749  17.602  0.00  0.00    +0.000 C 
BRANCH  32  33
ATOM     33  C   UNL     1      -2.775   9.392  16.142  0.00  0.00    +0.000 C 
BRANCH  33  34
ATOM     34  C   UNL     1      -3.792   9.992  15.155  0.00  0.00    +0.000 C 
ATOM     35  C   UNL     1      -4.242  11.398  15.557  0.00  0.00    +0.000 C 
ATOM     36  C   UNL     1      -3.194  10.023  13.747  0.00  0.00    +0.000 C 
ENDBRANCH  33  34
ENDBRANCH  32  33
ENDBRANCH  30  32
ENDBRANCH  19  28
ENDBRANCH   1  19
TORSDOF 13
ENDMDL
MODEL 5
REMARK VINA RESULT:      -6.9      1.420      1.880
REMARK  Name = 
REMARK  17 active torsions:
REMARK  status: ('A' for Active; 'I' for Inactive)
REMARK    1  A    between atoms: C_1  and  O_2
REMARK    2  A    between atoms: O_2  and  C_3
REMARK    3  A    between atoms: C_3  and  C_4
REMARK    4  A    between atoms: C_4  and  N_5
REMARK    5  A    between atoms: N_5  and  C_18
REMARK    6  A    between atoms: C_6  and  C_8
REMARK    7  A    between atoms: C_8  and  C_9
REMARK    8  A    between atoms: C_9  and  C_10
REMARK    9  A    between atoms: C_18  and  C_19
REMARK   10  A    between atoms: C_18  and  C_27
REMARK   11  A    between atoms: N_21  and  C_22
REMARK   12  A    between atoms: C_22  and  C_23
REMARK   13  A    between atoms: C_23  and  C_24
REMARK   14  A    between atoms: C_24  and  C_25
REMARK   15  A    between atoms: C_24  and  C_26
REMARK   16  A    between atoms: C_30  and  O_31
REMARK   17  A    between atoms: O_31  and  C_32
REMARK                            x       y       z     vdW  Elec       q    Type
REMARK                         _______ _______ _______ _____ _____    ______ ____
ROOT
ATOM      1  N   UNL     1       4.967   5.815  16.993  0.00  0.00    +0.000 N 
ATOM      2  C   UNL     1       5.860   5.779  18.076  0.00  0.00    +0.000 C 
ATOM      3  O   UNL     1       5.471   5.677  19.242  0.00  0.00    +0.000 OA
ENDROOT
BRANCH   1   4
ATOM      4  C   UNL     1       5.406   6.011  15.580  0.00  0.00    +0.000 C 
BRANCH   4   5
ATOM      5  C   UNL     1       5.167   4.883  14.553  0.00  0.00    +0.000 C 
BRANCH   5   7
ATOM      6  C   UNL     1       6.418   3.449  13.190  0.00  0.00    +0.000 C 
ATOM      7  O   UNL     1       6.195   3.884  14.534  0.00  0.00    +0.000 OA
ENDBRANCH   5   7
ENDBRANCH   4   5
ENDBRANCH   1   4
BRANCH   2   8
ATOM      8  C   UNL     1       7.351   5.957  17.804  0.00  0.00    +0.000 C 
BRANCH   8   9
ATOM      9  C   UNL     1       8.101   6.799  18.858  0.00  0.00    +0.000 C 
BRANCH   9  10
ATOM     10  C   UNL     1       8.204   8.224  18.330  0.00  0.00    +0.000 C 
ATOM     11  O   UNL     1       7.700   8.522  17.247  0.00  0.00    +0.000 OA
ATOM     12  N   UNL     1       8.921   9.077  19.138  0.00  0.00    +0.000 N 
ATOM     13  C   UNL     1       9.102  10.382  18.755  0.00  0.00    +0.000 A 
ATOM     14  N   UNL     1       8.444  11.067  17.855  0.00  0.00    +0.000 NA
ATOM     15  C   UNL     1       9.013  12.312  17.710  0.00  0.00    +0.000 A 
ATOM     16  C   UNL     1      10.109  12.554  18.510  0.00  0.00    +0.000 A 
ATOM     17  S   UNL     1      10.382  11.199  19.535  0.00  0.00    +0.000 S 
ATOM     18  H   UNL     1       9.475   8.736  19.908  0.00  0.00    +0.000 HD
ENDBRANCH   9  10
ENDBRANCH   8   9
ENDBRANCH   2   8
BRANCH   1  19
ATOM     19  C   UNL     1       3.514   5.788  17.291  0.00  0.00    +0.000 C 
BRANCH  19  20
ATOM     20  C   UNL     1       2.967   6.934  18.135  0.00  0.00    +0.000 A 
ATOM     21  C   UNL     1       2.559   6.765  19.461  0.00  0.00    +0.000 A 
ATOM     22  C   UNL     1       1.864   7.785  20.115  0.00  0.00    +0.000 A 
ATOM     23  C   UNL     1       1.639   9.007  19.485  0.00  0.00    +0.000 A 
ATOM     24  C   UNL     1       2.122   9.219  18.199  0.00  0.00    +0.000 A 
ATOM     25  C   UNL     1       2.800   8.198  17.538  0.00  0.00    +0.000 A 
BRANCH  23  26
ATOM     26  O   UNL     1       0.883   9.914  20.194  0.00  0.00    +0.000 OA
ATOM     27  C   UNL     1       0.010  10.703  19.419  0.00  0.00    +0.000 C 
ENDBRANCH  23  26
ENDBRANCH  19  20
BRANCH  19  28
ATOM     28  C   UNL     1       3.011   4.393  17.782  0.00  0.00    +0.000 C 
ATOM     29  O   UNL     1       1.873   3.993  17.522  0.00  0.00    +0.000 OA
ATOM     30  N   UNL     1       3.902   3.637  18.517  0.00  0.00    +0.000 N 
ATOM     31  H   UNL     1       4.890   3.865  18.395  0.00  0.00    +0.000 HD
BRANCH  30  32
ATOM     32  C   UNL     1       3.506   2.335  18.999  0.00  0.00    +0.000 C 
BRANCH  32  33
ATOM     33  C   UNL     1       2.241   2.362  19.851  0.00  0.00    +0.000 C 
BRANCH  33  34
ATOM     34  C   UNL     1       2.481   2.747  21.322  0.00  0.00    +0.000 C 
ATOM     35  C   UNL     1       2.472   4.260  21.543  0.00  0.00    +0.000 C 
ATOM     36  C   UNL     1       1.424   2.087  22.210  0.00  0.00    +0.000 C 
ENDBRANCH  33  34
ENDBRANCH  32  33
ENDBRANCH  30  32
ENDBRANCH  19  28
ENDBRANCH   1  19
TORSDOF 13
ENDMDL
MODEL 6
REMARK VINA RESULT:      -6.9      1.383      1.712
REMARK  Name = 
REMARK  17 active torsions:
REMARK  status: ('A' for Active; 'I' for Inactive)
REMARK    1  A    between atoms: C_1  and  O_2
REMARK    2  A    between atoms: O_2  and  C_3
REMARK    3  A    between atoms: C_3  and  C_4
REMARK    4  A    between atoms: C_4  and  N_5
REMARK    5  A    between atoms: N_5  and  C_18
REMARK    6  A    between atoms: C_6  and  C_8
REMARK    7  A    between atoms: C_8  and  C_9
REMARK    8  A    between atoms: C_9  and  C_10
REMARK    9  A    between atoms: C_18  and  C_19
REMARK   10  A    between atoms: C_18  and  C_27
REMARK   11  A    between atoms: N_21  and  C_22
REMARK   12  A    between atoms: C_22  and  C_23
REMARK   13  A    between atoms: C_23  and  C_24
REMARK   14  A    between atoms: C_24  and  C_25
REMARK   15  A    between atoms: C_24  and  C_26
REMARK   16  A    between atoms: C_30  and  O_31
REMARK   17  A    between atoms: O_31  and  C_32
REMARK                            x       y       z     vdW  Elec       q    Type
REMARK                         _______ _______ _______ _____ _____    ______ ____
ROOT
ATOM      1  N   UNL     1       5.701   4.855  17.007  0.00  0.00    +0.000 N 
ATOM      2  C   UNL     1       6.340   5.380  18.142  0.00  0.00    +0.000 C 
ATOM      3  O   UNL     1       5.723   5.649  19.175  0.00  0.00    +0.000 OA
ENDROOT
BRANCH   1   4
ATOM      4  C   UNL     1       6.410   4.590  15.721  0.00  0.00    +0.000 C 
BRANCH   4   5
ATOM      5  C   UNL     1       5.591   4.483  14.416  0.00  0.00    +0.000 C 
BRANCH   5   7
ATOM      6  C   UNL     1       7.348   4.743  12.893  0.00  0.00    +0.000 C 
ATOM      7  O   UNL     1       6.301   3.873  13.331  0.00  0.00    +0.000 OA
ENDBRANCH   5   7
ENDBRANCH   4   5
ENDBRANCH   1   4
BRANCH   2   8
ATOM      8  C   UNL     1       7.829   5.706  18.061  0.00  0.00    +0.000 C 
BRANCH   8   9
ATOM      9  C   UNL     1       8.327   6.705  19.127  0.00  0.00    +0.000 C 
BRANCH   9  10
ATOM     10  C   UNL     1       8.336   8.092  18.498  0.00  0.00    +0.000 C 
ATOM     11  O   UNL     1       7.839   8.273  17.387  0.00  0.00    +0.000 OA
ATOM     12  N   UNL     1       8.968   9.053  19.254  0.00  0.00    +0.000 N 
ATOM     13  C   UNL     1       9.061  10.337  18.780  0.00  0.00    +0.000 A 
ATOM     14  N   UNL     1       8.375  10.904  17.820  0.00  0.00    +0.000 NA
ATOM     15  C   UNL     1       8.853  12.175  17.596  0.00  0.00    +0.000 A 
ATOM     16  C   UNL     1       9.908  12.557  18.397  0.00  0.00    +0.000 A 
ATOM     17  S   UNL     1      10.256  11.303  19.524  0.00  0.00    +0.000 S 
ATOM     18  H   UNL     1       9.526   8.811  20.058  0.00  0.00    +0.000 HD
ENDBRANCH   9  10
ENDBRANCH   8   9
ENDBRANCH   2   8
BRANCH   1  19
ATOM     19  C   UNL     1       4.228   4.683  17.058  0.00  0.00    +0.000 C 
BRANCH  19  20
ATOM     20  C   UNL     1       3.416   5.882  17.534  0.00  0.00    +0.000 A 
ATOM     21  C   UNL     1       3.639   7.179  17.065  0.00  0.00    +0.000 A 
ATOM     22  C   UNL     1       3.024   8.266  17.691  0.00  0.00    +0.000 A 
ATOM     23  C   UNL     1       2.124   8.067  18.734  0.00  0.00    +0.000 A 
ATOM     24  C   UNL     1       1.822   6.775  19.149  0.00  0.00    +0.000 A 
ATOM     25  C   UNL     1       2.447   5.690  18.538  0.00  0.00    +0.000 A 
BRANCH  23  26
ATOM     26  O   UNL     1       1.632   9.210  19.325  0.00  0.00    +0.000 OA
ATOM     27  C   UNL     1       0.989  10.109  18.451  0.00  0.00    +0.000 C 
ENDBRANCH  23  26
ENDBRANCH  19  20
BRANCH  19  28
ATOM     28  C   UNL     1       3.787   3.352  17.746  0.00  0.00    +0.000 C 
ATOM     29  O   UNL     1       2.941   2.614  17.232  0.00  0.00    +0.000 OA
ATOM     30  N   UNL     1       4.388   3.048  18.950  0.00  0.00    +0.000 N 
ATOM     31  H   UNL     1       5.287   3.499  19.128  0.00  0.00    +0.000 HD
BRANCH  30  32
ATOM     32  C   UNL     1       4.032   1.831  19.639  0.00  0.00    +0.000 C 
BRANCH  32  33
ATOM     33  C   UNL     1       3.710   2.040  21.116  0.00  0.00    +0.000 C 
BRANCH  33  34
ATOM     34  C   UNL     1       2.302   2.604  21.380  0.00  0.00    +0.000 C 
ATOM     35  C   UNL     1       2.312   4.111  21.645  0.00  0.00    +0.000 C 
ATOM     36  C   UNL     1       1.388   2.293  20.193  0.00  0.00    +0.000 C 
ENDBRANCH  33  34
ENDBRANCH  32  33
ENDBRANCH  30  32
ENDBRANCH  19  28
ENDBRANCH   1  19
TORSDOF 13
ENDMDL
MODEL 7
REMARK VINA RESULT:      -6.9      3.449      6.869
REMARK  Name = 
REMARK  17 active torsions:
REMARK  status: ('A' for Active; 'I' for Inactive)
REMARK    1  A    between atoms: C_1  and  O_2
REMARK    2  A    between atoms: O_2  and  C_3
REMARK    3  A    between atoms: C_3  and  C_4
REMARK    4  A    between atoms: C_4  and  N_5
REMARK    5  A    between atoms: N_5  and  C_18
REMARK    6  A    between atoms: C_6  and  C_8
REMARK    7  A    between atoms: C_8  and  C_9
REMARK    8  A    between atoms: C_9  and  C_10
REMARK    9  A    between atoms: C_18  and  C_19
REMARK   10  A    between atoms: C_18  and  C_27
REMARK   11  A    between atoms: N_21  and  C_22
REMARK   12  A    between atoms: C_22  and  C_23
REMARK   13  A    between atoms: C_23  and  C_24
REMARK   14  A    between atoms: C_24  and  C_25
REMARK   15  A    between atoms: C_24  and  C_26
REMARK   16  A    between atoms: C_30  and  O_31
REMARK   17  A    between atoms: O_31  and  C_32
REMARK                            x       y       z     vdW  Elec       q    Type
REMARK                         _______ _______ _______ _____ _____    ______ ____
ROOT
ATOM      1  N   UNL     1       4.224   6.494  17.247  0.00  0.00    +0.000 N 
ATOM      2  C   UNL     1       3.096   7.092  17.832  0.00  0.00    +0.000 C 
ATOM      3  O   UNL     1       2.071   6.454  18.080  0.00  0.00    +0.000 OA
ENDROOT
BRANCH   1   4
ATOM      4  C   UNL     1       5.450   7.258  16.870  0.00  0.00    +0.000 C 
BRANCH   4   5
ATOM      5  C   UNL     1       6.750   7.042  17.674  0.00  0.00    +0.000 C 
BRANCH   5   7
ATOM      6  C   UNL     1       7.962   9.041  17.774  0.00  0.00    +0.000 C 
ATOM      7  O   UNL     1       7.881   7.754  17.155  0.00  0.00    +0.000 OA
ENDBRANCH   5   7
ENDBRANCH   4   5
ENDBRANCH   1   4
BRANCH   2   8
ATOM      8  C   UNL     1       3.114   8.597  18.089  0.00  0.00    +0.000 C 
BRANCH   8   9
ATOM      9  C   UNL     1       1.860   9.348  17.594  0.00  0.00    +0.000 C 
BRANCH   9  10
ATOM     10  C   UNL     1       1.291  10.133  18.770  0.00  0.00    +0.000 C 
ATOM     11  O   UNL     1       1.478  11.347  18.853  0.00  0.00    +0.000 OA
ATOM     12  N   UNL     1       0.623   9.363  19.694  0.00  0.00    +0.000 N 
ATOM     13  C   UNL     1       0.088   9.955  20.810  0.00  0.00    +0.000 A 
ATOM     14  N   UNL     1      -0.159  11.223  21.021  0.00  0.00    +0.000 NA
ATOM     15  C   UNL     1      -0.603  11.401  22.312  0.00  0.00    +0.000 A 
ATOM     16  C   UNL     1      -0.685  10.252  23.070  0.00  0.00    +0.000 A 
ATOM     17  S   UNL     1      -0.265   8.894  22.099  0.00  0.00    +0.000 S 
ATOM     18  H   UNL     1       0.671   8.356  19.678  0.00  0.00    +0.000 HD
ENDBRANCH   9  10
ENDBRANCH   8   9
ENDBRANCH   2   8
BRANCH   1  19
ATOM     19  C   UNL     1       4.132   5.062  16.871  0.00  0.00    +0.000 C 
BRANCH  19  20
ATOM     20  C   UNL     1       3.772   4.084  17.983  0.00  0.00    +0.000 A 
ATOM     21  C   UNL     1       2.674   3.222  17.904  0.00  0.00    +0.000 A 
ATOM     22  C   UNL     1       2.260   2.511  19.033  0.00  0.00    +0.000 A 
ATOM     23  C   UNL     1       2.978   2.588  20.223  0.00  0.00    +0.000 A 
ATOM     24  C   UNL     1       4.126   3.370  20.287  0.00  0.00    +0.000 A 
ATOM     25  C   UNL     1       4.531   4.094  19.169  0.00  0.00    +0.000 A 
BRANCH  23  26
ATOM     26  O   UNL     1       2.441   1.903  21.290  0.00  0.00    +0.000 OA
ATOM     27  C   UNL     1       1.323   2.513  21.894  0.00  0.00    +0.000 C 
ENDBRANCH  23  26
ENDBRANCH  19  20
BRANCH  19  28
ATOM     28  C   UNL     1       5.344   4.571  16.015  0.00  0.00    +0.000 C 
ATOM     29  O   UNL     1       6.278   3.945  16.526  0.00  0.00    +0.000 OA
ATOM     30  N   UNL     1       5.313   4.872  14.669  0.00  0.00    +0.000 N 
ATOM     31  H   UNL     1       4.392   5.068  14.274  0.00  0.00    +0.000 HD
BRANCH  30  32
ATOM     32  C   UNL     1       6.398   4.445  13.817  0.00  0.00    +0.000 C 
BRANCH  32  33
ATOM     33  C   UNL     1       6.218   3.033  13.267  0.00  0.00    +0.000 C 
BRANCH  33  34
ATOM     34  C   UNL     1       5.911   2.980  11.760  0.00  0.00    +0.000 C 
ATOM     35  C   UNL     1       6.277   1.633  11.133  0.00  0.00    +0.000 C 
ATOM     36  C   UNL     1       4.429   3.276  11.521  0.00  0.00    +0.000 C 
ENDBRANCH  33  34
ENDBRANCH  32  33
ENDBRANCH  30  32
ENDBRANCH  19  28
ENDBRANCH   1  19
TORSDOF 13
ENDMDL
MODEL 8
REMARK VINA RESULT:      -6.9      3.074      8.117
REMARK  Name = 
REMARK  17 active torsions:
REMARK  status: ('A' for Active; 'I' for Inactive)
REMARK    1  A    between atoms: C_1  and  O_2
REMARK    2  A    between atoms: O_2  and  C_3
REMARK    3  A    between atoms: C_3  and  C_4
REMARK    4  A    between atoms: C_4  and  N_5
REMARK    5  A    between atoms: N_5  and  C_18
REMARK    6  A    between atoms: C_6  and  C_8
REMARK    7  A    between atoms: C_8  and  C_9
REMARK    8  A    between atoms: C_9  and  C_10
REMARK    9  A    between atoms: C_18  and  C_19
REMARK   10  A    between atoms: C_18  and  C_27
REMARK   11  A    between atoms: N_21  and  C_22
REMARK   12  A    between atoms: C_22  and  C_23
REMARK   13  A    between atoms: C_23  and  C_24
REMARK   14  A    between atoms: C_24  and  C_25
REMARK   15  A    between atoms: C_24  and  C_26
REMARK   16  A    between atoms: C_30  and  O_31
REMARK   17  A    between atoms: O_31  and  C_32
REMARK                            x       y       z     vdW  Elec       q    Type
REMARK                         _______ _______ _______ _____ _____    ______ ____
ROOT
ATOM      1  N   UNL     1       4.553   6.227  17.623  0.00  0.00    +0.000 N 
ATOM      2  C   UNL     1       3.416   7.042  17.508  0.00  0.00    +0.000 C 
ATOM      3  O   UNL     1       3.345   7.954  16.681  0.00  0.00    +0.000 OA
ENDROOT
BRANCH   1   4
ATOM      4  C   UNL     1       4.695   5.165  18.663  0.00  0.00    +0.000 C 
BRANCH   4   5
ATOM      5  C   UNL     1       4.261   3.721  18.329  0.00  0.00    +0.000 C 
BRANCH   5   7
ATOM      6  C   UNL     1       2.800   1.943  18.752  0.00  0.00    +0.000 C 
ATOM      7  O   UNL     1       2.984   3.357  18.868  0.00  0.00    +0.000 OA
ENDBRANCH   5   7
ENDBRANCH   4   5
ENDBRANCH   1   4
BRANCH   2   8
ATOM      8  C   UNL     1       2.269   6.845  18.495  0.00  0.00    +0.000 C 
BRANCH   8   9
ATOM      9  C   UNL     1       2.198   7.902  19.617  0.00  0.00    +0.000 C 
BRANCH   9  10
ATOM     10  C   UNL     1       1.274   9.019  19.148  0.00  0.00    +0.000 C 
ATOM     11  O   UNL     1       0.930   9.085  17.968  0.00  0.00    +0.000 OA
ATOM     12  N   UNL     1       0.926   9.917  20.132  0.00  0.00    +0.000 N 
ATOM     13  C   UNL     1       0.118  10.981  19.823  0.00  0.00    +0.000 A 
ATOM     14  N   UNL     1      -0.651  11.146  18.776  0.00  0.00    +0.000 NA
ATOM     15  C   UNL     1      -1.216  12.401  18.807  0.00  0.00    +0.000 A 
ATOM     16  C   UNL     1      -0.862  13.179  19.888  0.00  0.00    +0.000 A 
ATOM     17  S   UNL     1       0.153  12.271  20.941  0.00  0.00    +0.000 S 
ATOM     18  H   UNL     1       1.391   9.928  21.026  0.00  0.00    +0.000 HD
ENDBRANCH   9  10
ENDBRANCH   8   9
ENDBRANCH   2   8
BRANCH   1  19
ATOM     19  C   UNL     1       5.716   6.530  16.752  0.00  0.00    +0.000 C 
BRANCH  19  20
ATOM     20  C   UNL     1       6.010   5.537  15.634  0.00  0.00    +0.000 A 
ATOM     21  C   UNL     1       7.281   5.387  15.073  0.00  0.00    +0.000 A 
ATOM     22  C   UNL     1       7.449   4.631  13.910  0.00  0.00    +0.000 A 
ATOM     23  C   UNL     1       6.372   3.955  13.343  0.00  0.00    +0.000 A 
ATOM     24  C   UNL     1       5.121   4.021  13.945  0.00  0.00    +0.000 A 
ATOM     25  C   UNL     1       4.947   4.788  15.093  0.00  0.00    +0.000 A 
BRANCH  23  26
ATOM     26  O   UNL     1       6.635   3.299  12.160  0.00  0.00    +0.000 OA
ATOM     27  C   UNL     1       5.632   2.407  11.732  0.00  0.00    +0.000 C 
ENDBRANCH  23  26
ENDBRANCH  19  20
BRANCH  19  28
ATOM     28  C   UNL     1       6.999   6.924  17.552  0.00  0.00    +0.000 C 
ATOM     29  O   UNL     1       7.657   6.079  18.164  0.00  0.00    +0.000 OA
ATOM     30  N   UNL     1       7.353   8.258  17.536  0.00  0.00    +0.000 N 
ATOM     31  H   UNL     1       6.986   8.810  16.759  0.00  0.00    +0.000 HD
BRANCH  30  32
ATOM     32  C   UNL     1       8.531   8.692  18.249  0.00  0.00    +0.000 C 
BRANCH  32  33
ATOM     33  C   UNL     1       8.797  10.189  18.127  0.00  0.00    +0.000 C 
BRANCH  33  34
ATOM     34  C   UNL     1       9.912  10.708  19.052  0.00  0.00    +0.000 C 
ATOM     35  C   UNL     1      10.600  11.958  18.501  0.00  0.00    +0.000 C 
ATOM     36  C   UNL     1       9.340  11.002  20.441  0.00  0.00    +0.000 C 
ENDBRANCH  33  34
ENDBRANCH  32  33
ENDBRANCH  30  32
ENDBRANCH  19  28
ENDBRANCH   1  19
TORSDOF 13
ENDMDL
MODEL 9
REMARK VINA RESULT:      -6.8      4.605      9.637
REMARK  Name = 
REMARK  17 active torsions:
REMARK  status: ('A' for Active; 'I' for Inactive)
REMARK    1  A    between atoms: C_1  and  O_2
REMARK    2  A    between atoms: O_2  and  C_3
REMARK    3  A    between atoms: C_3  and  C_4
REMARK    4  A    between atoms: C_4  and  N_5
REMARK    5  A    between atoms: N_5  and  C_18
REMARK    6  A    between atoms: C_6  and  C_8
REMARK    7  A    between atoms: C_8  and  C_9
REMARK    8  A    between atoms: C_9  and  C_10
REMARK    9  A    between atoms: C_18  and  C_19
REMARK   10  A    between atoms: C_18  and  C_27
REMARK   11  A    between atoms: N_21  and  C_22
REMARK   12  A    between atoms: C_22  and  C_23
REMARK   13  A    between atoms: C_23  and  C_24
REMARK   14  A    between atoms: C_24  and  C_25
REMARK   15  A    between atoms: C_24  and  C_26
REMARK   16  A    between atoms: C_30  and  O_31
REMARK   17  A    between atoms: O_31  and  C_32
REMARK                            x       y       z     vdW  Elec       q    Type
REMARK                         _______ _______ _______ _____ _____    ______ ____
ROOT
ATOM      1  N   UNL     1       0.630   9.887  19.856  0.00  0.00    +0.000 N 
ATOM      2  C   UNL     1       1.417   9.446  18.781  0.00  0.00    +0.000 C 
ATOM      3  O   UNL     1       1.544  10.106  17.748  0.00  0.00    +0.000 OA
ENDROOT
BRANCH   1   4
ATOM      4  C   UNL     1       0.400   9.076  21.088  0.00  0.00    +0.000 C 
BRANCH   4   5
ATOM      5  C   UNL     1       1.298   9.307  22.322  0.00  0.00    +0.000 C 
BRANCH   5   7
ATOM      6  C   UNL     1      -0.760  10.066  23.137  0.00  0.00    +0.000 C 
ATOM      7  O   UNL     1       0.585   9.731  23.491  0.00  0.00    +0.000 OA
ENDBRANCH   5   7
ENDBRANCH   4   5
ENDBRANCH   1   4
BRANCH   2   8
ATOM      8  C   UNL     1       2.065   8.066  18.865  0.00  0.00    +0.000 C 
BRANCH   8   9
ATOM      9  C   UNL     1       3.111   7.780  17.767  0.00  0.00    +0.000 C 
BRANCH   9  10
ATOM     10  C   UNL     1       3.424   6.289  17.798  0.00  0.00    +0.000 C 
ATOM     11  O   UNL     1       4.381   5.843  17.165  0.00  0.00    +0.000 OA
ATOM     12  N   UNL     1       2.538   5.539  18.539  0.00  0.00    +0.000 N 
ATOM     13  C   UNL     1       2.704   4.180  18.621  0.00  0.00    +0.000 A 
ATOM     14  N   UNL     1       3.766   3.469  18.342  0.00  0.00    +0.000 NA
ATOM     15  C   UNL     1       3.474   2.129  18.465  0.00  0.00    +0.000 A 
ATOM     16  C   UNL     1       2.179   1.841  18.837  0.00  0.00    +0.000 A 
ATOM     17  S   UNL     1       1.323   3.308  19.119  0.00  0.00    +0.000 S 
ATOM     18  H   UNL     1       1.668   5.924  18.870  0.00  0.00    +0.000 HD
ENDBRANCH   9  10
ENDBRANCH   8   9
ENDBRANCH   2   8
BRANCH   1  19
ATOM     19  C   UNL     1      -0.109  11.164  19.696  0.00  0.00    +0.000 C 
BRANCH  19  20
ATOM     20  C   UNL     1      -1.538  11.066  19.173  0.00  0.00    +0.000 A 
ATOM     21  C   UNL     1      -1.922  10.146  18.194  0.00  0.00    +0.000 A 
ATOM     22  C   UNL     1      -3.179  10.245  17.594  0.00  0.00    +0.000 A 
ATOM     23  C   UNL     1      -4.093  11.206  18.017  0.00  0.00    +0.000 A 
ATOM     24  C   UNL     1      -3.757  12.068  19.055  0.00  0.00    +0.000 A 
ATOM     25  C   UNL     1      -2.498  11.983  19.642  0.00  0.00    +0.000 A 
BRANCH  23  26
ATOM     26  O   UNL     1      -5.274  11.261  17.309  0.00  0.00    +0.000 OA
ATOM     27  C   UNL     1      -6.445  11.147  18.085  0.00  0.00    +0.000 C 
ENDBRANCH  23  26
ENDBRANCH  19  20
BRANCH  19  28
ATOM     28  C   UNL     1       0.719  12.268  18.963  0.00  0.00    +0.000 C 
ATOM     29  O   UNL     1       0.241  12.909  18.022  0.00  0.00    +0.000 OA
ATOM     30  N   UNL     1       2.001  12.486  19.422  0.00  0.00    +0.000 N 
ATOM     31  H   UNL     1       2.192  12.186  20.379  0.00  0.00    +0.000 HD
BRANCH  30  32
ATOM     32  C   UNL     1       2.822  13.495  18.795  0.00  0.00    +0.000 C 
BRANCH  32  33
ATOM     33  C   UNL     1       3.349  14.542  19.771  0.00  0.00    +0.000 C 
BRANCH  33  34
ATOM     34  C   UNL     1       4.690  15.173  19.354  0.00  0.00    +0.000 C 
ATOM     35  C   UNL     1       5.067  14.850  17.907  0.00  0.00    +0.000 C 
ATOM     36  C   UNL     1       4.633  16.689  19.549  0.00  0.00    +0.000 C 
ENDBRANCH  33  34
ENDBRANCH  32  33
ENDBRANCH  30  32
ENDBRANCH  19  28
ENDBRANCH   1  19
TORSDOF 13
ENDMDL
