MODEL 1
REMARK VINA RESULT:      -5.6      0.000      0.000
REMARK  Name = 
REMARK  10 active torsions:
REMARK  status: ('A' for Active; 'I' for Inactive)
REMARK    1  A    between atoms: C_1  and  O_2
REMARK    2  A    between atoms: O_2  and  C_3
REMARK    3  A    between atoms: C_3  and  C_5
REMARK    4  A    between atoms: C_6  and  C_7
REMARK    5  A    between atoms: C_9  and  C_10
REMARK    6  A    between atoms: C_12  and  O_13
REMARK    7  A    between atoms: C_12  and  O_14
REMARK    8  A    between atoms: O_14  and  C_15
REMARK    9  A    between atoms: C_16  and  C_17
REMARK   10  A    between atoms: C_21  and  N_22
REMARK                            x       y       z     vdW  Elec       q    Type
REMARK                         _______ _______ _______ _____ _____    ______ ____
ROOT
ATOM      1  C   UNL     1      -2.362  12.322  21.913  0.00  0.00    +0.000 C 
ATOM      2  C   UNL     1      -3.613  12.677  22.278  0.00  0.00    +0.000 C 
ATOM      3  C   UNL     1      -4.105  12.877  23.693  0.00  0.00    +0.000 C 
ATOM      4  N   UNL     1      -4.609  12.898  21.368  0.00  0.00    +0.000 NA
ATOM      5  C   UNL     1      -4.434  12.678  20.102  0.00  0.00    +0.000 C 
ATOM      6  C   UNL     1      -5.657  12.956  19.250  0.00  0.00    +0.000 C 
ATOM      7  C   UNL     1      -3.138  12.227  19.479  0.00  0.00    +0.000 C 
ATOM      8  C   UNL     1      -2.938  11.853  18.194  0.00  0.00    +0.000 C 
ATOM      9  C   UNL     1      -1.959  12.241  20.455  0.00  0.00    +0.000 C 
ENDROOT
BRANCH   9  10
ATOM     10  C   UNL     1      -0.864  13.286  20.116  0.00  0.00    +0.000 A 
ATOM     11  C   UNL     1      -1.292  14.636  20.019  0.00  0.00    +0.000 A 
ATOM     12  C   UNL     1      -0.443  15.670  19.628  0.00  0.00    +0.000 A 
ATOM     13  C   UNL     1       0.896  15.403  19.400  0.00  0.00    +0.000 A 
ATOM     14  C   UNL     1       1.353  14.091  19.551  0.00  0.00    +0.000 A 
ATOM     15  C   UNL     1       0.503  13.017  19.864  0.00  0.00    +0.000 A 
ATOM     16 CL   UNL     1       1.156  11.414  19.882  0.00  0.00    +0.000 Cl
BRANCH  14  17
ATOM     17  N   UNL     1       2.782  13.880  19.421  0.00  0.00    +0.000 N 
ATOM     18  O   UNL     1       3.214  13.667  18.281  0.00  0.00    +0.000 OA
ATOM     19  O   UNL     1       3.460  13.988  20.451  0.00  0.00    +0.000 OA
ENDBRANCH  14  17
ENDBRANCH   9  10
BRANCH   1  20
ATOM     20  C   UNL     1      -1.326  11.996  22.929  0.00  0.00    +0.000 C 
ATOM     21  O   UNL     1      -0.485  12.775  23.348  0.00  0.00    +0.000 OA
BRANCH  20  23
ATOM     22  C   UNL     1      -0.257   9.911  22.955  0.00  0.00    +0.000 C 
ATOM     23  O   UNL     1      -1.413  10.687  23.286  0.00  0.00    +0.000 OA
ENDBRANCH  20  23
ENDBRANCH   1  20
BRANCH   8  24
ATOM     24  O   UNL     1      -3.907  11.872  17.222  0.00  0.00    +0.000 OA
ATOM     25  H   UNL     1      -3.819  11.059  16.698  0.00  0.00    +0.000 HD
ENDBRANCH   8  24
BRANCH   8  26
ATOM     26  O   UNL     1      -1.667  11.424  17.836  0.00  0.00    +0.000 OA
ATOM     27  C   UNL     1      -1.584  10.060  17.435  0.00  0.00    +0.000 C 
ENDBRANCH   8  26
TORSDOF 6
ENDMDL
MODEL 2
REMARK VINA RESULT:      -5.4      7.830     11.306
REMARK  Name = 
REMARK  10 active torsions:
REMARK  status: ('A' for Active; 'I' for Inactive)
REMARK    1  A    between atoms: C_1  and  O_2
REMARK    2  A    between atoms: O_2  and  C_3
REMARK    3  A    between atoms: C_3  and  C_5
REMARK    4  A    between atoms: C_6  and  C_7
REMARK    5  A    between atoms: C_9  and  C_10
REMARK    6  A    between atoms: C_12  and  O_13
REMARK    7  A    between atoms: C_12  and  O_14
REMARK    8  A    between atoms: O_14  and  C_15
REMARK    9  A    between atoms: C_16  and  C_17
REMARK   10  A    between atoms: C_21  and  N_22
REMARK                            x       y       z     vdW  Elec       q    Type
REMARK                         _______ _______ _______ _____ _____    ______ ____
ROOT
ATOM      1  C   UNL     1       9.539  13.970  20.295  0.00  0.00    +0.000 C 
ATOM      2  C   UNL     1      10.221  12.879  19.884  0.00  0.00    +0.000 C 
ATOM      3  C   UNL     1      10.512  11.647  20.710  0.00  0.00    +0.000 C 
ATOM      4  N   UNL     1      10.746  12.771  18.627  0.00  0.00    +0.000 NA
ATOM      5  C   UNL     1      10.707  13.759  17.786  0.00  0.00    +0.000 C 
ATOM      6  C   UNL     1      11.360  13.462  16.450  0.00  0.00    +0.000 C 
ATOM      7  C   UNL     1      10.044  15.086  18.051  0.00  0.00    +0.000 C 
ATOM      8  C   UNL     1      10.091  16.190  17.270  0.00  0.00    +0.000 C 
ATOM      9  C   UNL     1       9.229  15.109  19.346  0.00  0.00    +0.000 C 
ENDROOT
BRANCH   9  10
ATOM     10  C   UNL     1       7.700  15.263  19.132  0.00  0.00    +0.000 A 
ATOM     11  C   UNL     1       7.121  14.447  18.125  0.00  0.00    +0.000 A 
ATOM     12  C   UNL     1       5.780  14.544  17.755  0.00  0.00    +0.000 A 
ATOM     13  C   UNL     1       4.944  15.406  18.444  0.00  0.00    +0.000 A 
ATOM     14  C   UNL     1       5.479  16.172  19.482  0.00  0.00    +0.000 A 
ATOM     15  C   UNL     1       6.843  16.155  19.821  0.00  0.00    +0.000 A 
ATOM     16 CL   UNL     1       7.417  17.255  21.028  0.00  0.00    +0.000 Cl
BRANCH  14  17
ATOM     17  N   UNL     1       4.544  16.969  20.253  0.00  0.00    +0.000 N 
ATOM     18  O   UNL     1       3.975  16.405  21.197  0.00  0.00    +0.000 OA
ATOM     19  O   UNL     1       4.436  18.162  19.942  0.00  0.00    +0.000 OA
ENDBRANCH  14  17
ENDBRANCH   9  10
BRANCH   1  20
ATOM     20  C   UNL     1       9.063  14.099  21.698  0.00  0.00    +0.000 C 
ATOM     21  O   UNL     1       8.034  13.610  22.136  0.00  0.00    +0.000 OA
BRANCH  20  23
ATOM     22  C   UNL     1       9.340  15.424  23.610  0.00  0.00    +0.000 C 
ATOM     23  O   UNL     1       9.911  14.886  22.413  0.00  0.00    +0.000 OA
ENDBRANCH  20  23
ENDBRANCH   1  20
BRANCH   8  24
ATOM     24  O   UNL     1      10.732  16.255  16.058  0.00  0.00    +0.000 OA
ATOM     25  H   UNL     1      10.584  17.142  15.689  0.00  0.00    +0.000 HD
ENDBRANCH   8  24
BRANCH   8  26
ATOM     26  O   UNL     1       9.446  17.332  17.725  0.00  0.00    +0.000 OA
ATOM     27  C   UNL     1      10.212  18.529  17.643  0.00  0.00    +0.000 C 
ENDBRANCH   8  26
TORSDOF 6
ENDMDL
MODEL 3
REMARK VINA RESULT:      -5.2      2.828      5.296
REMARK  Name = 
REMARK  10 active torsions:
REMARK  status: ('A' for Active; 'I' for Inactive)
REMARK    1  A    between atoms: C_1  and  O_2
REMARK    2  A    between atoms: O_2  and  C_3
REMARK    3  A    between atoms: C_3  and  C_5
REMARK    4  A    between atoms: C_6  and  C_7
REMARK    5  A    between atoms: C_9  and  C_10
REMARK    6  A    between atoms: C_12  and  O_13
REMARK    7  A    between atoms: C_12  and  O_14
REMARK    8  A    between atoms: O_14  and  C_15
REMARK    9  A    between atoms: C_16  and  C_17
REMARK   10  A    between atoms: C_21  and  N_22
REMARK                            x       y       z     vdW  Elec       q    Type
REMARK                         _______ _______ _______ _____ _____    ______ ____
ROOT
ATOM      1  C   UNL     1      -1.912  11.687  19.064  0.00  0.00    +0.000 C 
ATOM      2  C   UNL     1      -2.893  12.362  19.701  0.00  0.00    +0.000 C 
ATOM      3  C   UNL     1      -4.376  12.242  19.436  0.00  0.00    +0.000 C 
ATOM      4  N   UNL     1      -2.638  13.267  20.695  0.00  0.00    +0.000 NA
ATOM      5  C   UNL     1      -1.426  13.605  21.010  0.00  0.00    +0.000 C 
ATOM      6  C   UNL     1      -1.339  14.638  22.117  0.00  0.00    +0.000 C 
ATOM      7  C   UNL     1      -0.182  13.020  20.393  0.00  0.00    +0.000 C 
ATOM      8  C   UNL     1       1.094  13.430  20.584  0.00  0.00    +0.000 C 
ATOM      9  C   UNL     1      -0.463  11.823  19.481  0.00  0.00    +0.000 C 
ENDROOT
BRANCH   9  10
ATOM     10  C   UNL     1       0.099  10.476  20.009  0.00  0.00    +0.000 A 
ATOM     11  C   UNL     1      -0.332  10.079  21.302  0.00  0.00    +0.000 A 
ATOM     12  C   UNL     1       0.160   8.944  21.945  0.00  0.00    +0.000 A 
ATOM     13  C   UNL     1       1.044   8.113  21.279  0.00  0.00    +0.000 A 
ATOM     14  C   UNL     1       1.433   8.451  19.981  0.00  0.00    +0.000 A 
ATOM     15  C   UNL     1       1.017   9.631  19.340  0.00  0.00    +0.000 A 
ATOM     16 CL   UNL     1       1.679  10.016  17.788  0.00  0.00    +0.000 Cl
BRANCH  14  17
ATOM     17  N   UNL     1       2.263   7.492  19.278  0.00  0.00    +0.000 N 
ATOM     18  O   UNL     1       2.610   6.485  19.910  0.00  0.00    +0.000 OA
ATOM     19  O   UNL     1       2.506   7.727  18.088  0.00  0.00    +0.000 OA
ENDBRANCH  14  17
ENDBRANCH   9  10
BRANCH   1  20
ATOM     20  C   UNL     1      -2.215  10.782  17.924  0.00  0.00    +0.000 C 
ATOM     21  O   UNL     1      -2.484   9.595  18.024  0.00  0.00    +0.000 OA
BRANCH  20  23
ATOM     22  C   UNL     1      -2.815  10.857  15.661  0.00  0.00    +0.000 C 
ATOM     23  O   UNL     1      -2.097  11.451  16.746  0.00  0.00    +0.000 OA
ENDBRANCH  20  23
ENDBRANCH   1  20
BRANCH   8  24
ATOM     24  O   UNL     1       1.462  14.444  21.433  0.00  0.00    +0.000 OA
ATOM     25  H   UNL     1       1.232  14.175  22.337  0.00  0.00    +0.000 HD
ENDBRANCH   8  24
BRANCH   8  26
ATOM     26  O   UNL     1       2.095  12.779  19.877  0.00  0.00    +0.000 OA
ATOM     27  C   UNL     1       2.684  13.543  18.829  0.00  0.00    +0.000 C 
ENDBRANCH   8  26
TORSDOF 6
ENDMDL
MODEL 4
REMARK VINA RESULT:      -5.2      2.621      5.226
REMARK  Name = 
REMARK  10 active torsions:
REMARK  status: ('A' for Active; 'I' for Inactive)
REMARK    1  A    between atoms: C_1  and  O_2
REMARK    2  A    between atoms: O_2  and  C_3
REMARK    3  A    between atoms: C_3  and  C_5
REMARK    4  A    between atoms: C_6  and  C_7
REMARK    5  A    between atoms: C_9  and  C_10
REMARK    6  A    between atoms: C_12  and  O_13
REMARK    7  A    between atoms: C_12  and  O_14
REMARK    8  A    between atoms: O_14  and  C_15
REMARK    9  A    between atoms: C_16  and  C_17
REMARK   10  A    between atoms: C_21  and  N_22
REMARK                            x       y       z     vdW  Elec       q    Type
REMARK                         _______ _______ _______ _____ _____    ______ ____
ROOT
ATOM      1  C   UNL     1      -2.246  11.648  18.359  0.00  0.00    +0.000 C 
ATOM      2  C   UNL     1      -3.165  12.169  19.201  0.00  0.00    +0.000 C 
ATOM      3  C   UNL     1      -4.624  11.785  19.277  0.00  0.00    +0.000 C 
ATOM      4  N   UNL     1      -2.859  13.144  20.110  0.00  0.00    +0.000 NA
ATOM      5  C   UNL     1      -1.686  13.698  20.144  0.00  0.00    +0.000 C 
ATOM      6  C   UNL     1      -1.540  14.775  21.201  0.00  0.00    +0.000 C 
ATOM      7  C   UNL     1      -0.527  13.311  19.262  0.00  0.00    +0.000 C 
ATOM      8  C   UNL     1       0.666  13.941  19.160  0.00  0.00    +0.000 C 
ATOM      9  C   UNL     1      -0.788  12.047  18.438  0.00  0.00    +0.000 C 
ENDROOT
BRANCH   9  10
ATOM     10  C   UNL     1       0.106  10.839  18.827  0.00  0.00    +0.000 A 
ATOM     11  C   UNL     1       0.887  10.275  17.785  0.00  0.00    +0.000 A 
ATOM     12  C   UNL     1       1.663   9.130  17.961  0.00  0.00    +0.000 A 
ATOM     13  C   UNL     1       1.753   8.553  19.216  0.00  0.00    +0.000 A 
ATOM     14  C   UNL     1       1.041   9.130  20.271  0.00  0.00    +0.000 A 
ATOM     15  C   UNL     1       0.187  10.234  20.104  0.00  0.00    +0.000 A 
ATOM     16 CL   UNL     1      -0.755  10.771  21.453  0.00  0.00    +0.000 Cl
BRANCH  14  17
ATOM     17  N   UNL     1       1.259   8.567  21.589  0.00  0.00    +0.000 N 
ATOM     18  O   UNL     1       0.992   7.366  21.735  0.00  0.00    +0.000 OA
ATOM     19  O   UNL     1       1.750   9.315  22.443  0.00  0.00    +0.000 OA
ENDBRANCH  14  17
ENDBRANCH   9  10
BRANCH   1  20
ATOM     20  C   UNL     1      -2.630  10.658  17.318  0.00  0.00    +0.000 C 
ATOM     21  O   UNL     1      -2.942   9.498  17.534  0.00  0.00    +0.000 OA
BRANCH  20  23
ATOM     22  C   UNL     1      -3.217  10.488  15.056  0.00  0.00    +0.000 C 
ATOM     23  O   UNL     1      -2.531  11.214  16.080  0.00  0.00    +0.000 OA
ENDBRANCH  20  23
ENDBRANCH   1  20
BRANCH   8  24
ATOM     24  O   UNL     1       1.028  15.037  19.902  0.00  0.00    +0.000 OA
ATOM     25  H   UNL     1       0.288  15.667  19.886  0.00  0.00    +0.000 HD
ENDBRANCH   8  24
BRANCH   8  26
ATOM     26  O   UNL     1       1.584  13.445  18.245  0.00  0.00    +0.000 OA
ATOM     27  C   UNL     1       2.949  13.686  18.571  0.00  0.00    +0.000 C 
ENDBRANCH   8  26
TORSDOF 6
ENDMDL
MODEL 5
REMARK VINA RESULT:      -5.2      2.420      5.679
REMARK  Name = 
REMARK  10 active torsions:
REMARK  status: ('A' for Active; 'I' for Inactive)
REMARK    1  A    between atoms: C_1  and  O_2
REMARK    2  A    between atoms: O_2  and  C_3
REMARK    3  A    between atoms: C_3  and  C_5
REMARK    4  A    between atoms: C_6  and  C_7
REMARK    5  A    between atoms: C_9  and  C_10
REMARK    6  A    between atoms: C_12  and  O_13
REMARK    7  A    between atoms: C_12  and  O_14
REMARK    8  A    between atoms: O_14  and  C_15
REMARK    9  A    between atoms: C_16  and  C_17
REMARK   10  A    between atoms: C_21  and  N_22
REMARK                            x       y       z     vdW  Elec       q    Type
REMARK                         _______ _______ _______ _____ _____    ______ ____
ROOT
ATOM      1  C   UNL     1       0.209  13.604  19.693  0.00  0.00    +0.000 C 
ATOM      2  C   UNL     1       1.440  13.138  19.392  0.00  0.00    +0.000 C 
ATOM      3  C   UNL     1       2.742  13.887  19.560  0.00  0.00    +0.000 C 
ATOM      4  N   UNL     1       1.648  11.888  18.879  0.00  0.00    +0.000 NA
ATOM      5  C   UNL     1       0.659  11.114  18.553  0.00  0.00    +0.000 C 
ATOM      6  C   UNL     1       1.082   9.776  17.978  0.00  0.00    +0.000 C 
ATOM      7  C   UNL     1      -0.797  11.450  18.752  0.00  0.00    +0.000 C 
ATOM      8  C   UNL     1      -1.863  10.745  18.309  0.00  0.00    +0.000 C 
ATOM      9  C   UNL     1      -1.018  12.725  19.568  0.00  0.00    +0.000 C 
ENDROOT
BRANCH   9  10
ATOM     10  C   UNL     1      -1.682  12.488  20.950  0.00  0.00    +0.000 A 
ATOM     11  C   UNL     1      -0.961  11.674  21.863  0.00  0.00    +0.000 A 
ATOM     12  C   UNL     1      -1.474  11.296  23.103  0.00  0.00    +0.000 A 
ATOM     13  C   UNL     1      -2.699  11.791  23.513  0.00  0.00    +0.000 A 
ATOM     14  C   UNL     1      -3.399  12.645  22.657  0.00  0.00    +0.000 A 
ATOM     15  C   UNL     1      -2.944  12.976  21.369  0.00  0.00    +0.000 A 
ATOM     16 CL   UNL     1      -3.964  13.926  20.343  0.00  0.00    +0.000 Cl
BRANCH  14  17
ATOM     17  N   UNL     1      -4.617  13.234  23.177  0.00  0.00    +0.000 N 
ATOM     18  O   UNL     1      -4.524  14.367  23.669  0.00  0.00    +0.000 OA
ATOM     19  O   UNL     1      -5.660  12.584  23.032  0.00  0.00    +0.000 OA
ENDBRANCH  14  17
ENDBRANCH   9  10
BRANCH   1  20
ATOM     20  C   UNL     1       0.006  15.001  20.160  0.00  0.00    +0.000 C 
ATOM     21  O   UNL     1       0.159  15.385  21.308  0.00  0.00    +0.000 OA
BRANCH  20  23
ATOM     22  C   UNL     1       0.471  16.839  18.783  0.00  0.00    +0.000 C 
ATOM     23  O   UNL     1      -0.427  15.782  19.134  0.00  0.00    +0.000 OA
ENDBRANCH  20  23
ENDBRANCH   1  20
BRANCH   8  24
ATOM     24  O   UNL     1      -1.778   9.555  17.631  0.00  0.00    +0.000 OA
ATOM     25  H   UNL     1      -2.495   9.532  16.976  0.00  0.00    +0.000 HD
ENDBRANCH   8  24
BRANCH   8  26
ATOM     26  O   UNL     1      -3.128  11.260  18.560  0.00  0.00    +0.000 OA
ATOM     27  C   UNL     1      -4.008  11.265  17.441  0.00  0.00    +0.000 C 
ENDBRANCH   8  26
TORSDOF 6
ENDMDL
MODEL 6
REMARK VINA RESULT:      -5.1      2.195      5.166
REMARK  Name = 
REMARK  10 active torsions:
REMARK  status: ('A' for Active; 'I' for Inactive)
REMARK    1  A    between atoms: C_1  and  O_2
REMARK    2  A    between atoms: O_2  and  C_3
REMARK    3  A    between atoms: C_3  and  C_5
REMARK    4  A    between atoms: C_6  and  C_7
REMARK    5  A    between atoms: C_9  and  C_10
REMARK    6  A    between atoms: C_12  and  O_13
REMARK    7  A    between atoms: C_12  and  O_14
REMARK    8  A    between atoms: O_14  and  C_15
REMARK    9  A    between atoms: C_16  and  C_17
REMARK   10  A    between atoms: C_21  and  N_22
REMARK                            x       y       z     vdW  Elec       q    Type
REMARK                         _______ _______ _______ _____ _____    ______ ____
ROOT
ATOM      1  C   UNL     1      -1.130  11.698  21.931  0.00  0.00    +0.000 C 
ATOM      2  C   UNL     1      -0.446  10.534  21.892  0.00  0.00    +0.000 C 
ATOM      3  C   UNL     1      -0.385   9.499  22.991  0.00  0.00    +0.000 C 
ATOM      4  N   UNL     1       0.295  10.154  20.808  0.00  0.00    +0.000 NA
ATOM      5  C   UNL     1       0.470  10.943  19.793  0.00  0.00    +0.000 C 
ATOM      6  C   UNL     1       1.341  10.360  18.697  0.00  0.00    +0.000 C 
ATOM      7  C   UNL     1      -0.153  12.307  19.648  0.00  0.00    +0.000 C 
ATOM      8  C   UNL     1       0.101  13.221  18.683  0.00  0.00    +0.000 C 
ATOM      9  C   UNL     1      -1.192  12.617  20.729  0.00  0.00    +0.000 C 
ENDROOT
BRANCH   9  10
ATOM     10  C   UNL     1      -2.643  12.749  20.197  0.00  0.00    +0.000 A 
ATOM     11  C   UNL     1      -3.423  13.799  20.749  0.00  0.00    +0.000 A 
ATOM     12  C   UNL     1      -4.770  13.981  20.440  0.00  0.00    +0.000 A 
ATOM     13  C   UNL     1      -5.368  13.165  19.495  0.00  0.00    +0.000 A 
ATOM     14  C   UNL     1      -4.603  12.164  18.892  0.00  0.00    +0.000 A 
ATOM     15  C   UNL     1      -3.267  11.906  19.245  0.00  0.00    +0.000 A 
ATOM     16 CL   UNL     1      -2.464  10.547  18.534  0.00  0.00    +0.000 Cl
BRANCH  14  17
ATOM     17  N   UNL     1      -5.235  11.414  17.824  0.00  0.00    +0.000 N 
ATOM     18  O   UNL     1      -6.052  10.545  18.159  0.00  0.00    +0.000 OA
ATOM     19  O   UNL     1      -4.952  11.743  16.665  0.00  0.00    +0.000 OA
ENDBRANCH  14  17
ENDBRANCH   9  10
BRANCH   1  20
ATOM     20  C   UNL     1      -1.850  12.128  23.159  0.00  0.00    +0.000 C 
ATOM     21  O   UNL     1      -2.907  11.662  23.551  0.00  0.00    +0.000 OA
BRANCH  20  23
ATOM     22  C   UNL     1      -2.008  14.294  24.038  0.00  0.00    +0.000 C 
ATOM     23  O   UNL     1      -1.189  13.155  23.758  0.00  0.00    +0.000 OA
ENDBRANCH  20  23
ENDBRANCH   1  20
BRANCH   8  24
ATOM     24  O   UNL     1       0.959  13.018  17.631  0.00  0.00    +0.000 OA
ATOM     25  H   UNL     1       1.368  13.871  17.411  0.00  0.00    +0.000 HD
ENDBRANCH   8  24
BRANCH   8  26
ATOM     26  O   UNL     1      -0.551  14.444  18.763  0.00  0.00    +0.000 OA
ATOM     27  C   UNL     1       0.302  15.569  18.954  0.00  0.00    +0.000 C 
ENDBRANCH   8  26
TORSDOF 6
ENDMDL
MODEL 7
REMARK VINA RESULT:      -5.1      2.391      4.923
REMARK  Name = 
REMARK  10 active torsions:
REMARK  status: ('A' for Active; 'I' for Inactive)
REMARK    1  A    between atoms: C_1  and  O_2
REMARK    2  A    between atoms: O_2  and  C_3
REMARK    3  A    between atoms: C_3  and  C_5
REMARK    4  A    between atoms: C_6  and  C_7
REMARK    5  A    between atoms: C_9  and  C_10
REMARK    6  A    between atoms: C_12  and  O_13
REMARK    7  A    between atoms: C_12  and  O_14
REMARK    8  A    between atoms: O_14  and  C_15
REMARK    9  A    between atoms: C_16  and  C_17
REMARK   10  A    between atoms: C_21  and  N_22
REMARK                            x       y       z     vdW  Elec       q    Type
REMARK                         _______ _______ _______ _____ _____    ______ ____
ROOT
ATOM      1  C   UNL     1      -2.893  11.914  18.838  0.00  0.00    +0.000 C 
ATOM      2  C   UNL     1      -3.883  12.423  19.602  0.00  0.00    +0.000 C 
ATOM      3  C   UNL     1      -5.325  11.969  19.610  0.00  0.00    +0.000 C 
ATOM      4  N   UNL     1      -3.680  13.447  20.484  0.00  0.00    +0.000 NA
ATOM      5  C   UNL     1      -2.539  14.060  20.562  0.00  0.00    +0.000 C 
ATOM      6  C   UNL     1      -2.508  15.185  21.579  0.00  0.00    +0.000 C 
ATOM      7  C   UNL     1      -1.312  13.697  19.766  0.00  0.00    +0.000 C 
ATOM      8  C   UNL     1      -0.147  14.382  19.707  0.00  0.00    +0.000 C 
ATOM      9  C   UNL     1      -1.462  12.390  18.984  0.00  0.00    +0.000 C 
ENDROOT
BRANCH   9  10
ATOM     10  C   UNL     1      -0.537  11.245  19.475  0.00  0.00    +0.000 A 
ATOM     11  C   UNL     1       0.219  10.576  18.477  0.00  0.00    +0.000 A 
ATOM     12  C   UNL     1       1.019   9.468  18.754  0.00  0.00    +0.000 A 
ATOM     13  C   UNL     1       1.159   9.039  20.062  0.00  0.00    +0.000 A 
ATOM     14  C   UNL     1       0.474   9.722  21.069  0.00  0.00    +0.000 A 
ATOM     15  C   UNL     1      -0.403  10.789  20.809  0.00  0.00    +0.000 A 
ATOM     16 CL   UNL     1      -1.309  11.464  22.120  0.00  0.00    +0.000 Cl
BRANCH  14  17
ATOM     17  N   UNL     1       0.744   9.314  22.434  0.00  0.00    +0.000 N 
ATOM     18  O   UNL     1      -0.176   8.753  23.043  0.00  0.00    +0.000 OA
ATOM     19  O   UNL     1       1.891   9.506  22.859  0.00  0.00    +0.000 OA
ENDBRANCH  14  17
ENDBRANCH   9  10
BRANCH   1  20
ATOM     20  C   UNL     1      -3.165  10.866  17.819  0.00  0.00    +0.000 C 
ATOM     21  O   UNL     1      -3.187   9.665  18.039  0.00  0.00    +0.000 OA
BRANCH  20  23
ATOM     22  C   UNL     1      -2.817  10.650  15.513  0.00  0.00    +0.000 C 
ATOM     23  O   UNL     1      -3.333  11.432  16.594  0.00  0.00    +0.000 OA
ENDBRANCH  20  23
ENDBRANCH   1  20
BRANCH   8  24
ATOM     24  O   UNL     1       0.117  15.524  20.421  0.00  0.00    +0.000 OA
ATOM     25  H   UNL     1       0.725  16.070  19.896  0.00  0.00    +0.000 HD
ENDBRANCH   8  24
BRANCH   8  26
ATOM     26  O   UNL     1       0.847  13.896  18.868  0.00  0.00    +0.000 OA
ATOM     27  C   UNL     1       2.141  13.810  19.457  0.00  0.00    +0.000 C 
ENDBRANCH   8  26
TORSDOF 6
ENDMDL
MODEL 8
REMARK VINA RESULT:      -5.1      1.918      2.215
REMARK  Name = 
REMARK  10 active torsions:
REMARK  status: ('A' for Active; 'I' for Inactive)
REMARK    1  A    between atoms: C_1  and  O_2
REMARK    2  A    between atoms: O_2  and  C_3
REMARK    3  A    between atoms: C_3  and  C_5
REMARK    4  A    between atoms: C_6  and  C_7
REMARK    5  A    between atoms: C_9  and  C_10
REMARK    6  A    between atoms: C_12  and  O_13
REMARK    7  A    between atoms: C_12  and  O_14
REMARK    8  A    between atoms: O_14  and  C_15
REMARK    9  A    between atoms: C_16  and  C_17
REMARK   10  A    between atoms: C_21  and  N_22
REMARK                            x       y       z     vdW  Elec       q    Type
REMARK                         _______ _______ _______ _____ _____    ______ ____
ROOT
ATOM      1  C   UNL     1      -2.346  12.251  21.915  0.00  0.00    +0.000 C 
ATOM      2  C   UNL     1      -3.564  12.644  22.347  0.00  0.00    +0.000 C 
ATOM      3  C   UNL     1      -3.975  12.852  23.786  0.00  0.00    +0.000 C 
ATOM      4  N   UNL     1      -4.598  12.903  21.491  0.00  0.00    +0.000 NA
ATOM      5  C   UNL     1      -4.497  12.685  20.216  0.00  0.00    +0.000 C 
ATOM      6  C   UNL     1      -5.753  13.008  19.430  0.00  0.00    +0.000 C 
ATOM      7  C   UNL     1      -3.250  12.196  19.525  0.00  0.00    +0.000 C 
ATOM      8  C   UNL     1      -3.130  11.823  18.230  0.00  0.00    +0.000 C 
ATOM      9  C   UNL     1      -2.023  12.164  20.438  0.00  0.00    +0.000 C 
ENDROOT
BRANCH   9  10
ATOM     10  C   UNL     1      -0.913  13.175  20.046  0.00  0.00    +0.000 A 
ATOM     11  C   UNL     1       0.338  12.620  19.670  0.00  0.00    +0.000 A 
ATOM     12  C   UNL     1       1.455  13.404  19.385  0.00  0.00    +0.000 A 
ATOM     13  C   UNL     1       1.338  14.783  19.384  0.00  0.00    +0.000 A 
ATOM     14  C   UNL     1       0.099  15.351  19.691  0.00  0.00    +0.000 A 
ATOM     15  C   UNL     1      -1.021  14.587  20.061  0.00  0.00    +0.000 A 
ATOM     16 CL   UNL     1      -2.462  15.407  20.560  0.00  0.00    +0.000 Cl
BRANCH  14  17
ATOM     17  N   UNL     1      -0.009  16.791  19.560  0.00  0.00    +0.000 N 
ATOM     18  O   UNL     1       0.356  17.469  20.530  0.00  0.00    +0.000 OA
ATOM     19  O   UNL     1      -0.399  17.226  18.469  0.00  0.00    +0.000 OA
ENDBRANCH  14  17
ENDBRANCH   9  10
BRANCH   1  20
ATOM     20  C   UNL     1      -1.270  11.884  22.874  0.00  0.00    +0.000 C 
ATOM     21  O   UNL     1      -0.369  12.625  23.234  0.00  0.00    +0.000 OA
BRANCH  20  23
ATOM     22  C   UNL     1      -0.202   9.814  23.125  0.00  0.00    +0.000 C 
ATOM     23  O   UNL     1      -1.400  10.585  23.254  0.00  0.00    +0.000 OA
ENDBRANCH  20  23
ENDBRANCH   1  20
BRANCH   8  24
ATOM     24  O   UNL     1      -4.147  11.879  17.310  0.00  0.00    +0.000 OA
ATOM     25  H   UNL     1      -4.717  12.631  17.540  0.00  0.00    +0.000 HD
ENDBRANCH   8  24
BRANCH   8  26
ATOM     26  O   UNL     1      -1.894  11.354  17.804  0.00  0.00    +0.000 OA
ATOM     27  C   UNL     1      -1.894  10.016  17.317  0.00  0.00    +0.000 C 
ENDBRANCH   8  26
TORSDOF 6
ENDMDL
MODEL 9
REMARK VINA RESULT:      -5.1      2.236      5.601
REMARK  Name = 
REMARK  10 active torsions:
REMARK  status: ('A' for Active; 'I' for Inactive)
REMARK    1  A    between atoms: C_1  and  O_2
REMARK    2  A    between atoms: O_2  and  C_3
REMARK    3  A    between atoms: C_3  and  C_5
REMARK    4  A    between atoms: C_6  and  C_7
REMARK    5  A    between atoms: C_9  and  C_10
REMARK    6  A    between atoms: C_12  and  O_13
REMARK    7  A    between atoms: C_12  and  O_14
REMARK    8  A    between atoms: O_14  and  C_15
REMARK    9  A    between atoms: C_16  and  C_17
REMARK   10  A    between atoms: C_21  and  N_22
REMARK                            x       y       z     vdW  Elec       q    Type
REMARK                         _______ _______ _______ _____ _____    ______ ____
ROOT
ATOM      1  C   UNL     1      -0.279  13.476  20.012  0.00  0.00    +0.000 C 
ATOM      2  C   UNL     1      -0.718  14.415  20.878  0.00  0.00    +0.000 C 
ATOM      3  C   UNL     1      -0.650  15.912  20.681  0.00  0.00    +0.000 C 
ATOM      4  N   UNL     1      -1.293  14.097  22.077  0.00  0.00    +0.000 NA
ATOM      5  C   UNL     1      -1.354  12.871  22.498  0.00  0.00    +0.000 C 
ATOM      6  C   UNL     1      -2.003  12.715  23.860  0.00  0.00    +0.000 C 
ATOM      7  C   UNL     1      -0.876  11.671  21.722  0.00  0.00    +0.000 C 
ATOM      8  C   UNL     1      -0.790  10.396  22.164  0.00  0.00    +0.000 C 
ATOM      9  C   UNL     1      -0.484  12.000  20.279  0.00  0.00    +0.000 C 
ENDROOT
BRANCH   9  10
ATOM     10  C   UNL     1      -1.406  11.359  19.208  0.00  0.00    +0.000 A 
ATOM     11  C   UNL     1      -0.798  10.419  18.336  0.00  0.00    +0.000 A 
ATOM     12  C   UNL     1      -1.475   9.834  17.267  0.00  0.00    +0.000 A 
ATOM     13  C   UNL     1      -2.819  10.106  17.081  0.00  0.00    +0.000 A 
ATOM     14  C   UNL     1      -3.455  10.980  17.966  0.00  0.00    +0.000 A 
ATOM     15  C   UNL     1      -2.777  11.647  19.002  0.00  0.00    +0.000 A 
ATOM     16 CL   UNL     1      -3.637  12.817  19.944  0.00  0.00    +0.000 Cl
BRANCH  14  17
ATOM     17  N   UNL     1      -4.887  11.141  17.807  0.00  0.00    +0.000 N 
ATOM     18  O   UNL     1      -5.612  10.431  18.518  0.00  0.00    +0.000 OA
ATOM     19  O   UNL     1      -5.269  12.016  17.019  0.00  0.00    +0.000 OA
ENDBRANCH  14  17
ENDBRANCH   9  10
BRANCH   1  20
ATOM     20  C   UNL     1       0.428  13.854  18.760  0.00  0.00    +0.000 C 
ATOM     21  O   UNL     1      -0.117  14.116  17.699  0.00  0.00    +0.000 OA
BRANCH  20  23
ATOM     22  C   UNL     1       2.444  12.812  18.175  0.00  0.00    +0.000 C 
ATOM     23  O   UNL     1       1.775  13.813  18.948  0.00  0.00    +0.000 OA
ENDBRANCH  20  23
ENDBRANCH   1  20
BRANCH   8  24
ATOM     24  O   UNL     1      -1.181   9.981  23.413  0.00  0.00    +0.000 OA
ATOM     25  H   UNL     1      -1.728   9.185  23.306  0.00  0.00    +0.000 HD
ENDBRANCH   8  24
BRANCH   8  26
ATOM     26  O   UNL     1      -0.274   9.443  21.296  0.00  0.00    +0.000 OA
ATOM     27  C   UNL     1       0.958   8.860  21.706  0.00  0.00    +0.000 C 
ENDBRANCH   8  26
TORSDOF 6
ENDMDL
