MODEL 1
REMARK VINA RESULT:      -8.4      0.000      0.000
REMARK  Name = 
REMARK  6 active torsions:
REMARK  status: ('A' for Active; 'I' for Inactive)
REMARK    1  A    between atoms: C_1  and  C_2
REMARK    2  A    between atoms: C_2  and  O_3
REMARK    3  A    between atoms: C_2  and  C_4
REMARK    4  A    between atoms: C_8  and  N_9
REMARK    5  A    between atoms: N_13  and  C_14
REMARK    6  A    between atoms: N_13  and  C_15
REMARK                            x       y       z     vdW  Elec       q    Type
REMARK                         _______ _______ _______ _____ _____    ______ ____
ROOT
ATOM      1  N   UNL     1       5.565   3.839  16.370  0.00  0.00    +0.000 N 
ATOM      2  C   UNL     1       4.584   4.413  17.172  0.00  0.00    +0.000 A 
ATOM      3  N   UNL     1       4.092   3.553  18.076  0.00  0.00    +0.000 NA
ATOM      4  C   UNL     1       3.216   4.014  18.990  0.00  0.00    +0.000 A 
ATOM      5  N   UNL     1       2.440   3.071  19.691  0.00  0.00    +0.000 N 
ATOM      6  C   UNL     1       2.147   1.862  18.923  0.00  0.00    +0.000 C 
ATOM      7  C   UNL     1       2.786   2.857  21.090  0.00  0.00    +0.000 C 
ATOM      8  C   UNL     1       2.924   5.379  19.103  0.00  0.00    +0.000 A 
ATOM      9  C   UNL     1       2.154   5.969  20.141  0.00  0.00    +0.000 A 
ATOM     10  C   UNL     1       1.817   7.317  20.111  0.00  0.00    +0.000 A 
ATOM     11  C   UNL     1       2.196   8.074  19.014  0.00  0.00    +0.000 A 
ATOM     12  C   UNL     1       2.981   7.499  18.006  0.00  0.00    +0.000 A 
ATOM     13  C   UNL     1       3.399   6.169  18.049  0.00  0.00    +0.000 A 
ATOM     14  N   UNL     1       4.205   5.694  17.084  0.00  0.00    +0.000 NA
ATOM     15  H   UNL     1       5.715   2.907  16.736  0.00  0.00    +0.000 HD
ENDROOT
BRANCH   1  20
ATOM     16  C   UNL     1       6.055   3.643  12.641  0.00  0.00    +0.000 A 
ATOM     17  C   UNL     1       7.173   4.490  12.526  0.00  0.00    +0.000 A 
ATOM     18  C   UNL     1       7.695   5.126  13.646  0.00  0.00    +0.000 A 
ATOM     19  C   UNL     1       7.127   4.901  14.897  0.00  0.00    +0.000 A 
ATOM     20  C   UNL     1       6.041   4.022  15.067  0.00  0.00    +0.000 A 
ATOM     21  C   UNL     1       5.496   3.435  13.925  0.00  0.00    +0.000 A 
BRANCH  16  23
ATOM     22  C   UNL     1       5.918   1.454  11.356  0.00  0.00    +0.000 C 
ATOM     23  C   UNL     1       5.493   2.917  11.433  0.00  0.00    +0.000 C 
BRANCH  23  24
ATOM     24  O   UNL     1       4.062   2.960  11.404  0.00  0.00    +0.000 OA
ATOM     25  H   UNL     1       3.746   2.461  12.176  0.00  0.00    +0.000 HD
ENDBRANCH  23  24
ENDBRANCH  16  23
ENDBRANCH   1  20
TORSDOF 3
ENDMDL
MODEL 2
REMARK VINA RESULT:      -8.2      4.108      8.278
REMARK  Name = 
REMARK  6 active torsions:
REMARK  status: ('A' for Active; 'I' for Inactive)
REMARK    1  A    between atoms: C_1  and  C_2
REMARK    2  A    between atoms: C_2  and  O_3
REMARK    3  A    between atoms: C_2  and  C_4
REMARK    4  A    between atoms: C_8  and  N_9
REMARK    5  A    between atoms: N_13  and  C_14
REMARK    6  A    between atoms: N_13  and  C_15
REMARK                            x       y       z     vdW  Elec       q    Type
REMARK                         _______ _______ _______ _____ _____    ______ ____
ROOT
ATOM      1  N   UNL     1       2.534   8.075  18.886  0.00  0.00    +0.000 N 
ATOM      2  C   UNL     1       2.713   6.761  18.466  0.00  0.00    +0.000 A 
ATOM      3  N   UNL     1       3.867   6.586  17.805  0.00  0.00    +0.000 NA
ATOM      4  C   UNL     1       4.217   5.337  17.442  0.00  0.00    +0.000 A 
ATOM      5  N   UNL     1       5.215   5.192  16.459  0.00  0.00    +0.000 N 
ATOM      6  C   UNL     1       5.248   6.285  15.489  0.00  0.00    +0.000 C 
ATOM      7  C   UNL     1       6.515   4.721  16.918  0.00  0.00    +0.000 C 
ATOM      8  C   UNL     1       3.484   4.219  17.860  0.00  0.00    +0.000 A 
ATOM      9  C   UNL     1       3.874   2.866  17.673  0.00  0.00    +0.000 A 
ATOM     10  C   UNL     1       3.028   1.818  18.017  0.00  0.00    +0.000 A 
ATOM     11  C   UNL     1       1.762   2.114  18.496  0.00  0.00    +0.000 A 
ATOM     12  C   UNL     1       1.389   3.448  18.709  0.00  0.00    +0.000 A 
ATOM     13  C   UNL     1       2.246   4.516  18.445  0.00  0.00    +0.000 A 
ATOM     14  N   UNL     1       1.853   5.769  18.732  0.00  0.00    +0.000 NA
ATOM     15  H   UNL     1       3.385   8.565  18.641  0.00  0.00    +0.000 HD
ENDROOT
BRANCH   1  20
ATOM     16  C   UNL     1      -0.109  10.155  20.580  0.00  0.00    +0.000 A 
ATOM     17  C   UNL     1      -0.807  10.588  19.437  0.00  0.00    +0.000 A 
ATOM     18  C   UNL     1      -0.372  10.232  18.166  0.00  0.00    +0.000 A 
ATOM     19  C   UNL     1       0.746   9.415  18.023  0.00  0.00    +0.000 A 
ATOM     20  C   UNL     1       1.444   8.916  19.137  0.00  0.00    +0.000 A 
ATOM     21  C   UNL     1       1.027   9.328  20.403  0.00  0.00    +0.000 A 
BRANCH  16  23
ATOM     22  C   UNL     1      -0.131   9.520  23.041  0.00  0.00    +0.000 C 
ATOM     23  C   UNL     1      -0.589  10.510  21.975  0.00  0.00    +0.000 C 
BRANCH  23  24
ATOM     24  O   UNL     1      -0.154  11.815  22.371  0.00  0.00    +0.000 OA
ATOM     25  H   UNL     1       0.295  11.718  23.228  0.00  0.00    +0.000 HD
ENDBRANCH  23  24
ENDBRANCH  16  23
ENDBRANCH   1  20
TORSDOF 3
ENDMDL
MODEL 3
REMARK VINA RESULT:      -8.1      3.804      7.826
REMARK  Name = 
REMARK  6 active torsions:
REMARK  status: ('A' for Active; 'I' for Inactive)
REMARK    1  A    between atoms: C_1  and  C_2
REMARK    2  A    between atoms: C_2  and  O_3
REMARK    3  A    between atoms: C_2  and  C_4
REMARK    4  A    between atoms: C_8  and  N_9
REMARK    5  A    between atoms: N_13  and  C_14
REMARK    6  A    between atoms: N_13  and  C_15
REMARK                            x       y       z     vdW  Elec       q    Type
REMARK                         _______ _______ _______ _____ _____    ______ ____
ROOT
ATOM      1  N   UNL     1       2.421   8.192  18.746  0.00  0.00    +0.000 N 
ATOM      2  C   UNL     1       2.653   6.881  18.342  0.00  0.00    +0.000 A 
ATOM      3  N   UNL     1       3.826   6.740  17.706  0.00  0.00    +0.000 NA
ATOM      4  C   UNL     1       4.224   5.501  17.362  0.00  0.00    +0.000 A 
ATOM      5  N   UNL     1       5.247   5.380  16.401  0.00  0.00    +0.000 N 
ATOM      6  C   UNL     1       5.263   6.467  15.422  0.00  0.00    +0.000 C 
ATOM      7  C   UNL     1       6.552   4.957  16.890  0.00  0.00    +0.000 C 
ATOM      8  C   UNL     1       3.520   4.362  17.774  0.00  0.00    +0.000 A 
ATOM      9  C   UNL     1       3.959   3.021  17.608  0.00  0.00    +0.000 A 
ATOM     10  C   UNL     1       3.142   1.949  17.944  0.00  0.00    +0.000 A 
ATOM     11  C   UNL     1       1.858   2.205  18.395  0.00  0.00    +0.000 A 
ATOM     12  C   UNL     1       1.435   3.528  18.588  0.00  0.00    +0.000 A 
ATOM     13  C   UNL     1       2.262   4.622  18.332  0.00  0.00    +0.000 A 
ATOM     14  N   UNL     1       1.821   5.864  18.599  0.00  0.00    +0.000 NA
ATOM     15  H   UNL     1       3.260   8.708  18.515  0.00  0.00    +0.000 HD
ENDROOT
BRANCH   1  20
ATOM     16  C   UNL     1      -0.693  10.256  18.278  0.00  0.00    +0.000 A 
ATOM     17  C   UNL     1      -0.887  10.659  19.613  0.00  0.00    +0.000 A 
ATOM     18  C   UNL     1      -0.036  10.212  20.616  0.00  0.00    +0.000 A 
ATOM     19  C   UNL     1       1.036   9.384  20.295  0.00  0.00    +0.000 A 
ATOM     20  C   UNL     1       1.299   8.998  18.968  0.00  0.00    +0.000 A 
ATOM     21  C   UNL     1       0.403   9.411  17.981  0.00  0.00    +0.000 A 
BRANCH  16  23
ATOM     22  C   UNL     1      -2.989  10.139  17.194  0.00  0.00    +0.000 C 
ATOM     23  C   UNL     1      -1.596  10.760  17.167  0.00  0.00    +0.000 C 
BRANCH  23  24
ATOM     24  O   UNL     1      -1.748  12.182  17.209  0.00  0.00    +0.000 OA
ATOM     25  H   UNL     1      -2.301  12.387  17.982  0.00  0.00    +0.000 HD
ENDBRANCH  23  24
ENDBRANCH  16  23
ENDBRANCH   1  20
TORSDOF 3
ENDMDL
MODEL 4
REMARK VINA RESULT:      -8.1      3.819      6.620
REMARK  Name = 
REMARK  6 active torsions:
REMARK  status: ('A' for Active; 'I' for Inactive)
REMARK    1  A    between atoms: C_1  and  C_2
REMARK    2  A    between atoms: C_2  and  O_3
REMARK    3  A    between atoms: C_2  and  C_4
REMARK    4  A    between atoms: C_8  and  N_9
REMARK    5  A    between atoms: N_13  and  C_14
REMARK    6  A    between atoms: N_13  and  C_15
REMARK                            x       y       z     vdW  Elec       q    Type
REMARK                         _______ _______ _______ _____ _____    ______ ____
ROOT
ATOM      1  N   UNL     1       2.199   8.107  17.862  0.00  0.00    +0.000 N 
ATOM      2  C   UNL     1       1.707   8.928  18.873  0.00  0.00    +0.000 A 
ATOM      3  N   UNL     1       1.491  10.184  18.454  0.00  0.00    +0.000 NA
ATOM      4  C   UNL     1       0.909  11.053  19.304  0.00  0.00    +0.000 A 
ATOM      5  N   UNL     1       1.008  12.426  19.011  0.00  0.00    +0.000 N 
ATOM      6  C   UNL     1       2.233  12.788  18.300  0.00  0.00    +0.000 C 
ATOM      7  C   UNL     1      -0.206  13.080  18.542  0.00  0.00    +0.000 C 
ATOM      8  C   UNL     1       0.402  10.640  20.542  0.00  0.00    +0.000 A 
ATOM      9  C   UNL     1      -0.377  11.442  21.418  0.00  0.00    +0.000 A 
ATOM     10  C   UNL     1      -0.740  10.988  22.680  0.00  0.00    +0.000 A 
ATOM     11  C   UNL     1      -0.280   9.751  23.101  0.00  0.00    +0.000 A 
ATOM     12  C   UNL     1       0.462   8.946  22.225  0.00  0.00    +0.000 A 
ATOM     13  C   UNL     1       0.775   9.346  20.926  0.00  0.00    +0.000 A 
ATOM     14  N   UNL     1       1.434   8.502  20.113  0.00  0.00    +0.000 NA
ATOM     15  H   UNL     1       2.198   8.670  17.021  0.00  0.00    +0.000 HD
ENDROOT
BRANCH   1  20
ATOM     16  C   UNL     1       5.117   5.783  17.354  0.00  0.00    +0.000 A 
ATOM     17  C   UNL     1       4.479   4.566  17.661  0.00  0.00    +0.000 A 
ATOM     18  C   UNL     1       3.148   4.548  18.064  0.00  0.00    +0.000 A 
ATOM     19  C   UNL     1       2.432   5.740  18.136  0.00  0.00    +0.000 A 
ATOM     20  C   UNL     1       3.014   6.973  17.789  0.00  0.00    +0.000 A 
ATOM     21  C   UNL     1       4.364   6.979  17.440  0.00  0.00    +0.000 A 
BRANCH  16  23
ATOM     22  C   UNL     1       7.402   4.675  17.444  0.00  0.00    +0.000 C 
ATOM     23  C   UNL     1       6.559   5.816  16.884  0.00  0.00    +0.000 C 
BRANCH  23  24
ATOM     24  O   UNL     1       6.654   5.772  15.456  0.00  0.00    +0.000 OA
ATOM     25  H   UNL     1       5.929   5.207  15.139  0.00  0.00    +0.000 HD
ENDBRANCH  23  24
ENDBRANCH  16  23
ENDBRANCH   1  20
TORSDOF 3
ENDMDL
MODEL 5
REMARK VINA RESULT:      -8.0      3.999      6.605
REMARK  Name = 
REMARK  6 active torsions:
REMARK  status: ('A' for Active; 'I' for Inactive)
REMARK    1  A    between atoms: C_1  and  C_2
REMARK    2  A    between atoms: C_2  and  O_3
REMARK    3  A    between atoms: C_2  and  C_4
REMARK    4  A    between atoms: C_8  and  N_9
REMARK    5  A    between atoms: N_13  and  C_14
REMARK    6  A    between atoms: N_13  and  C_15
REMARK                            x       y       z     vdW  Elec       q    Type
REMARK                         _______ _______ _______ _____ _____    ______ ____
ROOT
ATOM      1  N   UNL     1       2.362   7.941  17.908  0.00  0.00    +0.000 N 
ATOM      2  C   UNL     1       1.833   8.752  18.907  0.00  0.00    +0.000 A 
ATOM      3  N   UNL     1       1.532   9.982  18.463  0.00  0.00    +0.000 NA
ATOM      4  C   UNL     1       0.908  10.832  19.301  0.00  0.00    +0.000 A 
ATOM      5  N   UNL     1       0.915  12.202  18.976  0.00  0.00    +0.000 N 
ATOM      6  C   UNL     1       2.104  12.624  18.238  0.00  0.00    +0.000 C 
ATOM      7  C   UNL     1      -0.345  12.766  18.511  0.00  0.00    +0.000 C 
ATOM      8  C   UNL     1       0.444  10.417  20.557  0.00  0.00    +0.000 A 
ATOM      9  C   UNL     1      -0.372  11.189  21.426  0.00  0.00    +0.000 A 
ATOM     10  C   UNL     1      -0.687  10.743  22.704  0.00  0.00    +0.000 A 
ATOM     11  C   UNL     1      -0.143   9.548  23.145  0.00  0.00    +0.000 A 
ATOM     12  C   UNL     1       0.636   8.771  22.277  0.00  0.00    +0.000 A 
ATOM     13  C   UNL     1       0.905   9.158  20.964  0.00  0.00    +0.000 A 
ATOM     14  N   UNL     1       1.605   8.339  20.160  0.00  0.00    +0.000 NA
ATOM     15  H   UNL     1       2.313   8.482  17.054  0.00  0.00    +0.000 HD
ENDROOT
BRANCH   1  20
ATOM     16  C   UNL     1       3.961   4.556  18.311  0.00  0.00    +0.000 A 
ATOM     17  C   UNL     1       5.179   4.814  17.655  0.00  0.00    +0.000 A 
ATOM     18  C   UNL     1       5.417   6.052  17.069  0.00  0.00    +0.000 A 
ATOM     19  C   UNL     1       4.456   7.054  17.157  0.00  0.00    +0.000 A 
ATOM     20  C   UNL     1       3.246   6.858  17.848  0.00  0.00    +0.000 A 
ATOM     21  C   UNL     1       3.000   5.593  18.382  0.00  0.00    +0.000 A 
BRANCH  16  23
ATOM     22  C   UNL     1       3.020   2.208  18.065  0.00  0.00    +0.000 C 
ATOM     23  C   UNL     1       3.698   3.220  18.981  0.00  0.00    +0.000 C 
BRANCH  23  24
ATOM     24  O   UNL     1       4.903   2.627  19.475  0.00  0.00    +0.000 OA
ATOM     25  H   UNL     1       4.876   1.685  19.237  0.00  0.00    +0.000 HD
ENDBRANCH  23  24
ENDBRANCH  16  23
ENDBRANCH   1  20
TORSDOF 3
ENDMDL
MODEL 6
REMARK VINA RESULT:      -8.0      4.075      6.895
REMARK  Name = 
REMARK  6 active torsions:
REMARK  status: ('A' for Active; 'I' for Inactive)
REMARK    1  A    between atoms: C_1  and  C_2
REMARK    2  A    between atoms: C_2  and  O_3
REMARK    3  A    between atoms: C_2  and  C_4
REMARK    4  A    between atoms: C_8  and  N_9
REMARK    5  A    between atoms: N_13  and  C_14
REMARK    6  A    between atoms: N_13  and  C_15
REMARK                            x       y       z     vdW  Elec       q    Type
REMARK                         _______ _______ _______ _____ _____    ______ ____
ROOT
ATOM      1  N   UNL     1       2.036   8.135  17.937  0.00  0.00    +0.000 N 
ATOM      2  C   UNL     1       1.581   8.995  18.932  0.00  0.00    +0.000 A 
ATOM      3  N   UNL     1       1.483  10.264  18.508  0.00  0.00    +0.000 NA
ATOM      4  C   UNL     1       0.947  11.178  19.340  0.00  0.00    +0.000 A 
ATOM      5  N   UNL     1       1.168  12.539  19.052  0.00  0.00    +0.000 N 
ATOM      6  C   UNL     1       2.441  12.798  18.380  0.00  0.00    +0.000 C 
ATOM      7  C   UNL     1       0.027  13.289  18.545  0.00  0.00    +0.000 C 
ATOM      8  C   UNL     1       0.368  10.810  20.561  0.00  0.00    +0.000 A 
ATOM      9  C   UNL     1      -0.370  11.676  21.413  0.00  0.00    +0.000 A 
ATOM     10  C   UNL     1      -0.809  11.255  22.662  0.00  0.00    +0.000 A 
ATOM     11  C   UNL     1      -0.465   9.985  23.096  0.00  0.00    +0.000 A 
ATOM     12  C   UNL     1       0.236   9.120  22.243  0.00  0.00    +0.000 A 
ATOM     13  C   UNL     1       0.622   9.491  20.955  0.00  0.00    +0.000 A 
ATOM     14  N   UNL     1       1.235   8.594  20.162  0.00  0.00    +0.000 NA
ATOM     15  H   UNL     1       2.108   8.694  17.097  0.00  0.00    +0.000 HD
ENDROOT
BRANCH   1  20
ATOM     16  C   UNL     1       3.032   4.508  18.119  0.00  0.00    +0.000 A 
ATOM     17  C   UNL     1       4.389   4.640  17.773  0.00  0.00    +0.000 A 
ATOM     18  C   UNL     1       4.918   5.885  17.450  0.00  0.00    +0.000 A 
ATOM     19  C   UNL     1       4.106   7.014  17.498  0.00  0.00    +0.000 A 
ATOM     20  C   UNL     1       2.757   6.937  17.889  0.00  0.00    +0.000 A 
ATOM     21  C   UNL     1       2.229   5.674  18.156  0.00  0.00    +0.000 A 
BRANCH  16  23
ATOM     22  C   UNL     1       1.149   3.272  19.297  0.00  0.00    +0.000 C 
ATOM     23  C   UNL     1       2.447   3.162  18.504  0.00  0.00    +0.000 C 
BRANCH  23  24
ATOM     24  O   UNL     1       2.194   2.344  17.357  0.00  0.00    +0.000 OA
ATOM     25  H   UNL     1       3.018   1.869  17.158  0.00  0.00    +0.000 HD
ENDBRANCH  23  24
ENDBRANCH  16  23
ENDBRANCH   1  20
TORSDOF 3
ENDMDL
MODEL 7
REMARK VINA RESULT:      -8.0      0.960      1.034
REMARK  Name = 
REMARK  6 active torsions:
REMARK  status: ('A' for Active; 'I' for Inactive)
REMARK    1  A    between atoms: C_1  and  C_2
REMARK    2  A    between atoms: C_2  and  O_3
REMARK    3  A    between atoms: C_2  and  C_4
REMARK    4  A    between atoms: C_8  and  N_9
REMARK    5  A    between atoms: N_13  and  C_14
REMARK    6  A    between atoms: N_13  and  C_15
REMARK                            x       y       z     vdW  Elec       q    Type
REMARK                         _______ _______ _______ _____ _____    ______ ____
ROOT
ATOM      1  N   UNL     1       5.253   4.016  17.049  0.00  0.00    +0.000 N 
ATOM      2  C   UNL     1       4.242   4.635  17.779  0.00  0.00    +0.000 A 
ATOM      3  N   UNL     1       3.686   3.815  18.683  0.00  0.00    +0.000 NA
ATOM      4  C   UNL     1       2.772   4.322  19.533  0.00  0.00    +0.000 A 
ATOM      5  N   UNL     1       1.942   3.418  20.223  0.00  0.00    +0.000 N 
ATOM      6  C   UNL     1       1.666   2.189  19.480  0.00  0.00    +0.000 C 
ATOM      7  C   UNL     1       2.209   3.245  21.644  0.00  0.00    +0.000 C 
ATOM      8  C   UNL     1       2.502   5.695  19.586  0.00  0.00    +0.000 A 
ATOM      9  C   UNL     1       1.690   6.335  20.561  0.00  0.00    +0.000 A 
ATOM     10  C   UNL     1       1.382   7.686  20.468  0.00  0.00    +0.000 A 
ATOM     11  C   UNL     1       1.833   8.398  19.369  0.00  0.00    +0.000 A 
ATOM     12  C   UNL     1       2.659   7.776  18.423  0.00  0.00    +0.000 A 
ATOM     13  C   UNL     1       3.048   6.441  18.533  0.00  0.00    +0.000 A 
ATOM     14  N   UNL     1       3.894   5.919  17.628  0.00  0.00    +0.000 NA
ATOM     15  H   UNL     1       5.364   3.094  17.453  0.00  0.00    +0.000 HD
ENDROOT
BRANCH   1  20
ATOM     16  C   UNL     1       6.006   3.602  13.383  0.00  0.00    +0.000 A 
ATOM     17  C   UNL     1       7.063   4.526  13.275  0.00  0.00    +0.000 A 
ATOM     18  C   UNL     1       7.458   5.278  14.375  0.00  0.00    +0.000 A 
ATOM     19  C   UNL     1       6.825   5.095  15.601  0.00  0.00    +0.000 A 
ATOM     20  C   UNL     1       5.800   4.146  15.768  0.00  0.00    +0.000 A 
ATOM     21  C   UNL     1       5.379   3.440  14.642  0.00  0.00    +0.000 A 
BRANCH  16  23
ATOM     22  C   UNL     1       4.537   3.425  11.317  0.00  0.00    +0.000 C 
ATOM     23  C   UNL     1       5.583   2.752  12.200  0.00  0.00    +0.000 C 
BRANCH  23  24
ATOM     24  O   UNL     1       6.696   2.401  11.371  0.00  0.00    +0.000 OA
ATOM     25  H   UNL     1       7.437   2.188  11.964  0.00  0.00    +0.000 HD
ENDBRANCH  23  24
ENDBRANCH  16  23
ENDBRANCH   1  20
TORSDOF 3
ENDMDL
MODEL 8
REMARK VINA RESULT:      -7.8      3.733      7.773
REMARK  Name = 
REMARK  6 active torsions:
REMARK  status: ('A' for Active; 'I' for Inactive)
REMARK    1  A    between atoms: C_1  and  C_2
REMARK    2  A    between atoms: C_2  and  O_3
REMARK    3  A    between atoms: C_2  and  C_4
REMARK    4  A    between atoms: C_8  and  N_9
REMARK    5  A    between atoms: N_13  and  C_14
REMARK    6  A    between atoms: N_13  and  C_15
REMARK                            x       y       z     vdW  Elec       q    Type
REMARK                         _______ _______ _______ _____ _____    ______ ____
ROOT
ATOM      1  N   UNL     1       2.378   8.645  18.621  0.00  0.00    +0.000 N 
ATOM      2  C   UNL     1       2.812   7.323  18.653  0.00  0.00    +0.000 A 
ATOM      3  N   UNL     1       3.899   7.122  17.895  0.00  0.00    +0.000 NA
ATOM      4  C   UNL     1       4.488   5.911  17.926  0.00  0.00    +0.000 A 
ATOM      5  N   UNL     1       5.385   5.587  16.889  0.00  0.00    +0.000 N 
ATOM      6  C   UNL     1       5.062   6.225  15.614  0.00  0.00    +0.000 C 
ATOM      7  C   UNL     1       6.799   5.561  17.237  0.00  0.00    +0.000 C 
ATOM      8  C   UNL     1       4.082   4.920  18.829  0.00  0.00    +0.000 A 
ATOM      9  C   UNL     1       4.754   3.688  19.052  0.00  0.00    +0.000 A 
ATOM     10  C   UNL     1       4.214   2.714  19.882  0.00  0.00    +0.000 A 
ATOM     11  C   UNL     1       2.972   2.937  20.452  0.00  0.00    +0.000 A 
ATOM     12  C   UNL     1       2.324   4.165  20.258  0.00  0.00    +0.000 A 
ATOM     13  C   UNL     1       2.878   5.190  19.491  0.00  0.00    +0.000 A 
ATOM     14  N   UNL     1       2.237   6.368  19.396  0.00  0.00    +0.000 NA
ATOM     15  H   UNL     1       3.062   9.150  18.073  0.00  0.00    +0.000 HD
ENDROOT
BRANCH   1  20
ATOM     16  C   UNL     1      -1.019  10.136  17.975  0.00  0.00    +0.000 A 
ATOM     17  C   UNL     1      -1.234  10.734  19.231  0.00  0.00    +0.000 A 
ATOM     18  C   UNL     1      -0.299  10.593  20.250  0.00  0.00    +0.000 A 
ATOM     19  C   UNL     1       0.874   9.881  20.017  0.00  0.00    +0.000 A 
ATOM     20  C   UNL     1       1.155   9.311  18.762  0.00  0.00    +0.000 A 
ATOM     21  C   UNL     1       0.181   9.415  17.768  0.00  0.00    +0.000 A 
BRANCH  16  23
ATOM     22  C   UNL     1      -3.439   9.917  17.231  0.00  0.00    +0.000 C 
ATOM     23  C   UNL     1      -2.016  10.306  16.844  0.00  0.00    +0.000 C 
BRANCH  23  24
ATOM     24  O   UNL     1      -2.046  11.652  16.359  0.00  0.00    +0.000 OA
ATOM     25  H   UNL     1      -2.617  11.659  15.572  0.00  0.00    +0.000 HD
ENDBRANCH  23  24
ENDBRANCH  16  23
ENDBRANCH   1  20
TORSDOF 3
ENDMDL
MODEL 9
REMARK VINA RESULT:      -7.6      4.111      8.195
REMARK  Name = 
REMARK  6 active torsions:
REMARK  status: ('A' for Active; 'I' for Inactive)
REMARK    1  A    between atoms: C_1  and  C_2
REMARK    2  A    between atoms: C_2  and  O_3
REMARK    3  A    between atoms: C_2  and  C_4
REMARK    4  A    between atoms: C_8  and  N_9
REMARK    5  A    between atoms: N_13  and  C_14
REMARK    6  A    between atoms: N_13  and  C_15
REMARK                            x       y       z     vdW  Elec       q    Type
REMARK                         _______ _______ _______ _____ _____    ______ ____
ROOT
ATOM      1  N   UNL     1       2.511   7.752  19.950  0.00  0.00    +0.000 N 
ATOM      2  C   UNL     1       2.633   6.510  19.335  0.00  0.00    +0.000 A 
ATOM      3  N   UNL     1       3.744   6.414  18.590  0.00  0.00    +0.000 NA
ATOM      4  C   UNL     1       4.041   5.224  18.031  0.00  0.00    +0.000 A 
ATOM      5  N   UNL     1       4.979   5.206  16.981  0.00  0.00    +0.000 N 
ATOM      6  C   UNL     1       4.987   6.428  16.179  0.00  0.00    +0.000 C 
ATOM      7  C   UNL     1       6.290   4.650  17.291  0.00  0.00    +0.000 C 
ATOM      8  C   UNL     1       3.303   4.070  18.325  0.00  0.00    +0.000 A 
ATOM      9  C   UNL     1       3.648   2.752  17.924  0.00  0.00    +0.000 A 
ATOM     10  C   UNL     1       2.796   1.681  18.161  0.00  0.00    +0.000 A 
ATOM     11  C   UNL     1       1.566   1.925  18.751  0.00  0.00    +0.000 A 
ATOM     12  C   UNL     1       1.240   3.220  19.175  0.00  0.00    +0.000 A 
ATOM     13  C   UNL     1       2.108   4.300  19.018  0.00  0.00    +0.000 A 
ATOM     14  N   UNL     1       1.764   5.505  19.505  0.00  0.00    +0.000 NA
ATOM     15  H   UNL     1       3.360   8.257  19.729  0.00  0.00    +0.000 HD
ENDROOT
BRANCH   1  20
ATOM     16  C   UNL     1      -0.344  10.205  20.074  0.00  0.00    +0.000 A 
ATOM     17  C   UNL     1      -0.599  10.168  21.457  0.00  0.00    +0.000 A 
ATOM     18  C   UNL     1       0.125   9.320  22.287  0.00  0.00    +0.000 A 
ATOM     19  C   UNL     1       1.133   8.524  21.751  0.00  0.00    +0.000 A 
ATOM     20  C   UNL     1       1.459   8.567  20.383  0.00  0.00    +0.000 A 
ATOM     21  C   UNL     1       0.685   9.382  19.556  0.00  0.00    +0.000 A 
BRANCH  16  23
ATOM     22  C   UNL     1      -1.815  10.433  18.014  0.00  0.00    +0.000 C 
ATOM     23  C   UNL     1      -1.105  11.147  19.160  0.00  0.00    +0.000 C 
BRANCH  23  24
ATOM     24  O   UNL     1      -2.083  11.908  19.876  0.00  0.00    +0.000 OA
ATOM     25  H   UNL     1      -1.715  12.087  20.758  0.00  0.00    +0.000 HD
ENDBRANCH  23  24
ENDBRANCH  16  23
ENDBRANCH   1  20
TORSDOF 3
ENDMDL
