MODEL 1
REMARK VINA RESULT:      -7.1      0.000      0.000
REMARK  Name = 
REMARK  7 active torsions:
REMARK  status: ('A' for Active; 'I' for Inactive)
REMARK    1  A    between atoms: C_1  and  C_2
REMARK    2  A    between atoms: C_2  and  C_3
REMARK    3  A    between atoms: C_3  and  C_4
REMARK    4  A    between atoms: C_3  and  C_6
REMARK    5  A    between atoms: C_4  and  C_5
REMARK    6  A    between atoms: C_11  and  C_13
REMARK    7  A    between atoms: C_16  and  N_17
REMARK                            x       y       z     vdW  Elec       q    Type
REMARK                         _______ _______ _______ _____ _____    ______ ____
ROOT
ATOM      1  C   UNL     1      -0.249  11.001  21.797  0.00  0.00    +0.000 A 
ATOM      2  N   UNL     1       0.104  10.545  22.984  0.00  0.00    +0.000 NA
ATOM      3  N   UNL     1       0.795   9.351  22.899  0.00  0.00    +0.000 NA
ATOM      4  C   UNL     1       0.976   8.971  21.654  0.00  0.00    +0.000 A 
ATOM      5  N   UNL     1       1.628   7.805  21.322  0.00  0.00    +0.000 N 
ATOM      6  C   UNL     1       2.019   7.446  20.053  0.00  0.00    +0.000 C 
ATOM      7  O   UNL     1       1.909   8.125  19.040  0.00  0.00    +0.000 OA
ATOM      8  S   UNL     1       0.262  10.003  20.499  0.00  0.00    +0.000 S 
ATOM      9  H   UNL     1       1.834   7.229  22.123  0.00  0.00    +0.000 HD
ENDROOT
BRANCH   6  10
ATOM     10  C   UNL     1       2.625   6.091  19.892  0.00  0.00    +0.000 A 
ATOM     11  C   UNL     1       2.012   5.031  20.583  0.00  0.00    +0.000 A 
ATOM     12  C   UNL     1       2.518   3.732  20.503  0.00  0.00    +0.000 A 
ATOM     13  C   UNL     1       3.646   3.486  19.715  0.00  0.00    +0.000 A 
ATOM     14  C   UNL     1       4.254   4.526  18.998  0.00  0.00    +0.000 A 
ATOM     15  C   UNL     1       3.741   5.830  19.085  0.00  0.00    +0.000 A 
BRANCH  13  16
ATOM     16  N   UNL     1       4.193   2.124  19.642  0.00  0.00    +0.000 N 
ATOM     17  O   UNL     1       5.041   1.795  20.483  0.00  0.00    +0.000 OA
ATOM     18  O   UNL     1       3.775   1.386  18.735  0.00  0.00    +0.000 OA
ENDBRANCH  13  16
ENDBRANCH   6  10
BRANCH   1  19
ATOM     19  C   UNL     1      -1.062  12.246  21.544  0.00  0.00    +0.000 C 
BRANCH  19  21
ATOM     20  C   UNL     1      -2.980  12.408  19.831  0.00  0.00    +0.000 C 
ATOM     21  C   UNL     1      -1.478  12.300  20.059  0.00  0.00    +0.000 C 
ENDBRANCH  19  21
BRANCH  19  22
ATOM     22  C   UNL     1      -2.217  12.385  22.556  0.00  0.00    +0.000 C 
ATOM     23  C   UNL     1      -2.125  13.567  23.512  0.00  0.00    +0.000 C 
ENDBRANCH  19  22
ENDBRANCH   1  19
TORSDOF 5
ENDMDL
MODEL 2
REMARK VINA RESULT:      -7.1      7.940     10.895
REMARK  Name = 
REMARK  7 active torsions:
REMARK  status: ('A' for Active; 'I' for Inactive)
REMARK    1  A    between atoms: C_1  and  C_2
REMARK    2  A    between atoms: C_2  and  C_3
REMARK    3  A    between atoms: C_3  and  C_4
REMARK    4  A    between atoms: C_3  and  C_6
REMARK    5  A    between atoms: C_4  and  C_5
REMARK    6  A    between atoms: C_11  and  C_13
REMARK    7  A    between atoms: C_16  and  N_17
REMARK                            x       y       z     vdW  Elec       q    Type
REMARK                         _______ _______ _______ _____ _____    ______ ____
ROOT
ATOM      1  C   UNL     1       6.870   5.011  17.579  0.00  0.00    +0.000 A 
ATOM      2  N   UNL     1       7.353   4.763  18.781  0.00  0.00    +0.000 NA
ATOM      3  N   UNL     1       7.991   5.862  19.324  0.00  0.00    +0.000 NA
ATOM      4  C   UNL     1       7.930   6.911  18.534  0.00  0.00    +0.000 A 
ATOM      5  N   UNL     1       8.507   8.118  18.858  0.00  0.00    +0.000 N 
ATOM      6  C   UNL     1       8.321   9.297  18.175  0.00  0.00    +0.000 C 
ATOM      7  O   UNL     1       7.571   9.473  17.223  0.00  0.00    +0.000 OA
ATOM      8  S   UNL     1       7.153   6.617  17.045  0.00  0.00    +0.000 S 
ATOM      9  H   UNL     1       9.074   8.071  19.691  0.00  0.00    +0.000 HD
ENDROOT
BRANCH   6  10
ATOM     10  C   UNL     1       9.118  10.474  18.632  0.00  0.00    +0.000 A 
ATOM     11  C   UNL     1       9.167  11.585  17.771  0.00  0.00    +0.000 A 
ATOM     12  C   UNL     1       9.899  12.725  18.108  0.00  0.00    +0.000 A 
ATOM     13  C   UNL     1      10.584  12.761  19.326  0.00  0.00    +0.000 A 
ATOM     14  C   UNL     1      10.525  11.673  20.208  0.00  0.00    +0.000 A 
ATOM     15  C   UNL     1       9.789  10.529  19.861  0.00  0.00    +0.000 A 
BRANCH  13  16
ATOM     16  N   UNL     1      11.370  13.951  19.677  0.00  0.00    +0.000 N 
ATOM     17  O   UNL     1      11.024  14.600  20.674  0.00  0.00    +0.000 OA
ATOM     18  O   UNL     1      12.333  14.238  18.948  0.00  0.00    +0.000 OA
ENDBRANCH  13  16
ENDBRANCH   6  10
BRANCH   1  19
ATOM     19  C   UNL     1       6.172   4.011  16.692  0.00  0.00    +0.000 C 
BRANCH  19  21
ATOM     20  C   UNL     1       3.962   3.084  17.637  0.00  0.00    +0.000 C 
ATOM     21  C   UNL     1       4.644   4.178  16.826  0.00  0.00    +0.000 C 
ENDBRANCH  19  21
BRANCH  19  22
ATOM     22  C   UNL     1       6.715   4.056  15.250  0.00  0.00    +0.000 C 
ATOM     23  C   UNL     1       5.680   4.280  14.155  0.00  0.00    +0.000 C 
ENDBRANCH  19  22
ENDBRANCH   1  19
TORSDOF 5
ENDMDL
MODEL 3
REMARK VINA RESULT:      -7.0      0.745      1.355
REMARK  Name = 
REMARK  7 active torsions:
REMARK  status: ('A' for Active; 'I' for Inactive)
REMARK    1  A    between atoms: C_1  and  C_2
REMARK    2  A    between atoms: C_2  and  C_3
REMARK    3  A    between atoms: C_3  and  C_4
REMARK    4  A    between atoms: C_3  and  C_6
REMARK    5  A    between atoms: C_4  and  C_5
REMARK    6  A    between atoms: C_11  and  C_13
REMARK    7  A    between atoms: C_16  and  N_17
REMARK                            x       y       z     vdW  Elec       q    Type
REMARK                         _______ _______ _______ _____ _____    ______ ____
ROOT
ATOM      1  C   UNL     1      -0.190  11.010  21.838  0.00  0.00    +0.000 A 
ATOM      2  N   UNL     1       0.190  10.548  23.013  0.00  0.00    +0.000 NA
ATOM      3  N   UNL     1       0.873   9.351  22.906  0.00  0.00    +0.000 NA
ATOM      4  C   UNL     1       1.023   8.975  21.656  0.00  0.00    +0.000 A 
ATOM      5  N   UNL     1       1.662   7.808  21.304  0.00  0.00    +0.000 N 
ATOM      6  C   UNL     1       2.020   7.452  20.024  0.00  0.00    +0.000 C 
ATOM      7  O   UNL     1       1.888   8.136  19.017  0.00  0.00    +0.000 OA
ATOM      8  S   UNL     1       0.285  10.014  20.523  0.00  0.00    +0.000 S 
ATOM      9  H   UNL     1       1.885   7.228  22.098  0.00  0.00    +0.000 HD
ENDROOT
BRANCH   6  10
ATOM     10  C   UNL     1       2.616   6.095  19.843  0.00  0.00    +0.000 A 
ATOM     11  C   UNL     1       1.852   4.998  20.278  0.00  0.00    +0.000 A 
ATOM     12  C   UNL     1       2.335   3.693  20.162  0.00  0.00    +0.000 A 
ATOM     13  C   UNL     1       3.595   3.479  19.595  0.00  0.00    +0.000 A 
ATOM     14  C   UNL     1       4.359   4.560  19.132  0.00  0.00    +0.000 A 
ATOM     15  C   UNL     1       3.868   5.869  19.255  0.00  0.00    +0.000 A 
BRANCH  13  16
ATOM     16  N   UNL     1       4.115   2.110  19.487  0.00  0.00    +0.000 N 
ATOM     17  O   UNL     1       5.001   1.764  20.280  0.00  0.00    +0.000 OA
ATOM     18  O   UNL     1       3.638   1.383  18.601  0.00  0.00    +0.000 OA
ENDBRANCH  13  16
ENDBRANCH   6  10
BRANCH   1  19
ATOM     19  C   UNL     1      -1.004  12.258  21.609  0.00  0.00    +0.000 C 
BRANCH  19  21
ATOM     20  C   UNL     1      -3.048  12.407  23.171  0.00  0.00    +0.000 C 
ATOM     21  C   UNL     1      -1.581  12.754  22.952  0.00  0.00    +0.000 C 
ENDBRANCH  19  21
BRANCH  19  22
ATOM     22  C   UNL     1      -0.216  13.310  20.803  0.00  0.00    +0.000 C 
ATOM     23  C   UNL     1       0.729  14.194  21.606  0.00  0.00    +0.000 C 
ENDBRANCH  19  22
ENDBRANCH   1  19
TORSDOF 5
ENDMDL
MODEL 4
REMARK VINA RESULT:      -6.9      0.250      1.061
REMARK  Name = 
REMARK  7 active torsions:
REMARK  status: ('A' for Active; 'I' for Inactive)
REMARK    1  A    between atoms: C_1  and  C_2
REMARK    2  A    between atoms: C_2  and  C_3
REMARK    3  A    between atoms: C_3  and  C_4
REMARK    4  A    between atoms: C_3  and  C_6
REMARK    5  A    between atoms: C_4  and  C_5
REMARK    6  A    between atoms: C_11  and  C_13
REMARK    7  A    between atoms: C_16  and  N_17
REMARK                            x       y       z     vdW  Elec       q    Type
REMARK                         _______ _______ _______ _____ _____    ______ ____
ROOT
ATOM      1  C   UNL     1      -0.206  11.161  21.777  0.00  0.00    +0.000 A 
ATOM      2  N   UNL     1       0.044  10.696  22.986  0.00  0.00    +0.000 NA
ATOM      3  N   UNL     1       0.656   9.457  22.951  0.00  0.00    +0.000 NA
ATOM      4  C   UNL     1       0.883   9.052  21.721  0.00  0.00    +0.000 A 
ATOM      5  N   UNL     1       1.472   7.840  21.438  0.00  0.00    +0.000 N 
ATOM      6  C   UNL     1       1.911   7.440  20.197  0.00  0.00    +0.000 C 
ATOM      7  O   UNL     1       1.907   8.114  19.174  0.00  0.00    +0.000 OA
ATOM      8  S   UNL     1       0.310  10.115  20.519  0.00  0.00    +0.000 S 
ATOM      9  H   UNL     1       1.591   7.261  22.254  0.00  0.00    +0.000 HD
ENDROOT
BRANCH   6  10
ATOM     10  C   UNL     1       2.431   6.046  20.082  0.00  0.00    +0.000 A 
ATOM     11  C   UNL     1       3.641   5.870  19.387  0.00  0.00    +0.000 A 
ATOM     12  C   UNL     1       4.197   4.601  19.218  0.00  0.00    +0.000 A 
ATOM     13  C   UNL     1       3.540   3.491  19.759  0.00  0.00    +0.000 A 
ATOM     14  C   UNL     1       2.347   3.650  20.477  0.00  0.00    +0.000 A 
ATOM     15  C   UNL     1       1.793   4.929  20.640  0.00  0.00    +0.000 A 
BRANCH  13  16
ATOM     16  N   UNL     1       4.111   2.151  19.568  0.00  0.00    +0.000 N 
ATOM     17  O   UNL     1       5.038   1.805  20.314  0.00  0.00    +0.000 OA
ATOM     18  O   UNL     1       3.633   1.446  18.664  0.00  0.00    +0.000 OA
ENDBRANCH  13  16
ENDBRANCH   6  10
BRANCH   1  19
ATOM     19  C   UNL     1      -0.917  12.455  21.467  0.00  0.00    +0.000 C 
BRANCH  19  21
ATOM     20  C   UNL     1      -2.782  12.333  19.694  0.00  0.00    +0.000 C 
ATOM     21  C   UNL     1      -1.293  12.494  19.971  0.00  0.00    +0.000 C 
ENDBRANCH  19  21
BRANCH  19  22
ATOM     22  C   UNL     1      -2.080  12.713  22.445  0.00  0.00    +0.000 C 
ATOM     23  C   UNL     1      -2.077  14.069  23.140  0.00  0.00    +0.000 C 
ENDBRANCH  19  22
ENDBRANCH   1  19
TORSDOF 5
ENDMDL
MODEL 5
REMARK VINA RESULT:      -6.8      3.267      8.913
REMARK  Name = 
REMARK  7 active torsions:
REMARK  status: ('A' for Active; 'I' for Inactive)
REMARK    1  A    between atoms: C_1  and  C_2
REMARK    2  A    between atoms: C_2  and  C_3
REMARK    3  A    between atoms: C_3  and  C_4
REMARK    4  A    between atoms: C_3  and  C_6
REMARK    5  A    between atoms: C_4  and  C_5
REMARK    6  A    between atoms: C_11  and  C_13
REMARK    7  A    between atoms: C_16  and  N_17
REMARK                            x       y       z     vdW  Elec       q    Type
REMARK                         _______ _______ _______ _____ _____    ______ ____
ROOT
ATOM      1  C   UNL     1       4.962   4.688  17.863  0.00  0.00    +0.000 A 
ATOM      2  N   UNL     1       4.613   4.112  18.997  0.00  0.00    +0.000 NA
ATOM      3  N   UNL     1       3.733   4.889  19.728  0.00  0.00    +0.000 NA
ATOM      4  C   UNL     1       3.417   6.000  19.101  0.00  0.00    +0.000 A 
ATOM      5  N   UNL     1       2.565   6.938  19.640  0.00  0.00    +0.000 N 
ATOM      6  C   UNL     1       2.045   8.019  18.968  0.00  0.00    +0.000 C 
ATOM      7  O   UNL     1       2.202   8.280  17.781  0.00  0.00    +0.000 OA
ATOM      8  S   UNL     1       4.218   6.213  17.611  0.00  0.00    +0.000 S 
ATOM      9  H   UNL     1       2.317   6.739  20.597  0.00  0.00    +0.000 HD
ENDROOT
BRANCH   6  10
ATOM     10  C   UNL     1       1.218   8.974  19.763  0.00  0.00    +0.000 A 
ATOM     11  C   UNL     1       1.132   8.745  21.148  0.00  0.00    +0.000 A 
ATOM     12  C   UNL     1       0.370   9.578  21.969  0.00  0.00    +0.000 A 
ATOM     13  C   UNL     1      -0.308  10.661  21.402  0.00  0.00    +0.000 A 
ATOM     14  C   UNL     1      -0.212  10.920  20.028  0.00  0.00    +0.000 A 
ATOM     15  C   UNL     1       0.553  10.077  19.208  0.00  0.00    +0.000 A 
BRANCH  13  16
ATOM     16  N   UNL     1      -1.126  11.530  22.259  0.00  0.00    +0.000 N 
ATOM     17  O   UNL     1      -1.797  12.416  21.713  0.00  0.00    +0.000 OA
ATOM     18  O   UNL     1      -1.089  11.327  23.484  0.00  0.00    +0.000 OA
ENDBRANCH  13  16
ENDBRANCH   6  10
BRANCH   1  19
ATOM     19  C   UNL     1       5.950   4.133  16.868  0.00  0.00    +0.000 C 
BRANCH  19  21
ATOM     20  C   UNL     1       6.391   4.268  14.333  0.00  0.00    +0.000 C 
ATOM     21  C   UNL     1       5.354   4.214  15.446  0.00  0.00    +0.000 C 
ENDBRANCH  19  21
BRANCH  19  22
ATOM     22  C   UNL     1       7.343   4.773  17.034  0.00  0.00    +0.000 C 
ATOM     23  C   UNL     1       7.693   5.249  18.438  0.00  0.00    +0.000 C 
ENDBRANCH  19  22
ENDBRANCH   1  19
TORSDOF 5
ENDMDL
MODEL 6
REMARK VINA RESULT:      -6.8      3.380      8.908
REMARK  Name = 
REMARK  7 active torsions:
REMARK  status: ('A' for Active; 'I' for Inactive)
REMARK    1  A    between atoms: C_1  and  C_2
REMARK    2  A    between atoms: C_2  and  C_3
REMARK    3  A    between atoms: C_3  and  C_4
REMARK    4  A    between atoms: C_3  and  C_6
REMARK    5  A    between atoms: C_4  and  C_5
REMARK    6  A    between atoms: C_11  and  C_13
REMARK    7  A    between atoms: C_16  and  N_17
REMARK                            x       y       z     vdW  Elec       q    Type
REMARK                         _______ _______ _______ _____ _____    ______ ____
ROOT
ATOM      1  C   UNL     1       3.737   5.470  17.542  0.00  0.00    +0.000 A 
ATOM      2  N   UNL     1       4.139   6.618  17.033  0.00  0.00    +0.000 NA
ATOM      3  N   UNL     1       3.540   7.700  17.651  0.00  0.00    +0.000 NA
ATOM      4  C   UNL     1       2.744   7.334  18.629  0.00  0.00    +0.000 A 
ATOM      5  N   UNL     1       2.028   8.238  19.381  0.00  0.00    +0.000 N 
ATOM      6  C   UNL     1       1.333   7.943  20.530  0.00  0.00    +0.000 C 
ATOM      7  O   UNL     1       1.294   6.858  21.096  0.00  0.00    +0.000 OA
ATOM      8  S   UNL     1       2.612   5.645  18.825  0.00  0.00    +0.000 S 
ATOM      9  H   UNL     1       2.087   9.179  19.023  0.00  0.00    +0.000 HD
ENDROOT
BRANCH   6  10
ATOM     10  C   UNL     1       0.539   9.050  21.141  0.00  0.00    +0.000 A 
ATOM     11  C   UNL     1       0.264   8.955  22.517  0.00  0.00    +0.000 A 
ATOM     12  C   UNL     1      -0.483   9.936  23.172  0.00  0.00    +0.000 A 
ATOM     13  C   UNL     1      -0.955  11.034  22.444  0.00  0.00    +0.000 A 
ATOM     14  C   UNL     1      -0.667  11.158  21.078  0.00  0.00    +0.000 A 
ATOM     15  C   UNL     1       0.082  10.166  20.426  0.00  0.00    +0.000 A 
BRANCH  13  16
ATOM     16  N   UNL     1      -1.756  12.060  23.124  0.00  0.00    +0.000 N 
ATOM     17  O   UNL     1      -1.177  13.084  23.511  0.00  0.00    +0.000 OA
ATOM     18  O   UNL     1      -2.968  11.834  23.276  0.00  0.00    +0.000 OA
ENDBRANCH  13  16
ENDBRANCH   6  10
BRANCH   1  19
ATOM     19  C   UNL     1       4.152   4.103  17.057  0.00  0.00    +0.000 C 
BRANCH  19  21
ATOM     20  C   UNL     1       5.479   4.263  14.854  0.00  0.00    +0.000 C 
ATOM     21  C   UNL     1       5.533   4.193  16.375  0.00  0.00    +0.000 C 
ENDBRANCH  19  21
BRANCH  19  22
ATOM     22  C   UNL     1       4.035   3.045  18.172  0.00  0.00    +0.000 C 
ATOM     23  C   UNL     1       2.993   1.957  17.951  0.00  0.00    +0.000 C 
ENDBRANCH  19  22
ENDBRANCH   1  19
TORSDOF 5
ENDMDL
MODEL 7
REMARK VINA RESULT:      -6.8      3.368      9.000
REMARK  Name = 
REMARK  7 active torsions:
REMARK  status: ('A' for Active; 'I' for Inactive)
REMARK    1  A    between atoms: C_1  and  C_2
REMARK    2  A    between atoms: C_2  and  C_3
REMARK    3  A    between atoms: C_3  and  C_4
REMARK    4  A    between atoms: C_3  and  C_6
REMARK    5  A    between atoms: C_4  and  C_5
REMARK    6  A    between atoms: C_11  and  C_13
REMARK    7  A    between atoms: C_16  and  N_17
REMARK                            x       y       z     vdW  Elec       q    Type
REMARK                         _______ _______ _______ _____ _____    ______ ____
ROOT
ATOM      1  C   UNL     1       3.708   5.523  17.789  0.00  0.00    +0.000 A 
ATOM      2  N   UNL     1       4.039   6.653  17.194  0.00  0.00    +0.000 NA
ATOM      3  N   UNL     1       3.406   7.744  17.759  0.00  0.00    +0.000 NA
ATOM      4  C   UNL     1       2.657   7.406  18.785  0.00  0.00    +0.000 A 
ATOM      5  N   UNL     1       1.920   8.324  19.499  0.00  0.00    +0.000 N 
ATOM      6  C   UNL     1       1.273   8.073  20.687  0.00  0.00    +0.000 C 
ATOM      7  O   UNL     1       1.304   7.027  21.322  0.00  0.00    +0.000 OA
ATOM      8  S   UNL     1       2.613   5.730  19.093  0.00  0.00    +0.000 S 
ATOM      9  H   UNL     1       1.922   9.241  19.079  0.00  0.00    +0.000 HD
ENDROOT
BRANCH   6  10
ATOM     10  C   UNL     1       0.445   9.180  21.250  0.00  0.00    +0.000 A 
ATOM     11  C   UNL     1       0.091   9.086  22.608  0.00  0.00    +0.000 A 
ATOM     12  C   UNL     1      -0.693  10.067  23.217  0.00  0.00    +0.000 A 
ATOM     13  C   UNL     1      -1.124  11.163  22.463  0.00  0.00    +0.000 A 
ATOM     14  C   UNL     1      -0.759  11.286  21.115  0.00  0.00    +0.000 A 
ATOM     15  C   UNL     1       0.028  10.294  20.508  0.00  0.00    +0.000 A 
BRANCH  13  16
ATOM     16  N   UNL     1      -1.964  12.188  23.095  0.00  0.00    +0.000 N 
ATOM     17  O   UNL     1      -3.137  11.891  23.362  0.00  0.00    +0.000 OA
ATOM     18  O   UNL     1      -1.449  13.296  23.318  0.00  0.00    +0.000 OA
ENDBRANCH  13  16
ENDBRANCH   6  10
BRANCH   1  19
ATOM     19  C   UNL     1       4.175   4.148  17.380  0.00  0.00    +0.000 C 
BRANCH  19  21
ATOM     20  C   UNL     1       3.374   1.768  17.956  0.00  0.00    +0.000 C 
ATOM     21  C   UNL     1       2.995   3.156  17.456  0.00  0.00    +0.000 C 
ENDBRANCH  19  21
BRANCH  19  22
ATOM     22  C   UNL     1       4.921   4.181  16.031  0.00  0.00    +0.000 C 
ATOM     23  C   UNL     1       6.436   4.319  16.112  0.00  0.00    +0.000 C 
ENDBRANCH  19  22
ENDBRANCH   1  19
TORSDOF 5
ENDMDL
MODEL 8
REMARK VINA RESULT:      -6.8      0.732      1.807
REMARK  Name = 
REMARK  7 active torsions:
REMARK  status: ('A' for Active; 'I' for Inactive)
REMARK    1  A    between atoms: C_1  and  C_2
REMARK    2  A    between atoms: C_2  and  C_3
REMARK    3  A    between atoms: C_3  and  C_4
REMARK    4  A    between atoms: C_3  and  C_6
REMARK    5  A    between atoms: C_4  and  C_5
REMARK    6  A    between atoms: C_11  and  C_13
REMARK    7  A    between atoms: C_16  and  N_17
REMARK                            x       y       z     vdW  Elec       q    Type
REMARK                         _______ _______ _______ _____ _____    ______ ____
ROOT
ATOM      1  C   UNL     1      -0.189  11.161  21.641  0.00  0.00    +0.000 A 
ATOM      2  N   UNL     1       0.037  10.710  22.860  0.00  0.00    +0.000 NA
ATOM      3  N   UNL     1       0.647   9.469  22.851  0.00  0.00    +0.000 NA
ATOM      4  C   UNL     1       0.899   9.049  21.632  0.00  0.00    +0.000 A 
ATOM      5  N   UNL     1       1.491   7.833  21.374  0.00  0.00    +0.000 N 
ATOM      6  C   UNL     1       1.954   7.419  20.147  0.00  0.00    +0.000 C 
ATOM      7  O   UNL     1       1.971   8.080  19.117  0.00  0.00    +0.000 OA
ATOM      8  S   UNL     1       0.350  10.099  20.406  0.00  0.00    +0.000 S 
ATOM      9  H   UNL     1       1.593   7.264  22.200  0.00  0.00    +0.000 HD
ENDROOT
BRANCH   6  10
ATOM     10  C   UNL     1       2.475   6.022  20.059  0.00  0.00    +0.000 A 
ATOM     11  C   UNL     1       3.663   5.828  19.332  0.00  0.00    +0.000 A 
ATOM     12  C   UNL     1       4.217   4.555  19.185  0.00  0.00    +0.000 A 
ATOM     13  C   UNL     1       3.581   3.461  19.780  0.00  0.00    +0.000 A 
ATOM     14  C   UNL     1       2.410   3.640  20.530  0.00  0.00    +0.000 A 
ATOM     15  C   UNL     1       1.858   4.922  20.672  0.00  0.00    +0.000 A 
BRANCH  13  16
ATOM     16  N   UNL     1       4.150   2.117  19.613  0.00  0.00    +0.000 N 
ATOM     17  O   UNL     1       5.022   1.754  20.414  0.00  0.00    +0.000 OA
ATOM     18  O   UNL     1       3.724   1.426  18.673  0.00  0.00    +0.000 OA
ENDBRANCH  13  16
ENDBRANCH   6  10
BRANCH   1  19
ATOM     19  C   UNL     1      -0.891  12.451  21.301  0.00  0.00    +0.000 C 
BRANCH  19  21
ATOM     20  C   UNL     1      -2.544  14.182  22.257  0.00  0.00    +0.000 C 
ATOM     21  C   UNL     1      -1.738  12.914  22.506  0.00  0.00    +0.000 C 
ENDBRANCH  19  21
BRANCH  19  22
ATOM     22  C   UNL     1       0.090  13.502  20.744  0.00  0.00    +0.000 C 
ATOM     23  C   UNL     1      -0.074  13.850  19.270  0.00  0.00    +0.000 C 
ENDBRANCH  19  22
ENDBRANCH   1  19
TORSDOF 5
ENDMDL
MODEL 9
REMARK VINA RESULT:      -6.7      3.335      8.945
REMARK  Name = 
REMARK  7 active torsions:
REMARK  status: ('A' for Active; 'I' for Inactive)
REMARK    1  A    between atoms: C_1  and  C_2
REMARK    2  A    between atoms: C_2  and  C_3
REMARK    3  A    between atoms: C_3  and  C_4
REMARK    4  A    between atoms: C_3  and  C_6
REMARK    5  A    between atoms: C_4  and  C_5
REMARK    6  A    between atoms: C_11  and  C_13
REMARK    7  A    between atoms: C_16  and  N_17
REMARK                            x       y       z     vdW  Elec       q    Type
REMARK                         _______ _______ _______ _____ _____    ______ ____
ROOT
ATOM      1  C   UNL     1       4.867   4.681  17.443  0.00  0.00    +0.000 A 
ATOM      2  N   UNL     1       4.295   3.903  18.340  0.00  0.00    +0.000 NA
ATOM      3  N   UNL     1       3.383   4.589  19.120  0.00  0.00    +0.000 NA
ATOM      4  C   UNL     1       3.268   5.847  18.756  0.00  0.00    +0.000 A 
ATOM      5  N   UNL     1       2.428   6.730  19.397  0.00  0.00    +0.000 N 
ATOM      6  C   UNL     1       2.117   7.994  18.955  0.00  0.00    +0.000 C 
ATOM      7  O   UNL     1       2.481   8.505  17.903  0.00  0.00    +0.000 OA
ATOM      8  S   UNL     1       4.309   6.303  17.485  0.00  0.00    +0.000 S 
ATOM      9  H   UNL     1       2.016   6.344  20.232  0.00  0.00    +0.000 HD
ENDROOT
BRANCH   6  10
ATOM     10  C   UNL     1       1.262   8.831  19.849  0.00  0.00    +0.000 A 
ATOM     11  C   UNL     1       0.472   9.819  19.236  0.00  0.00    +0.000 A 
ATOM     12  C   UNL     1      -0.348  10.658  19.993  0.00  0.00    +0.000 A 
ATOM     13  C   UNL     1      -0.387  10.501  21.382  0.00  0.00    +0.000 A 
ATOM     14  C   UNL     1       0.373   9.503  22.007  0.00  0.00    +0.000 A 
ATOM     15  C   UNL     1       1.198   8.666  21.239  0.00  0.00    +0.000 A 
BRANCH  13  16
ATOM     16  N   UNL     1      -1.234  11.392  22.185  0.00  0.00    +0.000 N 
ATOM     17  O   UNL     1      -1.088  11.376  23.415  0.00  0.00    +0.000 OA
ATOM     18  O   UNL     1      -2.052  12.105  21.581  0.00  0.00    +0.000 OA
ENDBRANCH  13  16
ENDBRANCH   6  10
BRANCH   1  19
ATOM     19  C   UNL     1       5.947   4.259  16.478  0.00  0.00    +0.000 C 
BRANCH  19  21
ATOM     20  C   UNL     1       6.668   4.480  14.014  0.00  0.00    +0.000 C 
ATOM     21  C   UNL     1       5.714   4.936  15.111  0.00  0.00    +0.000 C 
ENDBRANCH  19  21
BRANCH  19  22
ATOM     22  C   UNL     1       7.353   4.454  17.079  0.00  0.00    +0.000 C 
ATOM     23  C   UNL     1       7.582   5.762  17.824  0.00  0.00    +0.000 C 
ENDBRANCH  19  22
ENDBRANCH   1  19
TORSDOF 5
ENDMDL
