MODEL 1
REMARK VINA RESULT:      -8.0      0.000      0.000
REMARK  Name = 
REMARK  13 active torsions:
REMARK  status: ('A' for Active; 'I' for Inactive)
REMARK    1  A    between atoms: C_1  and  O_2
REMARK    2  A    between atoms: O_2  and  C_3
REMARK    3  A    between atoms: C_6  and  C_7
REMARK    4  A    between atoms: C_7  and  C_8
REMARK    5  A    between atoms: C_7  and  N_15
REMARK    6  A    between atoms: N_10  and  C_11
REMARK    7  A    between atoms: C_11  and  C_12
REMARK    8  A    between atoms: C_11  and  C_13
REMARK    9  A    between atoms: C_11  and  C_14
REMARK   10  A    between atoms: C_16  and  C_17
REMARK   11  A    between atoms: C_17  and  O_18
REMARK   12  A    between atoms: O_18  and  C_19
REMARK   13  A    between atoms: C_22  and  C_23
REMARK                            x       y       z     vdW  Elec       q    Type
REMARK                         _______ _______ _______ _____ _____    ______ ____
ROOT
ATOM      1  N   UNL     1       4.376   6.223  17.446  0.00  0.00    +0.000 N 
ATOM      2  C   UNL     1       5.268   7.220  17.074  0.00  0.00    +0.000 A 
ATOM      3  N   UNL     1       5.125   7.257  15.749  0.00  0.00    +0.000 NA
ATOM      4  C   UNL     1       5.191   5.916  15.471  0.00  0.00    +0.000 A 
ATOM      5  C   UNL     1       5.760   5.288  14.355  0.00  0.00    +0.000 A 
ATOM      6  C   UNL     1       6.261   4.000  14.545  0.00  0.00    +0.000 A 
ATOM      7  C   UNL     1       6.081   3.335  15.766  0.00  0.00    +0.000 A 
ATOM      8  C   UNL     1       5.296   3.873  16.813  0.00  0.00    +0.000 A 
ATOM      9  C   UNL     1       4.849   5.189  16.632  0.00  0.00    +0.000 A 
ENDROOT
BRANCH   1  10
ATOM     10  C   UNL     1       3.487   6.307  18.614  0.00  0.00    +0.000 C 
BRANCH  10  14
ATOM     11  C   UNL     1       0.908   9.874  18.893  0.00  0.00    +0.000 A 
ATOM     12  C   UNL     1       1.111   9.020  19.977  0.00  0.00    +0.000 A 
ATOM     13  C   UNL     1       1.976   7.918  19.892  0.00  0.00    +0.000 A 
ATOM     14  C   UNL     1       2.667   7.618  18.706  0.00  0.00    +0.000 A 
ATOM     15  C   UNL     1       2.497   8.539  17.646  0.00  0.00    +0.000 A 
ATOM     16  C   UNL     1       1.622   9.640  17.728  0.00  0.00    +0.000 A 
BRANCH  11  18
ATOM     17  C   UNL     1      -1.399  10.484  18.990  0.00  0.00    +0.000 C 
ATOM     18  O   UNL     1      -0.028  10.851  19.092  0.00  0.00    +0.000 OA
ENDBRANCH  11  18
ENDBRANCH  10  14
BRANCH  10  19
ATOM     19  C   UNL     1       2.617   5.001  18.724  0.00  0.00    +0.000 C 
ATOM     20  O   UNL     1       1.732   4.690  17.950  0.00  0.00    +0.000 OA
ATOM     21  N   UNL     1       2.895   4.176  19.822  0.00  0.00    +0.000 N 
ATOM     22  H   UNL     1       3.802   4.298  20.266  0.00  0.00    +0.000 HD
BRANCH  21  23
ATOM     23  C   UNL     1       2.150   2.931  20.141  0.00  0.00    +0.000 C 
ATOM     24  C   UNL     1       0.626   3.109  20.009  0.00  0.00    +0.000 C 
ATOM     25  C   UNL     1       2.592   1.833  19.152  0.00  0.00    +0.000 C 
ATOM     26  C   UNL     1       2.477   2.436  21.564  0.00  0.00    +0.000 C 
ENDBRANCH  21  23
ENDBRANCH  10  19
ENDBRANCH   1  10
BRANCH   2  27
ATOM     27  C   UNL     1       6.615   7.109  17.775  0.00  0.00    +0.000 C 
BRANCH  27  28
ATOM     28  O   UNL     1       7.579   7.820  17.037  0.00  0.00    +0.000 OA
BRANCH  28  29
ATOM     29  C   UNL     1       8.113   8.852  17.765  0.00  0.00    +0.000 A 
ATOM     30  C   UNL     1       7.882  10.113  17.231  0.00  0.00    +0.000 A 
ATOM     31  C   UNL     1       8.393  11.236  17.871  0.00  0.00    +0.000 A 
ATOM     32  C   UNL     1       9.122  11.111  19.060  0.00  0.00    +0.000 A 
ATOM     33  C   UNL     1       9.712  12.314  19.724  0.00  0.00    +0.000 C 
ATOM     34  C   UNL     1       9.336   9.844  19.602  0.00  0.00    +0.000 A 
ATOM     35  C   UNL     1       8.825   8.718  18.965  0.00  0.00    +0.000 A 
ENDBRANCH  28  29
ENDBRANCH  27  28
ENDBRANCH   2  27
TORSDOF 8
ENDMDL
MODEL 2
REMARK VINA RESULT:      -7.9      0.408      1.173
REMARK  Name = 
REMARK  13 active torsions:
REMARK  status: ('A' for Active; 'I' for Inactive)
REMARK    1  A    between atoms: C_1  and  O_2
REMARK    2  A    between atoms: O_2  and  C_3
REMARK    3  A    between atoms: C_6  and  C_7
REMARK    4  A    between atoms: C_7  and  C_8
REMARK    5  A    between atoms: C_7  and  N_15
REMARK    6  A    between atoms: N_10  and  C_11
REMARK    7  A    between atoms: C_11  and  C_12
REMARK    8  A    between atoms: C_11  and  C_13
REMARK    9  A    between atoms: C_11  and  C_14
REMARK   10  A    between atoms: C_16  and  C_17
REMARK   11  A    between atoms: C_17  and  O_18
REMARK   12  A    between atoms: O_18  and  C_19
REMARK   13  A    between atoms: C_22  and  C_23
REMARK                            x       y       z     vdW  Elec       q    Type
REMARK                         _______ _______ _______ _____ _____    ______ ____
ROOT
ATOM      1  N   UNL     1       4.354   6.211  17.502  0.00  0.00    +0.000 N 
ATOM      2  C   UNL     1       5.275   7.192  17.162  0.00  0.00    +0.000 A 
ATOM      3  N   UNL     1       5.146   7.263  15.836  0.00  0.00    +0.000 NA
ATOM      4  C   UNL     1       5.178   5.929  15.527  0.00  0.00    +0.000 A 
ATOM      5  C   UNL     1       5.740   5.312  14.401  0.00  0.00    +0.000 A 
ATOM      6  C   UNL     1       6.206   4.007  14.565  0.00  0.00    +0.000 A 
ATOM      7  C   UNL     1       5.998   3.319  15.768  0.00  0.00    +0.000 A 
ATOM      8  C   UNL     1       5.218   3.853  16.820  0.00  0.00    +0.000 A 
ATOM      9  C   UNL     1       4.807   5.184  16.667  0.00  0.00    +0.000 A 
ENDROOT
BRANCH   1  10
ATOM     10  C   UNL     1       3.458   6.290  18.664  0.00  0.00    +0.000 C 
BRANCH  10  14
ATOM     11  C   UNL     1       0.823   9.819  18.920  0.00  0.00    +0.000 A 
ATOM     12  C   UNL     1       1.107   9.024  20.032  0.00  0.00    +0.000 A 
ATOM     13  C   UNL     1       1.990   7.935  19.950  0.00  0.00    +0.000 A 
ATOM     14  C   UNL     1       2.616   7.589  18.740  0.00  0.00    +0.000 A 
ATOM     15  C   UNL     1       2.364   8.451  17.648  0.00  0.00    +0.000 A 
ATOM     16  C   UNL     1       1.472   9.539  17.727  0.00  0.00    +0.000 A 
BRANCH  11  18
ATOM     17  C   UNL     1       0.108  11.721  20.176  0.00  0.00    +0.000 C 
ATOM     18  O   UNL     1      -0.120  10.787  19.127  0.00  0.00    +0.000 OA
ENDBRANCH  11  18
ENDBRANCH  10  14
BRANCH  10  19
ATOM     19  C   UNL     1       2.607   4.971  18.781  0.00  0.00    +0.000 C 
ATOM     20  O   UNL     1       1.715   4.653  18.019  0.00  0.00    +0.000 OA
ATOM     21  N   UNL     1       2.914   4.145  19.870  0.00  0.00    +0.000 N 
ATOM     22  H   UNL     1       3.826   4.277  20.301  0.00  0.00    +0.000 HD
BRANCH  21  23
ATOM     23  C   UNL     1       2.191   2.888  20.193  0.00  0.00    +0.000 C 
ATOM     24  C   UNL     1       2.514   1.755  19.203  0.00  0.00    +0.000 C 
ATOM     25  C   UNL     1       2.621   2.430  21.602  0.00  0.00    +0.000 C 
ATOM     26  C   UNL     1       0.667   3.114  20.222  0.00  0.00    +0.000 C 
ENDBRANCH  21  23
ENDBRANCH  10  19
ENDBRANCH   1  10
BRANCH   2  27
ATOM     27  C   UNL     1       6.613   7.029  17.871  0.00  0.00    +0.000 C 
BRANCH  27  28
ATOM     28  O   UNL     1       7.619   7.643  17.104  0.00  0.00    +0.000 OA
BRANCH  28  29
ATOM     29  C   UNL     1       8.064   8.801  17.690  0.00  0.00    +0.000 A 
ATOM     30  C   UNL     1       8.831   8.610  18.831  0.00  0.00    +0.000 A 
ATOM     31  C   UNL     1       9.321   9.711  19.524  0.00  0.00    +0.000 A 
ATOM     32  C   UNL     1       9.065  11.011  19.072  0.00  0.00    +0.000 A 
ATOM     33  C   UNL     1       9.552  12.197  19.842  0.00  0.00    +0.000 C 
ATOM     34  C   UNL     1       8.310  11.197  17.914  0.00  0.00    +0.000 A 
ATOM     35  C   UNL     1       7.819  10.097  17.218  0.00  0.00    +0.000 A 
ENDBRANCH  28  29
ENDBRANCH  27  28
ENDBRANCH   2  27
TORSDOF 8
ENDMDL
MODEL 3
REMARK VINA RESULT:      -7.8      5.101     10.574
REMARK  Name = 
REMARK  13 active torsions:
REMARK  status: ('A' for Active; 'I' for Inactive)
REMARK    1  A    between atoms: C_1  and  O_2
REMARK    2  A    between atoms: O_2  and  C_3
REMARK    3  A    between atoms: C_6  and  C_7
REMARK    4  A    between atoms: C_7  and  C_8
REMARK    5  A    between atoms: C_7  and  N_15
REMARK    6  A    between atoms: N_10  and  C_11
REMARK    7  A    between atoms: C_11  and  C_12
REMARK    8  A    between atoms: C_11  and  C_13
REMARK    9  A    between atoms: C_11  and  C_14
REMARK   10  A    between atoms: C_16  and  C_17
REMARK   11  A    between atoms: C_17  and  O_18
REMARK   12  A    between atoms: O_18  and  C_19
REMARK   13  A    between atoms: C_22  and  C_23
REMARK                            x       y       z     vdW  Elec       q    Type
REMARK                         _______ _______ _______ _____ _____    ______ ____
ROOT
ATOM      1  N   UNL     1      -0.769  11.975  20.889  0.00  0.00    +0.000 N 
ATOM      2  C   UNL     1      -0.104  12.586  21.944  0.00  0.00    +0.000 A 
ATOM      3  N   UNL     1      -0.619  11.967  23.007  0.00  0.00    +0.000 NA
ATOM      4  C   UNL     1      -1.951  12.036  22.694  0.00  0.00    +0.000 A 
ATOM      5  C   UNL     1      -3.039  12.206  23.560  0.00  0.00    +0.000 A 
ATOM      6  C   UNL     1      -4.165  12.845  23.040  0.00  0.00    +0.000 A 
ATOM      7  C   UNL     1      -4.233  13.178  21.680  0.00  0.00    +0.000 A 
ATOM      8  C   UNL     1      -3.237  12.789  20.754  0.00  0.00    +0.000 A 
ATOM      9  C   UNL     1      -2.087  12.201  21.299  0.00  0.00    +0.000 A 
ENDROOT
BRANCH   1  10
ATOM     10  C   UNL     1      -0.123  11.572  19.632  0.00  0.00    +0.000 C 
BRANCH  10  14
ATOM     11  C   UNL     1       1.996   7.703  19.691  0.00  0.00    +0.000 A 
ATOM     12  C   UNL     1       2.017   8.542  18.577  0.00  0.00    +0.000 A 
ATOM     13  C   UNL     1       1.384   9.796  18.589  0.00  0.00    +0.000 A 
ATOM     14  C   UNL     1       0.689  10.254  19.720  0.00  0.00    +0.000 A 
ATOM     15  C   UNL     1       0.742   9.415  20.857  0.00  0.00    +0.000 A 
ATOM     16  C   UNL     1       1.369   8.153  20.843  0.00  0.00    +0.000 A 
BRANCH  11  18
ATOM     17  C   UNL     1       2.718   6.009  18.168  0.00  0.00    +0.000 C 
ATOM     18  O   UNL     1       2.577   6.479  19.505  0.00  0.00    +0.000 OA
ENDBRANCH  11  18
ENDBRANCH  10  14
BRANCH  10  19
ATOM     19  C   UNL     1      -1.167  11.600  18.455  0.00  0.00    +0.000 C 
ATOM     20  O   UNL     1      -1.295  12.514  17.664  0.00  0.00    +0.000 OA
ATOM     21  N   UNL     1      -2.009  10.485  18.364  0.00  0.00    +0.000 N 
ATOM     22  H   UNL     1      -1.695   9.636  18.830  0.00  0.00    +0.000 HD
BRANCH  21  23
ATOM     23  C   UNL     1      -3.099  10.341  17.364  0.00  0.00    +0.000 C 
ATOM     24  C   UNL     1      -4.042   9.169  17.690  0.00  0.00    +0.000 C 
ATOM     25  C   UNL     1      -3.931  11.640  17.363  0.00  0.00    +0.000 C 
ATOM     26  C   UNL     1      -2.530  10.151  15.944  0.00  0.00    +0.000 C 
ENDBRANCH  21  23
ENDBRANCH  10  19
ENDBRANCH   1  10
BRANCH   2  27
ATOM     27  C   UNL     1      -0.026  14.101  21.806  0.00  0.00    +0.000 C 
BRANCH  27  28
ATOM     28  O   UNL     1       0.075  14.676  23.085  0.00  0.00    +0.000 OA
BRANCH  28  29
ATOM     29  C   UNL     1      -1.099  15.277  23.463  0.00  0.00    +0.000 A 
ATOM     30  C   UNL     1      -1.391  15.168  24.816  0.00  0.00    +0.000 A 
ATOM     31  C   UNL     1      -2.566  15.720  25.313  0.00  0.00    +0.000 A 
ATOM     32  C   UNL     1      -3.450  16.401  24.467  0.00  0.00    +0.000 A 
ATOM     33  C   UNL     1      -4.736  16.954  24.992  0.00  0.00    +0.000 C 
ATOM     34  C   UNL     1      -3.142  16.522  23.112  0.00  0.00    +0.000 A 
ATOM     35  C   UNL     1      -1.967  15.973  22.611  0.00  0.00    +0.000 A 
ENDBRANCH  28  29
ENDBRANCH  27  28
ENDBRANCH   2  27
TORSDOF 8
ENDMDL
MODEL 4
REMARK VINA RESULT:      -7.7      0.526      1.062
REMARK  Name = 
REMARK  13 active torsions:
REMARK  status: ('A' for Active; 'I' for Inactive)
REMARK    1  A    between atoms: C_1  and  O_2
REMARK    2  A    between atoms: O_2  and  C_3
REMARK    3  A    between atoms: C_6  and  C_7
REMARK    4  A    between atoms: C_7  and  C_8
REMARK    5  A    between atoms: C_7  and  N_15
REMARK    6  A    between atoms: N_10  and  C_11
REMARK    7  A    between atoms: C_11  and  C_12
REMARK    8  A    between atoms: C_11  and  C_13
REMARK    9  A    between atoms: C_11  and  C_14
REMARK   10  A    between atoms: C_16  and  C_17
REMARK   11  A    between atoms: C_17  and  O_18
REMARK   12  A    between atoms: O_18  and  C_19
REMARK   13  A    between atoms: C_22  and  C_23
REMARK                            x       y       z     vdW  Elec       q    Type
REMARK                         _______ _______ _______ _____ _____    ______ ____
ROOT
ATOM      1  N   UNL     1       4.401   6.225  17.574  0.00  0.00    +0.000 N 
ATOM      2  C   UNL     1       5.276   7.237  17.203  0.00  0.00    +0.000 A 
ATOM      3  N   UNL     1       5.064   7.336  15.890  0.00  0.00    +0.000 NA
ATOM      4  C   UNL     1       5.110   6.010  15.547  0.00  0.00    +0.000 A 
ATOM      5  C   UNL     1       5.616   5.434  14.374  0.00  0.00    +0.000 A 
ATOM      6  C   UNL     1       6.123   4.138  14.477  0.00  0.00    +0.000 A 
ATOM      7  C   UNL     1       6.005   3.417  15.673  0.00  0.00    +0.000 A 
ATOM      8  C   UNL     1       5.279   3.906  16.784  0.00  0.00    +0.000 A 
ATOM      9  C   UNL     1       4.827   5.230  16.689  0.00  0.00    +0.000 A 
ENDROOT
BRANCH   1  10
ATOM     10  C   UNL     1       3.576   6.255  18.791  0.00  0.00    +0.000 C 
BRANCH  10  14
ATOM     11  C   UNL     1       0.921   9.775  18.909  0.00  0.00    +0.000 A 
ATOM     12  C   UNL     1       1.471   9.302  17.717  0.00  0.00    +0.000 A 
ATOM     13  C   UNL     1       2.271   8.148  17.684  0.00  0.00    +0.000 A 
ATOM     14  C   UNL     1       2.565   7.427  18.854  0.00  0.00    +0.000 A 
ATOM     15  C   UNL     1       1.940   7.889  20.035  0.00  0.00    +0.000 A 
ATOM     16  C   UNL     1       1.144   9.052  20.070  0.00  0.00    +0.000 A 
BRANCH  11  18
ATOM     17  C   UNL     1      -1.082  10.912  18.276  0.00  0.00    +0.000 C 
ATOM     18  O   UNL     1       0.239  10.956  18.803  0.00  0.00    +0.000 OA
ENDBRANCH  11  18
ENDBRANCH  10  14
BRANCH  10  19
ATOM     19  C   UNL     1       2.930   4.841  19.039  0.00  0.00    +0.000 C 
ATOM     20  O   UNL     1       1.859   4.481  18.593  0.00  0.00    +0.000 OA
ATOM     21  N   UNL     1       3.663   3.975  19.860  0.00  0.00    +0.000 N 
ATOM     22  H   UNL     1       4.654   4.178  19.970  0.00  0.00    +0.000 HD
BRANCH  21  23
ATOM     23  C   UNL     1       3.204   2.622  20.266  0.00  0.00    +0.000 C 
ATOM     24  C   UNL     1       2.489   1.878  19.123  0.00  0.00    +0.000 C 
ATOM     25  C   UNL     1       4.438   1.793  20.679  0.00  0.00    +0.000 C 
ATOM     26  C   UNL     1       2.264   2.695  21.485  0.00  0.00    +0.000 C 
ENDBRANCH  21  23
ENDBRANCH  10  19
ENDBRANCH   1  10
BRANCH   2  27
ATOM     27  C   UNL     1       6.658   7.092  17.826  0.00  0.00    +0.000 C 
BRANCH  27  28
ATOM     28  O   UNL     1       7.587   7.821  17.061  0.00  0.00    +0.000 OA
BRANCH  28  29
ATOM     29  C   UNL     1       8.115   8.868  17.773  0.00  0.00    +0.000 A 
ATOM     30  C   UNL     1       7.887  10.118  17.212  0.00  0.00    +0.000 A 
ATOM     31  C   UNL     1       8.392  11.254  17.833  0.00  0.00    +0.000 A 
ATOM     32  C   UNL     1       9.113  11.154  19.029  0.00  0.00    +0.000 A 
ATOM     33  C   UNL     1       9.697  12.371  19.672  0.00  0.00    +0.000 C 
ATOM     34  C   UNL     1       9.324   9.898  19.597  0.00  0.00    +0.000 A 
ATOM     35  C   UNL     1       8.819   8.759  18.980  0.00  0.00    +0.000 A 
ENDBRANCH  28  29
ENDBRANCH  27  28
ENDBRANCH   2  27
TORSDOF 8
ENDMDL
MODEL 5
REMARK VINA RESULT:      -7.7      0.815      1.298
REMARK  Name = 
REMARK  13 active torsions:
REMARK  status: ('A' for Active; 'I' for Inactive)
REMARK    1  A    between atoms: C_1  and  O_2
REMARK    2  A    between atoms: O_2  and  C_3
REMARK    3  A    between atoms: C_6  and  C_7
REMARK    4  A    between atoms: C_7  and  C_8
REMARK    5  A    between atoms: C_7  and  N_15
REMARK    6  A    between atoms: N_10  and  C_11
REMARK    7  A    between atoms: C_11  and  C_12
REMARK    8  A    between atoms: C_11  and  C_13
REMARK    9  A    between atoms: C_11  and  C_14
REMARK   10  A    between atoms: C_16  and  C_17
REMARK   11  A    between atoms: C_17  and  O_18
REMARK   12  A    between atoms: O_18  and  C_19
REMARK   13  A    between atoms: C_22  and  C_23
REMARK                            x       y       z     vdW  Elec       q    Type
REMARK                         _______ _______ _______ _____ _____    ______ ____
ROOT
ATOM      1  N   UNL     1       4.673   6.222  17.752  0.00  0.00    +0.000 N 
ATOM      2  C   UNL     1       5.545   7.205  17.302  0.00  0.00    +0.000 A 
ATOM      3  N   UNL     1       5.230   7.301  16.010  0.00  0.00    +0.000 NA
ATOM      4  C   UNL     1       5.208   5.972  15.676  0.00  0.00    +0.000 A 
ATOM      5  C   UNL     1       5.600   5.373  14.471  0.00  0.00    +0.000 A 
ATOM      6  C   UNL     1       6.074   4.063  14.544  0.00  0.00    +0.000 A 
ATOM      7  C   UNL     1       6.033   3.354  15.753  0.00  0.00    +0.000 A 
ATOM      8  C   UNL     1       5.414   3.873  16.914  0.00  0.00    +0.000 A 
ATOM      9  C   UNL     1       4.996   5.209  16.844  0.00  0.00    +0.000 A 
ENDROOT
BRANCH   1  10
ATOM     10  C   UNL     1       3.952   6.285  19.031  0.00  0.00    +0.000 C 
BRANCH  10  14
ATOM     11  C   UNL     1       0.800   9.371  19.051  0.00  0.00    +0.000 A 
ATOM     12  C   UNL     1       1.457   8.991  17.881  0.00  0.00    +0.000 A 
ATOM     13  C   UNL     1       2.420   7.970  17.877  0.00  0.00    +0.000 A 
ATOM     14  C   UNL     1       2.775   7.294  19.057  0.00  0.00    +0.000 A 
ATOM     15  C   UNL     1       2.046   7.651  20.214  0.00  0.00    +0.000 A 
ATOM     16  C   UNL     1       1.085   8.682  20.220  0.00  0.00    +0.000 A 
BRANCH  11  18
ATOM     17  C   UNL     1      -1.125  10.318  18.000  0.00  0.00    +0.000 C 
ATOM     18  O   UNL     1      -0.047  10.438  18.921  0.00  0.00    +0.000 OA
ENDBRANCH  11  18
ENDBRANCH  10  14
BRANCH  10  19
ATOM     19  C   UNL     1       3.559   4.836  19.500  0.00  0.00    +0.000 C 
ATOM     20  O   UNL     1       4.276   4.100  20.150  0.00  0.00    +0.000 OA
ATOM     21  N   UNL     1       2.294   4.388  19.097  0.00  0.00    +0.000 N 
ATOM     22  H   UNL     1       1.623   5.102  18.824  0.00  0.00    +0.000 HD
BRANCH  21  23
ATOM     23  C   UNL     1       1.758   3.033  19.384  0.00  0.00    +0.000 C 
ATOM     24  C   UNL     1       1.515   2.805  20.887  0.00  0.00    +0.000 C 
ATOM     25  C   UNL     1       0.409   2.880  18.653  0.00  0.00    +0.000 C 
ATOM     26  C   UNL     1       2.702   1.936  18.854  0.00  0.00    +0.000 C 
ENDBRANCH  21  23
ENDBRANCH  10  19
ENDBRANCH   1  10
BRANCH   2  27
ATOM     27  C   UNL     1       6.968   7.022  17.812  0.00  0.00    +0.000 C 
BRANCH  27  28
ATOM     28  O   UNL     1       7.833   7.850  17.072  0.00  0.00    +0.000 OA
BRANCH  28  29
ATOM     29  C   UNL     1       8.257   8.924  17.813  0.00  0.00    +0.000 A 
ATOM     30  C   UNL     1       7.960  10.161  17.255  0.00  0.00    +0.000 A 
ATOM     31  C   UNL     1       8.359  11.323  17.904  0.00  0.00    +0.000 A 
ATOM     32  C   UNL     1       9.042  11.261  19.125  0.00  0.00    +0.000 A 
ATOM     33  C   UNL     1       9.512  12.509  19.801  0.00  0.00    +0.000 C 
ATOM     34  C   UNL     1       9.321  10.017  19.690  0.00  0.00    +0.000 A 
ATOM     35  C   UNL     1       8.922   8.852  19.044  0.00  0.00    +0.000 A 
ENDBRANCH  28  29
ENDBRANCH  27  28
ENDBRANCH   2  27
TORSDOF 8
ENDMDL
MODEL 6
REMARK VINA RESULT:      -7.6      0.280      1.196
REMARK  Name = 
REMARK  13 active torsions:
REMARK  status: ('A' for Active; 'I' for Inactive)
REMARK    1  A    between atoms: C_1  and  O_2
REMARK    2  A    between atoms: O_2  and  C_3
REMARK    3  A    between atoms: C_6  and  C_7
REMARK    4  A    between atoms: C_7  and  C_8
REMARK    5  A    between atoms: C_7  and  N_15
REMARK    6  A    between atoms: N_10  and  C_11
REMARK    7  A    between atoms: C_11  and  C_12
REMARK    8  A    between atoms: C_11  and  C_13
REMARK    9  A    between atoms: C_11  and  C_14
REMARK   10  A    between atoms: C_16  and  C_17
REMARK   11  A    between atoms: C_17  and  O_18
REMARK   12  A    between atoms: O_18  and  C_19
REMARK   13  A    between atoms: C_22  and  C_23
REMARK                            x       y       z     vdW  Elec       q    Type
REMARK                         _______ _______ _______ _____ _____    ______ ____
ROOT
ATOM      1  N   UNL     1       4.322   6.218  17.519  0.00  0.00    +0.000 N 
ATOM      2  C   UNL     1       5.218   7.225  17.187  0.00  0.00    +0.000 A 
ATOM      3  N   UNL     1       5.094   7.296  15.861  0.00  0.00    +0.000 NA
ATOM      4  C   UNL     1       5.165   5.963  15.549  0.00  0.00    +0.000 A 
ATOM      5  C   UNL     1       5.750   5.365  14.425  0.00  0.00    +0.000 A 
ATOM      6  C   UNL     1       6.250   4.073  14.587  0.00  0.00    +0.000 A 
ATOM      7  C   UNL     1       6.054   3.376  15.788  0.00  0.00    +0.000 A 
ATOM      8  C   UNL     1       5.254   3.886  16.837  0.00  0.00    +0.000 A 
ATOM      9  C   UNL     1       4.808   5.206  16.685  0.00  0.00    +0.000 A 
ENDROOT
BRANCH   1  10
ATOM     10  C   UNL     1       3.418   6.269  18.677  0.00  0.00    +0.000 C 
BRANCH  10  14
ATOM     11  C   UNL     1       1.166  10.057  18.866  0.00  0.00    +0.000 A 
ATOM     12  C   UNL     1       1.790   9.624  17.696  0.00  0.00    +0.000 A 
ATOM     13  C   UNL     1       2.458   8.391  17.633  0.00  0.00    +0.000 A 
ATOM     14  C   UNL     1       2.540   7.544  18.751  0.00  0.00    +0.000 A 
ATOM     15  C   UNL     1       1.841   7.976  19.902  0.00  0.00    +0.000 A 
ATOM     16  C   UNL     1       1.178   9.217  19.969  0.00  0.00    +0.000 A 
BRANCH  11  18
ATOM     17  C   UNL     1      -0.783  11.438  18.886  0.00  0.00    +0.000 C 
ATOM     18  O   UNL     1       0.633  11.316  18.807  0.00  0.00    +0.000 OA
ENDBRANCH  11  18
ENDBRANCH  10  14
BRANCH  10  19
ATOM     19  C   UNL     1       2.604   4.927  18.786  0.00  0.00    +0.000 C 
ATOM     20  O   UNL     1       1.719   4.589  18.025  0.00  0.00    +0.000 OA
ATOM     21  N   UNL     1       2.936   4.102  19.869  0.00  0.00    +0.000 N 
ATOM     22  H   UNL     1       3.845   4.257  20.299  0.00  0.00    +0.000 HD
BRANCH  21  23
ATOM     23  C   UNL     1       2.249   2.824  20.186  0.00  0.00    +0.000 C 
ATOM     24  C   UNL     1       0.718   2.939  20.082  0.00  0.00    +0.000 C 
ATOM     25  C   UNL     1       2.719   1.757  19.176  0.00  0.00    +0.000 C 
ATOM     26  C   UNL     1       2.622   2.326  21.596  0.00  0.00    +0.000 C 
ENDBRANCH  21  23
ENDBRANCH  10  19
ENDBRANCH   1  10
BRANCH   2  27
ATOM     27  C   UNL     1       6.556   7.096  17.903  0.00  0.00    +0.000 C 
BRANCH  27  28
ATOM     28  O   UNL     1       7.558   7.698  17.120  0.00  0.00    +0.000 OA
BRANCH  28  29
ATOM     29  C   UNL     1       8.032   8.846  17.703  0.00  0.00    +0.000 A 
ATOM     30  C   UNL     1       8.809   8.638  18.835  0.00  0.00    +0.000 A 
ATOM     31  C   UNL     1       9.328   9.729  19.523  0.00  0.00    +0.000 A 
ATOM     32  C   UNL     1       9.091  11.034  19.076  0.00  0.00    +0.000 A 
ATOM     33  C   UNL     1       9.610  12.209  19.842  0.00  0.00    +0.000 C 
ATOM     34  C   UNL     1       8.326  11.236  17.928  0.00  0.00    +0.000 A 
ATOM     35  C   UNL     1       7.806  10.148  17.236  0.00  0.00    +0.000 A 
ENDBRANCH  28  29
ENDBRANCH  27  28
ENDBRANCH   2  27
TORSDOF 8
ENDMDL
MODEL 7
REMARK VINA RESULT:      -7.6      0.589      1.552
REMARK  Name = 
REMARK  13 active torsions:
REMARK  status: ('A' for Active; 'I' for Inactive)
REMARK    1  A    between atoms: C_1  and  O_2
REMARK    2  A    between atoms: O_2  and  C_3
REMARK    3  A    between atoms: C_6  and  C_7
REMARK    4  A    between atoms: C_7  and  C_8
REMARK    5  A    between atoms: C_7  and  N_15
REMARK    6  A    between atoms: N_10  and  C_11
REMARK    7  A    between atoms: C_11  and  C_12
REMARK    8  A    between atoms: C_11  and  C_13
REMARK    9  A    between atoms: C_11  and  C_14
REMARK   10  A    between atoms: C_16  and  C_17
REMARK   11  A    between atoms: C_17  and  O_18
REMARK   12  A    between atoms: O_18  and  C_19
REMARK   13  A    between atoms: C_22  and  C_23
REMARK                            x       y       z     vdW  Elec       q    Type
REMARK                         _______ _______ _______ _____ _____    ______ ____
ROOT
ATOM      1  N   UNL     1       4.425   6.223  17.576  0.00  0.00    +0.000 N 
ATOM      2  C   UNL     1       5.268   7.251  17.175  0.00  0.00    +0.000 A 
ATOM      3  N   UNL     1       5.027   7.328  15.866  0.00  0.00    +0.000 NA
ATOM      4  C   UNL     1       5.097   5.999  15.538  0.00  0.00    +0.000 A 
ATOM      5  C   UNL     1       5.593   5.420  14.362  0.00  0.00    +0.000 A 
ATOM      6  C   UNL     1       6.131   4.137  14.470  0.00  0.00    +0.000 A 
ATOM      7  C   UNL     1       6.055   3.429  15.677  0.00  0.00    +0.000 A 
ATOM      8  C   UNL     1       5.341   3.916  16.796  0.00  0.00    +0.000 A 
ATOM      9  C   UNL     1       4.856   5.227  16.695  0.00  0.00    +0.000 A 
ENDROOT
BRANCH   1  10
ATOM     10  C   UNL     1       3.625   6.249  18.809  0.00  0.00    +0.000 C 
BRANCH  10  14
ATOM     11  C   UNL     1       0.915   9.726  18.961  0.00  0.00    +0.000 A 
ATOM     12  C   UNL     1       1.467   9.269  17.764  0.00  0.00    +0.000 A 
ATOM     13  C   UNL     1       2.286   8.129  17.721  0.00  0.00    +0.000 A 
ATOM     14  C   UNL     1       2.595   7.405  18.884  0.00  0.00    +0.000 A 
ATOM     15  C   UNL     1       1.967   7.849  20.070  0.00  0.00    +0.000 A 
ATOM     16  C   UNL     1       1.153   8.998  20.116  0.00  0.00    +0.000 A 
BRANCH  11  18
ATOM     17  C   UNL     1      -1.083  10.845  18.281  0.00  0.00    +0.000 C 
ATOM     18  O   UNL     1       0.214  10.896  18.865  0.00  0.00    +0.000 OA
ENDBRANCH  11  18
ENDBRANCH  10  14
BRANCH  10  19
ATOM     19  C   UNL     1       3.008   4.827  19.082  0.00  0.00    +0.000 C 
ATOM     20  O   UNL     1       1.899   4.475  18.734  0.00  0.00    +0.000 OA
ATOM     21  N   UNL     1       3.819   3.942  19.804  0.00  0.00    +0.000 N 
ATOM     22  H   UNL     1       4.816   4.146  19.821  0.00  0.00    +0.000 HD
BRANCH  21  23
ATOM     23  C   UNL     1       3.404   2.577  20.217  0.00  0.00    +0.000 C 
ATOM     24  C   UNL     1       4.593   1.720  20.688  0.00  0.00    +0.000 C 
ATOM     25  C   UNL     1       2.411   2.704  21.390  0.00  0.00    +0.000 C 
ATOM     26  C   UNL     1       2.679   1.845  19.070  0.00  0.00    +0.000 C 
ENDBRANCH  21  23
ENDBRANCH  10  19
ENDBRANCH   1  10
BRANCH   2  27
ATOM     27  C   UNL     1       6.666   7.146  17.770  0.00  0.00    +0.000 C 
BRANCH  27  28
ATOM     28  O   UNL     1       7.561   7.889  16.980  0.00  0.00    +0.000 OA
BRANCH  28  29
ATOM     29  C   UNL     1       8.086   8.949  17.674  0.00  0.00    +0.000 A 
ATOM     30  C   UNL     1       8.706   8.604  18.868  0.00  0.00    +0.000 A 
ATOM     31  C   UNL     1       9.259   9.597  19.669  0.00  0.00    +0.000 A 
ATOM     32  C   UNL     1       9.213  10.940  19.276  0.00  0.00    +0.000 A 
ATOM     33  C   UNL     1       9.766  12.012  20.159  0.00  0.00    +0.000 C 
ATOM     34  C   UNL     1       8.606  11.279  18.067  0.00  0.00    +0.000 A 
ATOM     35  C   UNL     1       8.053  10.288  17.262  0.00  0.00    +0.000 A 
ENDBRANCH  28  29
ENDBRANCH  27  28
ENDBRANCH   2  27
TORSDOF 8
ENDMDL
MODEL 8
REMARK VINA RESULT:      -7.5      2.317      6.550
REMARK  Name = 
REMARK  13 active torsions:
REMARK  status: ('A' for Active; 'I' for Inactive)
REMARK    1  A    between atoms: C_1  and  O_2
REMARK    2  A    between atoms: O_2  and  C_3
REMARK    3  A    between atoms: C_6  and  C_7
REMARK    4  A    between atoms: C_7  and  C_8
REMARK    5  A    between atoms: C_7  and  N_15
REMARK    6  A    between atoms: N_10  and  C_11
REMARK    7  A    between atoms: C_11  and  C_12
REMARK    8  A    between atoms: C_11  and  C_13
REMARK    9  A    between atoms: C_11  and  C_14
REMARK   10  A    between atoms: C_16  and  C_17
REMARK   11  A    between atoms: C_17  and  O_18
REMARK   12  A    between atoms: O_18  and  C_19
REMARK   13  A    between atoms: C_22  and  C_23
REMARK                            x       y       z     vdW  Elec       q    Type
REMARK                         _______ _______ _______ _____ _____    ______ ____
ROOT
ATOM      1  N   UNL     1       6.085   5.254  16.629  0.00  0.00    +0.000 N 
ATOM      2  C   UNL     1       5.371   6.443  16.555  0.00  0.00    +0.000 A 
ATOM      3  N   UNL     1       6.325   7.337  16.293  0.00  0.00    +0.000 NA
ATOM      4  C   UNL     1       7.255   6.966  17.229  0.00  0.00    +0.000 A 
ATOM      5  C   UNL     1       8.128   7.785  17.957  0.00  0.00    +0.000 A 
ATOM      6  C   UNL     1       8.512   7.331  19.219  0.00  0.00    +0.000 A 
ATOM      7  C   UNL     1       8.134   6.057  19.667  0.00  0.00    +0.000 A 
ATOM      8  C   UNL     1       7.457   5.134  18.837  0.00  0.00    +0.000 A 
ATOM      9  C   UNL     1       7.026   5.622  17.596  0.00  0.00    +0.000 A 
ENDROOT
BRANCH   1  10
ATOM     10  C   UNL     1       5.630   3.983  16.048  0.00  0.00    +0.000 C 
BRANCH  10  14
ATOM     11  C   UNL     1       2.153   2.413  18.261  0.00  0.00    +0.000 A 
ATOM     12  C   UNL     1       2.063   3.539  17.442  0.00  0.00    +0.000 A 
ATOM     13  C   UNL     1       3.163   3.997  16.700  0.00  0.00    +0.000 A 
ATOM     14  C   UNL     1       4.409   3.350  16.761  0.00  0.00    +0.000 A 
ATOM     15  C   UNL     1       4.452   2.174  17.544  0.00  0.00    +0.000 A 
ATOM     16  C   UNL     1       3.351   1.718  18.295  0.00  0.00    +0.000 A 
BRANCH  11  18
ATOM     17  C   UNL     1       0.721   2.996  20.083  0.00  0.00    +0.000 C 
ATOM     18  O   UNL     1       1.029   2.137  18.990  0.00  0.00    +0.000 OA
ENDBRANCH  11  18
ENDBRANCH  10  14
BRANCH  10  19
ATOM     19  C   UNL     1       5.453   4.134  14.491  0.00  0.00    +0.000 C 
ATOM     20  O   UNL     1       4.759   4.973  13.951  0.00  0.00    +0.000 OA
ATOM     21  N   UNL     1       6.141   3.198  13.708  0.00  0.00    +0.000 N 
ATOM     22  H   UNL     1       6.920   2.716  14.151  0.00  0.00    +0.000 HD
BRANCH  21  23
ATOM     23  C   UNL     1       6.061   3.129  12.227  0.00  0.00    +0.000 C 
ATOM     24  C   UNL     1       4.628   3.343  11.706  0.00  0.00    +0.000 C 
ATOM     25  C   UNL     1       6.955   4.240  11.640  0.00  0.00    +0.000 C 
ATOM     26  C   UNL     1       6.591   1.779  11.703  0.00  0.00    +0.000 C 
ENDBRANCH  21  23
ENDBRANCH  10  19
ENDBRANCH   1  10
BRANCH   2  27
ATOM     27  C   UNL     1       4.351   6.599  17.675  0.00  0.00    +0.000 C 
BRANCH  27  28
ATOM     28  O   UNL     1       3.318   7.450  17.243  0.00  0.00    +0.000 OA
BRANCH  28  29
ATOM     29  C   UNL     1       2.546   7.880  18.292  0.00  0.00    +0.000 A 
ATOM     30  C   UNL     1       2.510   7.011  19.374  0.00  0.00    +0.000 A 
ATOM     31  C   UNL     1       1.744   7.331  20.489  0.00  0.00    +0.000 A 
ATOM     32  C   UNL     1       1.023   8.530  20.540  0.00  0.00    +0.000 A 
ATOM     33  C   UNL     1       0.162   8.853  21.719  0.00  0.00    +0.000 C 
ATOM     34  C   UNL     1       1.077   9.408  19.458  0.00  0.00    +0.000 A 
ATOM     35  C   UNL     1       1.844   9.092  18.342  0.00  0.00    +0.000 A 
ENDBRANCH  28  29
ENDBRANCH  27  28
ENDBRANCH   2  27
TORSDOF 8
ENDMDL
MODEL 9
REMARK VINA RESULT:      -7.5      5.002      9.212
REMARK  Name = 
REMARK  13 active torsions:
REMARK  status: ('A' for Active; 'I' for Inactive)
REMARK    1  A    between atoms: C_1  and  O_2
REMARK    2  A    between atoms: O_2  and  C_3
REMARK    3  A    between atoms: C_6  and  C_7
REMARK    4  A    between atoms: C_7  and  C_8
REMARK    5  A    between atoms: C_7  and  N_15
REMARK    6  A    between atoms: N_10  and  C_11
REMARK    7  A    between atoms: C_11  and  C_12
REMARK    8  A    between atoms: C_11  and  C_13
REMARK    9  A    between atoms: C_11  and  C_14
REMARK   10  A    between atoms: C_16  and  C_17
REMARK   11  A    between atoms: C_17  and  O_18
REMARK   12  A    between atoms: O_18  and  C_19
REMARK   13  A    between atoms: C_22  and  C_23
REMARK                            x       y       z     vdW  Elec       q    Type
REMARK                         _______ _______ _______ _____ _____    ______ ____
ROOT
ATOM      1  N   UNL     1      -0.718  11.916  20.894  0.00  0.00    +0.000 N 
ATOM      2  C   UNL     1      -0.041  12.414  21.999  0.00  0.00    +0.000 A 
ATOM      3  N   UNL     1      -0.627  11.772  23.010  0.00  0.00    +0.000 NA
ATOM      4  C   UNL     1      -1.942  11.955  22.671  0.00  0.00    +0.000 A 
ATOM      5  C   UNL     1      -3.038  12.153  23.521  0.00  0.00    +0.000 A 
ATOM      6  C   UNL     1      -4.101  12.901  23.014  0.00  0.00    +0.000 A 
ATOM      7  C   UNL     1      -4.108  13.317  21.675  0.00  0.00    +0.000 A 
ATOM      8  C   UNL     1      -3.117  12.912  20.751  0.00  0.00    +0.000 A 
ATOM      9  C   UNL     1      -2.027  12.212  21.286  0.00  0.00    +0.000 A 
ENDROOT
BRANCH   1  10
ATOM     10  C   UNL     1      -0.067  11.541  19.630  0.00  0.00    +0.000 C 
BRANCH  10  14
ATOM     11  C   UNL     1       2.051   7.672  19.619  0.00  0.00    +0.000 A 
ATOM     12  C   UNL     1       2.035   8.511  18.505  0.00  0.00    +0.000 A 
ATOM     13  C   UNL     1       1.403   9.764  18.537  0.00  0.00    +0.000 A 
ATOM     14  C   UNL     1       0.746  10.223  19.691  0.00  0.00    +0.000 A 
ATOM     15  C   UNL     1       0.837   9.384  20.826  0.00  0.00    +0.000 A 
ATOM     16  C   UNL     1       1.464   8.123  20.792  0.00  0.00    +0.000 A 
BRANCH  11  18
ATOM     17  C   UNL     1       2.003   5.316  20.013  0.00  0.00    +0.000 C 
ATOM     18  O   UNL     1       2.625   6.448  19.415  0.00  0.00    +0.000 OA
ENDBRANCH  11  18
ENDBRANCH  10  14
BRANCH  10  19
ATOM     19  C   UNL     1      -1.108  11.593  18.451  0.00  0.00    +0.000 C 
ATOM     20  O   UNL     1      -1.227  12.519  17.672  0.00  0.00    +0.000 OA
ATOM     21  N   UNL     1      -1.959  10.486  18.342  0.00  0.00    +0.000 N 
ATOM     22  H   UNL     1      -1.653   9.628  18.798  0.00  0.00    +0.000 HD
BRANCH  21  23
ATOM     23  C   UNL     1      -3.047  10.364  17.339  0.00  0.00    +0.000 C 
ATOM     24  C   UNL     1      -2.509  10.122  15.917  0.00  0.00    +0.000 C 
ATOM     25  C   UNL     1      -3.934   9.163  17.726  0.00  0.00    +0.000 C 
ATOM     26  C   UNL     1      -3.941  11.620  17.332  0.00  0.00    +0.000 C 
ENDBRANCH  21  23
ENDBRANCH  10  19
ENDBRANCH   1  10
BRANCH   2  27
ATOM     27  C   UNL     1       0.149  13.925  21.954  0.00  0.00    +0.000 C 
BRANCH  27  28
ATOM     28  O   UNL     1       1.524  14.218  21.997  0.00  0.00    +0.000 OA
BRANCH  28  29
ATOM     29  C   UNL     1       1.934  14.877  20.865  0.00  0.00    +0.000 A 
ATOM     30  C   UNL     1       0.902  15.275  20.025  0.00  0.00    +0.000 A 
ATOM     31  C   UNL     1       1.196  15.933  18.837  0.00  0.00    +0.000 A 
ATOM     32  C   UNL     1       2.522  16.216  18.487  0.00  0.00    +0.000 A 
ATOM     33  C   UNL     1       2.842  16.883  17.187  0.00  0.00    +0.000 C 
ATOM     34  C   UNL     1       3.553  15.830  19.342  0.00  0.00    +0.000 A 
ATOM     35  C   UNL     1       3.262  15.172  20.533  0.00  0.00    +0.000 A 
ENDBRANCH  28  29
ENDBRANCH  27  28
ENDBRANCH   2  27
TORSDOF 8
ENDMDL
