MODEL 1
REMARK VINA RESULT:      -6.2      0.000      0.000
REMARK  Name = 
REMARK  4 active torsions:
REMARK  status: ('A' for Active; 'I' for Inactive)
REMARK    1  A    between atoms: C_1  and  N_2
REMARK    2  A    between atoms: C_5  and  C_6
REMARK    3  A    between atoms: C_6  and  C_7
REMARK    4  A    between atoms: C_7  and  C_8
REMARK                            x       y       z     vdW  Elec       q    Type
REMARK                         _______ _______ _______ _____ _____    ______ ____
ROOT
ATOM      1  C   UNL     1       7.437   6.844  17.437  0.00  0.00    +0.000 C 
ATOM      2  N   UNL     1       6.489   6.532  16.384  0.00  0.00    +0.000 NA
ATOM      3  C   UNL     1       6.669   5.207  15.794  0.00  0.00    +0.000 C 
ATOM      4  C   UNL     1       5.646   4.159  16.119  0.00  0.00    +0.000 C 
ATOM      5  C   UNL     1       4.493   4.385  16.773  0.00  0.00    +0.000 C 
ATOM      6  C   UNL     1       4.170   5.783  17.227  0.00  0.00    +0.000 C 
ATOM      7  C   UNL     1       5.108   6.887  16.705  0.00  0.00    +0.000 C 
ENDROOT
BRANCH   5   8
ATOM      8  C   UNL     1       3.521   3.256  17.099  0.00  0.00    +0.000 C 
BRANCH   8   9
ATOM      9  C   UNL     1       2.208   3.707  17.747  0.00  0.00    +0.000 C 
BRANCH   9  10
ATOM     10  C   UNL     1       2.098   3.321  19.196  0.00  0.00    +0.000 A 
ATOM     11  C   UNL     1       0.999   3.437  20.024  0.00  0.00    +0.000 A 
ATOM     12  C   UNL     1       1.287   3.049  21.364  0.00  0.00    +0.000 A 
ATOM     13  C   UNL     1       2.592   2.643  21.515  0.00  0.00    +0.000 A 
ATOM     14  S   UNL     1       3.460   2.716  20.040  0.00  0.00    +0.000 S 
ENDBRANCH   9  10
ENDBRANCH   8   9
ENDBRANCH   5   8
TORSDOF 3
ENDMDL
MODEL 2
REMARK VINA RESULT:      -6.1      1.273      1.651
REMARK  Name = 
REMARK  4 active torsions:
REMARK  status: ('A' for Active; 'I' for Inactive)
REMARK    1  A    between atoms: C_1  and  N_2
REMARK    2  A    between atoms: C_5  and  C_6
REMARK    3  A    between atoms: C_6  and  C_7
REMARK    4  A    between atoms: C_7  and  C_8
REMARK                            x       y       z     vdW  Elec       q    Type
REMARK                         _______ _______ _______ _____ _____    ______ ____
ROOT
ATOM      1  C   UNL     1       7.470   7.112  17.234  0.00  0.00    +0.000 C 
ATOM      2  N   UNL     1       7.411   5.671  17.079  0.00  0.00    +0.000 NA
ATOM      3  C   UNL     1       6.910   4.966  18.256  0.00  0.00    +0.000 C 
ATOM      4  C   UNL     1       5.537   4.368  18.173  0.00  0.00    +0.000 C 
ATOM      5  C   UNL     1       4.799   4.287  17.052  0.00  0.00    +0.000 C 
ATOM      6  C   UNL     1       5.362   4.824  15.764  0.00  0.00    +0.000 C 
ATOM      7  C   UNL     1       6.845   5.234  15.805  0.00  0.00    +0.000 C 
ENDROOT
BRANCH   5   8
ATOM      8  C   UNL     1       3.392   3.698  17.058  0.00  0.00    +0.000 C 
BRANCH   8   9
ATOM      9  C   UNL     1       2.341   4.552  17.775  0.00  0.00    +0.000 C 
BRANCH   9  10
ATOM     10  C   UNL     1       2.052   4.087  19.175  0.00  0.00    +0.000 A 
ATOM     11  C   UNL     1       2.505   4.630  20.360  0.00  0.00    +0.000 A 
ATOM     12  C   UNL     1       2.096   3.872  21.495  0.00  0.00    +0.000 A 
ATOM     13  C   UNL     1       1.340   2.780  21.142  0.00  0.00    +0.000 A 
ATOM     14  S   UNL     1       1.112   2.681  19.447  0.00  0.00    +0.000 S 
ENDBRANCH   9  10
ENDBRANCH   8   9
ENDBRANCH   5   8
TORSDOF 3
ENDMDL
MODEL 3
REMARK VINA RESULT:      -6.0      1.268      1.797
REMARK  Name = 
REMARK  4 active torsions:
REMARK  status: ('A' for Active; 'I' for Inactive)
REMARK    1  A    between atoms: C_1  and  N_2
REMARK    2  A    between atoms: C_5  and  C_6
REMARK    3  A    between atoms: C_6  and  C_7
REMARK    4  A    between atoms: C_7  and  C_8
REMARK                            x       y       z     vdW  Elec       q    Type
REMARK                         _______ _______ _______ _____ _____    ______ ____
ROOT
ATOM      1  C   UNL     1       7.492   7.100  17.164  0.00  0.00    +0.000 C 
ATOM      2  N   UNL     1       7.454   5.656  17.035  0.00  0.00    +0.000 NA
ATOM      3  C   UNL     1       6.977   4.964  18.230  0.00  0.00    +0.000 C 
ATOM      4  C   UNL     1       5.612   4.344  18.174  0.00  0.00    +0.000 C 
ATOM      5  C   UNL     1       4.863   4.232  17.062  0.00  0.00    +0.000 C 
ATOM      6  C   UNL     1       5.402   4.755  15.759  0.00  0.00    +0.000 C 
ATOM      7  C   UNL     1       6.880   5.188  15.775  0.00  0.00    +0.000 C 
ENDROOT
BRANCH   5   8
ATOM      8  C   UNL     1       3.466   3.621  17.095  0.00  0.00    +0.000 C 
BRANCH   8   9
ATOM      9  C   UNL     1       3.340   2.351  17.942  0.00  0.00    +0.000 C 
BRANCH   9  10
ATOM     10  C   UNL     1       2.719   2.594  19.289  0.00  0.00    +0.000 A 
ATOM     11  C   UNL     1       3.333   2.559  20.525  0.00  0.00    +0.000 A 
ATOM     12  C   UNL     1       2.411   2.756  21.594  0.00  0.00    +0.000 A 
ATOM     13  C   UNL     1       1.127   2.942  21.141  0.00  0.00    +0.000 A 
ATOM     14  S   UNL     1       1.038   2.895  19.431  0.00  0.00    +0.000 S 
ENDBRANCH   9  10
ENDBRANCH   8   9
ENDBRANCH   5   8
TORSDOF 3
ENDMDL
MODEL 4
REMARK VINA RESULT:      -5.9      1.281      1.585
REMARK  Name = 
REMARK  4 active torsions:
REMARK  status: ('A' for Active; 'I' for Inactive)
REMARK    1  A    between atoms: C_1  and  N_2
REMARK    2  A    between atoms: C_5  and  C_6
REMARK    3  A    between atoms: C_6  and  C_7
REMARK    4  A    between atoms: C_7  and  C_8
REMARK                            x       y       z     vdW  Elec       q    Type
REMARK                         _______ _______ _______ _____ _____    ______ ____
ROOT
ATOM      1  C   UNL     1       7.647   4.544  17.660  0.00  0.00    +0.000 C 
ATOM      2  N   UNL     1       6.735   5.016  16.636  0.00  0.00    +0.000 NA
ATOM      3  C   UNL     1       5.690   4.058  16.281  0.00  0.00    +0.000 C 
ATOM      4  C   UNL     1       4.292   4.359  16.734  0.00  0.00    +0.000 C 
ATOM      5  C   UNL     1       3.896   5.516  17.294  0.00  0.00    +0.000 C 
ATOM      6  C   UNL     1       4.904   6.615  17.496  0.00  0.00    +0.000 C 
ATOM      7  C   UNL     1       6.277   6.389  16.837  0.00  0.00    +0.000 C 
ENDROOT
BRANCH   5   8
ATOM      8  C   UNL     1       2.461   5.731  17.763  0.00  0.00    +0.000 C 
BRANCH   8   9
ATOM      9  C   UNL     1       1.644   4.446  17.938  0.00  0.00    +0.000 C 
BRANCH   9  10
ATOM     10  C   UNL     1       1.757   3.852  19.314  0.00  0.00    +0.000 A 
ATOM     11  C   UNL     1       1.413   2.579  19.720  0.00  0.00    +0.000 A 
ATOM     12  C   UNL     1       1.578   2.393  21.122  0.00  0.00    +0.000 A 
ATOM     13  C   UNL     1       2.050   3.527  21.741  0.00  0.00    +0.000 A 
ATOM     14  S   UNL     1       2.306   4.804  20.628  0.00  0.00    +0.000 S 
ENDBRANCH   9  10
ENDBRANCH   8   9
ENDBRANCH   5   8
TORSDOF 3
ENDMDL
MODEL 5
REMARK VINA RESULT:      -5.9      1.225      1.554
REMARK  Name = 
REMARK  4 active torsions:
REMARK  status: ('A' for Active; 'I' for Inactive)
REMARK    1  A    between atoms: C_1  and  N_2
REMARK    2  A    between atoms: C_5  and  C_6
REMARK    3  A    between atoms: C_6  and  C_7
REMARK    4  A    between atoms: C_7  and  C_8
REMARK                            x       y       z     vdW  Elec       q    Type
REMARK                         _______ _______ _______ _____ _____    ______ ____
ROOT
ATOM      1  C   UNL     1       7.483   7.128  17.282  0.00  0.00    +0.000 C 
ATOM      2  N   UNL     1       7.418   5.691  17.091  0.00  0.00    +0.000 NA
ATOM      3  C   UNL     1       6.910   4.959  18.249  0.00  0.00    +0.000 C 
ATOM      4  C   UNL     1       5.534   4.371  18.147  0.00  0.00    +0.000 C 
ATOM      5  C   UNL     1       4.800   4.320  17.022  0.00  0.00    +0.000 C 
ATOM      6  C   UNL     1       5.369   4.887  15.749  0.00  0.00    +0.000 C 
ATOM      7  C   UNL     1       6.854   5.289  15.805  0.00  0.00    +0.000 C 
ENDROOT
BRANCH   5   8
ATOM      8  C   UNL     1       3.390   3.738  17.009  0.00  0.00    +0.000 C 
BRANCH   8   9
ATOM      9  C   UNL     1       2.366   4.516  17.842  0.00  0.00    +0.000 C 
BRANCH   9  10
ATOM     10  C   UNL     1       2.136   3.923  19.204  0.00  0.00    +0.000 A 
ATOM     11  C   UNL     1       1.615   2.683  19.512  0.00  0.00    +0.000 A 
ATOM     12  C   UNL     1       1.460   2.493  20.916  0.00  0.00    +0.000 A 
ATOM     13  C   UNL     1       1.874   3.590  21.633  0.00  0.00    +0.000 A 
ATOM     14  S   UNL     1       2.461   4.837  20.616  0.00  0.00    +0.000 S 
ENDBRANCH   9  10
ENDBRANCH   8   9
ENDBRANCH   5   8
TORSDOF 3
ENDMDL
MODEL 6
REMARK VINA RESULT:      -5.8      1.077      1.562
REMARK  Name = 
REMARK  4 active torsions:
REMARK  status: ('A' for Active; 'I' for Inactive)
REMARK    1  A    between atoms: C_1  and  N_2
REMARK    2  A    between atoms: C_5  and  C_6
REMARK    3  A    between atoms: C_6  and  C_7
REMARK    4  A    between atoms: C_7  and  C_8
REMARK                            x       y       z     vdW  Elec       q    Type
REMARK                         _______ _______ _______ _____ _____    ______ ____
ROOT
ATOM      1  C   UNL     1       7.545   7.416  17.411  0.00  0.00    +0.000 C 
ATOM      2  N   UNL     1       7.503   5.967  17.443  0.00  0.00    +0.000 NA
ATOM      3  C   UNL     1       6.846   5.416  18.627  0.00  0.00    +0.000 C 
ATOM      4  C   UNL     1       5.495   4.792  18.440  0.00  0.00    +0.000 C 
ATOM      5  C   UNL     1       4.915   4.551  17.251  0.00  0.00    +0.000 C 
ATOM      6  C   UNL     1       5.648   4.922  15.990  0.00  0.00    +0.000 C 
ATOM      7  C   UNL     1       7.113   5.356  16.175  0.00  0.00    +0.000 C 
ENDROOT
BRANCH   5   8
ATOM      8  C   UNL     1       3.519   3.947  17.147  0.00  0.00    +0.000 C 
BRANCH   8   9
ATOM      9  C   UNL     1       3.343   2.607  17.870  0.00  0.00    +0.000 C 
BRANCH   9  10
ATOM     10  C   UNL     1       2.570   2.722  19.154  0.00  0.00    +0.000 A 
ATOM     11  C   UNL     1       1.233   3.025  19.315  0.00  0.00    +0.000 A 
ATOM     12  C   UNL     1       0.863   3.132  20.687  0.00  0.00    +0.000 A 
ATOM     13  C   UNL     1       1.926   2.901  21.528  0.00  0.00    +0.000 A 
ATOM     14  S   UNL     1       3.360   2.540  20.663  0.00  0.00    +0.000 S 
ENDBRANCH   9  10
ENDBRANCH   8   9
ENDBRANCH   5   8
TORSDOF 3
ENDMDL
MODEL 7
REMARK VINA RESULT:      -5.8      1.171      1.410
REMARK  Name = 
REMARK  4 active torsions:
REMARK  status: ('A' for Active; 'I' for Inactive)
REMARK    1  A    between atoms: C_1  and  N_2
REMARK    2  A    between atoms: C_5  and  C_6
REMARK    3  A    between atoms: C_6  and  C_7
REMARK    4  A    between atoms: C_7  and  C_8
REMARK                            x       y       z     vdW  Elec       q    Type
REMARK                         _______ _______ _______ _____ _____    ______ ____
ROOT
ATOM      1  C   UNL     1       7.433   5.698  18.685  0.00  0.00    +0.000 C 
ATOM      2  N   UNL     1       6.728   5.815  17.423  0.00  0.00    +0.000 NA
ATOM      3  C   UNL     1       6.687   4.577  16.647  0.00  0.00    +0.000 C 
ATOM      4  C   UNL     1       5.374   3.859  16.558  0.00  0.00    +0.000 C 
ATOM      5  C   UNL     1       4.199   4.346  16.995  0.00  0.00    +0.000 C 
ATOM      6  C   UNL     1       4.160   5.712  17.624  0.00  0.00    +0.000 C 
ATOM      7  C   UNL     1       5.458   6.532  17.517  0.00  0.00    +0.000 C 
ENDROOT
BRANCH   5   8
ATOM      8  C   UNL     1       2.910   3.535  16.902  0.00  0.00    +0.000 C 
BRANCH   8   9
ATOM      9  C   UNL     1       2.881   2.274  17.773  0.00  0.00    +0.000 C 
BRANCH   9  10
ATOM     10  C   UNL     1       2.527   2.551  19.208  0.00  0.00    +0.000 A 
ATOM     11  C   UNL     1       3.377   2.614  20.294  0.00  0.00    +0.000 A 
ATOM     12  C   UNL     1       2.677   2.814  21.518  0.00  0.00    +0.000 A 
ATOM     13  C   UNL     1       1.318   2.905  21.328  0.00  0.00    +0.000 A 
ATOM     14  S   UNL     1       0.893   2.765  19.675  0.00  0.00    +0.000 S 
ENDBRANCH   9  10
ENDBRANCH   8   9
ENDBRANCH   5   8
TORSDOF 3
ENDMDL
MODEL 8
REMARK VINA RESULT:      -5.7      1.535      1.910
REMARK  Name = 
REMARK  4 active torsions:
REMARK  status: ('A' for Active; 'I' for Inactive)
REMARK    1  A    between atoms: C_1  and  N_2
REMARK    2  A    between atoms: C_5  and  C_6
REMARK    3  A    between atoms: C_6  and  C_7
REMARK    4  A    between atoms: C_7  and  C_8
REMARK                            x       y       z     vdW  Elec       q    Type
REMARK                         _______ _______ _______ _____ _____    ______ ____
ROOT
ATOM      1  C   UNL     1       7.684   4.552  17.597  0.00  0.00    +0.000 C 
ATOM      2  N   UNL     1       6.725   4.967  16.592  0.00  0.00    +0.000 NA
ATOM      3  C   UNL     1       5.639   4.014  16.375  0.00  0.00    +0.000 C 
ATOM      4  C   UNL     1       4.277   4.390  16.880  0.00  0.00    +0.000 C 
ATOM      5  C   UNL     1       3.942   5.598  17.366  0.00  0.00    +0.000 C 
ATOM      6  C   UNL     1       4.986   6.681  17.422  0.00  0.00    +0.000 C 
ATOM      7  C   UNL     1       6.312   6.364  16.707  0.00  0.00    +0.000 C 
ENDROOT
BRANCH   5   8
ATOM      8  C   UNL     1       2.542   5.890  17.897  0.00  0.00    +0.000 C 
BRANCH   8   9
ATOM      9  C   UNL     1       2.443   5.997  19.422  0.00  0.00    +0.000 C 
BRANCH   9  10
ATOM     10  C   UNL     1       2.075   4.699  20.086  0.00  0.00    +0.000 A 
ATOM     11  C   UNL     1       2.312   4.316  21.391  0.00  0.00    +0.000 A 
ATOM     12  C   UNL     1       1.898   2.977  21.646  0.00  0.00    +0.000 A 
ATOM     13  C   UNL     1       1.353   2.384  20.533  0.00  0.00    +0.000 A 
ATOM     14  S   UNL     1       1.327   3.445  19.189  0.00  0.00    +0.000 S 
ENDBRANCH   9  10
ENDBRANCH   8   9
ENDBRANCH   5   8
TORSDOF 3
ENDMDL
MODEL 9
REMARK VINA RESULT:      -5.7      2.545      5.862
REMARK  Name = 
REMARK  4 active torsions:
REMARK  status: ('A' for Active; 'I' for Inactive)
REMARK    1  A    between atoms: C_1  and  N_2
REMARK    2  A    between atoms: C_5  and  C_6
REMARK    3  A    between atoms: C_6  and  C_7
REMARK    4  A    between atoms: C_7  and  C_8
REMARK                            x       y       z     vdW  Elec       q    Type
REMARK                         _______ _______ _______ _____ _____    ______ ____
ROOT
ATOM      1  C   UNL     1       1.381   2.718  21.724  0.00  0.00    +0.000 C 
ATOM      2  N   UNL     1       1.129   3.677  20.665  0.00  0.00    +0.000 NA
ATOM      3  C   UNL     1       2.048   4.814  20.661  0.00  0.00    +0.000 C 
ATOM      4  C   UNL     1       3.072   4.871  19.567  0.00  0.00    +0.000 C 
ATOM      5  C   UNL     1       3.107   4.053  18.500  0.00  0.00    +0.000 C 
ATOM      6  C   UNL     1       2.054   2.987  18.360  0.00  0.00    +0.000 C 
ATOM      7  C   UNL     1       0.885   3.069  19.359  0.00  0.00    +0.000 C 
ENDROOT
BRANCH   5   8
ATOM      8  C   UNL     1       4.207   4.152  17.448  0.00  0.00    +0.000 C 
BRANCH   8   9
ATOM      9  C   UNL     1       4.498   5.573  16.955  0.00  0.00    +0.000 C 
BRANCH   9  10
ATOM     10  C   UNL     1       5.786   6.135  17.489  0.00  0.00    +0.000 A 
ATOM     11  C   UNL     1       6.456   7.266  17.069  0.00  0.00    +0.000 A 
ATOM     12  C   UNL     1       7.695   7.446  17.750  0.00  0.00    +0.000 A 
ATOM     13  C   UNL     1       7.927   6.452  18.671  0.00  0.00    +0.000 A 
ATOM     14  S   UNL     1       6.646   5.316  18.723  0.00  0.00    +0.000 S 
ENDBRANCH   9  10
ENDBRANCH   8   9
ENDBRANCH   5   8
TORSDOF 3
ENDMDL
