MODEL 1
REMARK VINA RESULT:      -8.3      0.000      0.000
REMARK  Name = 
REMARK  4 active torsions:
REMARK  status: ('A' for Active; 'I' for Inactive)
REMARK    1  A    between atoms: C_1  and  N_2
REMARK    2  A    between atoms: N_2  and  C_3
REMARK    3  A    between atoms: C_3  and  C_4
REMARK    4  A    between atoms: C_12  and  C_13
REMARK                            x       y       z     vdW  Elec       q    Type
REMARK                         _______ _______ _______ _____ _____    ______ ____
ROOT
ATOM      1  C   UNL     1       5.725   5.683  16.841  0.00  0.00    +0.000 C 
ATOM      2  C   UNL     1       5.478   4.277  17.417  0.00  0.00    +0.000 C 
ATOM      3  C   UNL     1       4.020   3.951  17.645  0.00  0.00    +0.000 A 
ATOM      4  C   UNL     1       3.659   2.609  17.852  0.00  0.00    +0.000 A 
ATOM      5  C   UNL     1       2.332   2.253  18.091  0.00  0.00    +0.000 A 
ATOM      6  C   UNL     1       1.345   3.231  18.110  0.00  0.00    +0.000 A 
ATOM      7  C   UNL     1       1.690   4.565  17.910  0.00  0.00    +0.000 A 
ATOM      8  C   UNL     1       3.033   4.950  17.716  0.00  0.00    +0.000 A 
ATOM      9  C   UNL     1       3.384   6.428  17.555  0.00  0.00    +0.000 C 
ATOM     10  C   UNL     1       4.900   6.695  17.654  0.00  0.00    +0.000 C 
ENDROOT
BRANCH   9  11
ATOM     11  C   UNL     1       2.626   7.319  18.540  0.00  0.00    +0.000 A 
ATOM     12  C   UNL     1       2.401   6.902  19.863  0.00  0.00    +0.000 A 
ATOM     13  C   UNL     1       1.607   7.661  20.724  0.00  0.00    +0.000 A 
ATOM     14  C   UNL     1       1.025   8.849  20.277  0.00  0.00    +0.000 A 
ATOM     15 CL   UNL     1       0.012   9.711  21.380  0.00  0.00    +0.000 Cl
ATOM     16  C   UNL     1       1.254   9.286  18.968  0.00  0.00    +0.000 A 
ATOM     17 CL   UNL     1       0.549  10.732  18.337  0.00  0.00    +0.000 Cl
ATOM     18  C   UNL     1       2.056   8.527  18.108  0.00  0.00    +0.000 A 
ENDBRANCH   9  11
BRANCH   1  19
ATOM     19  C   UNL     1       5.469   5.716  15.317  0.00  0.00    +0.000 C 
BRANCH  19  21
ATOM     20  C   UNL     1       6.329   4.041  13.810  0.00  0.00    +0.000 C 
ATOM     21  N   UNL     1       6.638   5.246  14.569  0.00  0.00    +0.000 NA
ATOM     22  H   UNL     1       6.953   5.965  13.920  0.00  0.00    +0.000 HD
ENDBRANCH  19  21
ENDBRANCH   1  19
TORSDOF 3
ENDMDL
MODEL 2
REMARK VINA RESULT:      -8.1      2.944      4.759
REMARK  Name = 
REMARK  4 active torsions:
REMARK  status: ('A' for Active; 'I' for Inactive)
REMARK    1  A    between atoms: C_1  and  N_2
REMARK    2  A    between atoms: N_2  and  C_3
REMARK    3  A    between atoms: C_3  and  C_4
REMARK    4  A    between atoms: C_12  and  C_13
REMARK                            x       y       z     vdW  Elec       q    Type
REMARK                         _______ _______ _______ _____ _____    ______ ____
ROOT
ATOM      1  C   UNL     1       5.287   4.855  15.095  0.00  0.00    +0.000 C 
ATOM      2  C   UNL     1       5.952   6.180  15.505  0.00  0.00    +0.000 C 
ATOM      3  C   UNL     1       6.611   6.148  16.864  0.00  0.00    +0.000 A 
ATOM      4  C   UNL     1       7.514   7.172  17.196  0.00  0.00    +0.000 A 
ATOM      5  C   UNL     1       8.132   7.205  18.446  0.00  0.00    +0.000 A 
ATOM      6  C   UNL     1       7.872   6.204  19.374  0.00  0.00    +0.000 A 
ATOM      7  C   UNL     1       6.977   5.184  19.059  0.00  0.00    +0.000 A 
ATOM      8  C   UNL     1       6.303   5.162  17.820  0.00  0.00    +0.000 A 
ATOM      9  C   UNL     1       5.287   4.060  17.527  0.00  0.00    +0.000 C 
ATOM     10  C   UNL     1       4.437   4.351  16.274  0.00  0.00    +0.000 C 
ENDROOT
BRANCH   9  11
ATOM     11  C   UNL     1       4.380   3.771  18.724  0.00  0.00    +0.000 A 
ATOM     12  C   UNL     1       4.352   2.498  19.318  0.00  0.00    +0.000 A 
ATOM     13  C   UNL     1       3.438   2.203  20.330  0.00  0.00    +0.000 A 
ATOM     14  C   UNL     1       2.536   3.176  20.766  0.00  0.00    +0.000 A 
ATOM     15 CL   UNL     1       1.399   2.726  21.986  0.00  0.00    +0.000 Cl
ATOM     16  C   UNL     1       2.563   4.453  20.197  0.00  0.00    +0.000 A 
ATOM     17 CL   UNL     1       1.465   5.701  20.669  0.00  0.00    +0.000 Cl
ATOM     18  C   UNL     1       3.486   4.750  19.187  0.00  0.00    +0.000 A 
ENDBRANCH   9  11
BRANCH   1  19
ATOM     19  C   UNL     1       6.332   3.842  14.574  0.00  0.00    +0.000 C 
BRANCH  19  21
ATOM     20  C   UNL     1       6.903   3.905  12.232  0.00  0.00    +0.000 C 
ATOM     21  N   UNL     1       5.991   3.365  13.232  0.00  0.00    +0.000 NA
ATOM     22  H   UNL     1       6.038   2.349  13.196  0.00  0.00    +0.000 HD
ENDBRANCH  19  21
ENDBRANCH   1  19
TORSDOF 3
ENDMDL
MODEL 3
REMARK VINA RESULT:      -8.1      1.550      2.127
REMARK  Name = 
REMARK  4 active torsions:
REMARK  status: ('A' for Active; 'I' for Inactive)
REMARK    1  A    between atoms: C_1  and  N_2
REMARK    2  A    between atoms: N_2  and  C_3
REMARK    3  A    between atoms: C_3  and  C_4
REMARK    4  A    between atoms: C_12  and  C_13
REMARK                            x       y       z     vdW  Elec       q    Type
REMARK                         _______ _______ _______ _____ _____    ______ ____
ROOT
ATOM      1  C   UNL     1       5.236   4.853  17.809  0.00  0.00    +0.000 C 
ATOM      2  C   UNL     1       5.075   3.956  19.048  0.00  0.00    +0.000 C 
ATOM      3  C   UNL     1       3.650   3.820  19.533  0.00  0.00    +0.000 A 
ATOM      4  C   UNL     1       3.345   2.787  20.435  0.00  0.00    +0.000 A 
ATOM      5  C   UNL     1       2.052   2.630  20.933  0.00  0.00    +0.000 A 
ATOM      6  C   UNL     1       1.042   3.491  20.522  0.00  0.00    +0.000 A 
ATOM      7  C   UNL     1       1.331   4.521  19.631  0.00  0.00    +0.000 A 
ATOM      8  C   UNL     1       2.643   4.727  19.156  0.00  0.00    +0.000 A 
ATOM      9  C   UNL     1       2.938   5.900  18.222  0.00  0.00    +0.000 C 
ATOM     10  C   UNL     1       4.449   6.153  18.042  0.00  0.00    +0.000 C 
ENDROOT
BRANCH   9  11
ATOM     11  C   UNL     1       2.235   7.185  18.660  0.00  0.00    +0.000 A 
ATOM     12  C   UNL     1       1.914   8.186  17.729  0.00  0.00    +0.000 A 
ATOM     13  C   UNL     1       1.384   9.407  18.149  0.00  0.00    +0.000 A 
ATOM     14  C   UNL     1       1.165   9.647  19.507  0.00  0.00    +0.000 A 
ATOM     15 CL   UNL     1       0.555  11.199  19.960  0.00  0.00    +0.000 Cl
ATOM     16  C   UNL     1       1.463   8.653  20.445  0.00  0.00    +0.000 A 
ATOM     17 CL   UNL     1       1.241   8.885  22.143  0.00  0.00    +0.000 Cl
ATOM     18  C   UNL     1       1.989   7.427  20.022  0.00  0.00    +0.000 A 
ENDBRANCH   9  11
BRANCH   1  19
ATOM     19  C   UNL     1       4.859   4.094  16.516  0.00  0.00    +0.000 C 
BRANCH  19  21
ATOM     20  C   UNL     1       6.367   4.070  14.634  0.00  0.00    +0.000 C 
ATOM     21  N   UNL     1       6.031   3.455  15.912  0.00  0.00    +0.000 NA
ATOM     22  H   UNL     1       6.836   3.537  16.531  0.00  0.00    +0.000 HD
ENDBRANCH  19  21
ENDBRANCH   1  19
TORSDOF 3
ENDMDL
MODEL 4
REMARK VINA RESULT:      -8.1      1.133      1.867
REMARK  Name = 
REMARK  4 active torsions:
REMARK  status: ('A' for Active; 'I' for Inactive)
REMARK    1  A    between atoms: C_1  and  N_2
REMARK    2  A    between atoms: N_2  and  C_3
REMARK    3  A    between atoms: C_3  and  C_4
REMARK    4  A    between atoms: C_12  and  C_13
REMARK                            x       y       z     vdW  Elec       q    Type
REMARK                         _______ _______ _______ _____ _____    ______ ____
ROOT
ATOM      1  C   UNL     1       5.772   4.743  18.297  0.00  0.00    +0.000 C 
ATOM      2  C   UNL     1       5.132   3.591  19.092  0.00  0.00    +0.000 C 
ATOM      3  C   UNL     1       3.639   3.459  18.894  0.00  0.00    +0.000 A 
ATOM      4  C   UNL     1       3.013   2.268  19.300  0.00  0.00    +0.000 A 
ATOM      5  C   UNL     1       1.635   2.101  19.164  0.00  0.00    +0.000 A 
ATOM      6  C   UNL     1       0.867   3.114  18.603  0.00  0.00    +0.000 A 
ATOM      7  C   UNL     1       1.474   4.301  18.200  0.00  0.00    +0.000 A 
ATOM      8  C   UNL     1       2.858   4.508  18.376  0.00  0.00    +0.000 A 
ATOM      9  C   UNL     1       3.484   5.842  17.973  0.00  0.00    +0.000 C 
ATOM     10  C   UNL     1       4.923   6.008  18.503  0.00  0.00    +0.000 C 
ENDROOT
BRANCH   9  11
ATOM     11  C   UNL     1       2.627   7.038  18.390  0.00  0.00    +0.000 A 
ATOM     12  C   UNL     1       2.285   8.038  17.465  0.00  0.00    +0.000 A 
ATOM     13  C   UNL     1       1.606   9.186  17.875  0.00  0.00    +0.000 A 
ATOM     14  C   UNL     1       1.258   9.354  19.217  0.00  0.00    +0.000 A 
ATOM     15 CL   UNL     1       0.464  10.822  19.663  0.00  0.00    +0.000 Cl
ATOM     16  C   UNL     1       1.576   8.359  20.147  0.00  0.00    +0.000 A 
ATOM     17 CL   UNL     1       1.199   8.506  21.827  0.00  0.00    +0.000 Cl
ATOM     18  C   UNL     1       2.251   7.204  19.733  0.00  0.00    +0.000 A 
ENDBRANCH   9  11
BRANCH   1  19
ATOM     19  C   UNL     1       5.994   4.347  16.820  0.00  0.00    +0.000 C 
BRANCH  19  21
ATOM     20  C   UNL     1       7.092   4.982  14.769  0.00  0.00    +0.000 C 
ATOM     21  N   UNL     1       7.089   5.114  16.220  0.00  0.00    +0.000 NA
ATOM     22  H   UNL     1       6.997   6.101  16.454  0.00  0.00    +0.000 HD
ENDBRANCH  19  21
ENDBRANCH   1  19
TORSDOF 3
ENDMDL
MODEL 5
REMARK VINA RESULT:      -7.7      2.093      4.102
REMARK  Name = 
REMARK  4 active torsions:
REMARK  status: ('A' for Active; 'I' for Inactive)
REMARK    1  A    between atoms: C_1  and  N_2
REMARK    2  A    between atoms: N_2  and  C_3
REMARK    3  A    between atoms: C_3  and  C_4
REMARK    4  A    between atoms: C_12  and  C_13
REMARK                            x       y       z     vdW  Elec       q    Type
REMARK                         _______ _______ _______ _____ _____    ______ ____
ROOT
ATOM      1  C   UNL     1       2.183   3.099  17.954  0.00  0.00    +0.000 C 
ATOM      2  C   UNL     1       3.185   3.220  16.792  0.00  0.00    +0.000 C 
ATOM      3  C   UNL     1       4.202   4.324  16.966  0.00  0.00    +0.000 A 
ATOM      4  C   UNL     1       5.344   4.318  16.147  0.00  0.00    +0.000 A 
ATOM      5  C   UNL     1       6.303   5.325  16.247  0.00  0.00    +0.000 A 
ATOM      6  C   UNL     1       6.144   6.342  17.180  0.00  0.00    +0.000 A 
ATOM      7  C   UNL     1       5.015   6.363  17.996  0.00  0.00    +0.000 A 
ATOM      8  C   UNL     1       4.010   5.381  17.874  0.00  0.00    +0.000 A 
ATOM      9  C   UNL     1       2.758   5.463  18.746  0.00  0.00    +0.000 C 
ATOM     10  C   UNL     1       1.645   4.502  18.282  0.00  0.00    +0.000 C 
ENDROOT
BRANCH   9  11
ATOM     11  C   UNL     1       2.215   6.889  18.853  0.00  0.00    +0.000 A 
ATOM     12  C   UNL     1       2.161   7.727  17.727  0.00  0.00    +0.000 A 
ATOM     13  C   UNL     1       1.779   9.064  17.851  0.00  0.00    +0.000 A 
ATOM     14  C   UNL     1       1.443   9.584  19.103  0.00  0.00    +0.000 A 
ATOM     15 CL   UNL     1       1.029  11.259  19.190  0.00  0.00    +0.000 Cl
ATOM     16  C   UNL     1       1.475   8.757  20.231  0.00  0.00    +0.000 A 
ATOM     17 CL   UNL     1       1.096   9.335  21.814  0.00  0.00    +0.000 Cl
ATOM     18  C   UNL     1       1.852   7.415  20.103  0.00  0.00    +0.000 A 
ENDBRANCH   9  11
BRANCH   1  19
ATOM     19  C   UNL     1       2.805   2.350  19.154  0.00  0.00    +0.000 C 
BRANCH  19  21
ATOM     20  C   UNL     1       2.464   2.802  21.497  0.00  0.00    +0.000 C 
ATOM     21  N   UNL     1       1.869   2.271  20.278  0.00  0.00    +0.000 NA
ATOM     22  H   UNL     1       1.026   2.804  20.072  0.00  0.00    +0.000 HD
ENDBRANCH  19  21
ENDBRANCH   1  19
TORSDOF 3
ENDMDL
MODEL 6
REMARK VINA RESULT:      -7.6      2.108      3.746
REMARK  Name = 
REMARK  4 active torsions:
REMARK  status: ('A' for Active; 'I' for Inactive)
REMARK    1  A    between atoms: C_1  and  N_2
REMARK    2  A    between atoms: N_2  and  C_3
REMARK    3  A    between atoms: C_3  and  C_4
REMARK    4  A    between atoms: C_12  and  C_13
REMARK                            x       y       z     vdW  Elec       q    Type
REMARK                         _______ _______ _______ _____ _____    ______ ____
ROOT
ATOM      1  C   UNL     1       2.668   3.216  17.053  0.00  0.00    +0.000 C 
ATOM      2  C   UNL     1       4.042   3.558  16.451  0.00  0.00    +0.000 C 
ATOM      3  C   UNL     1       4.952   4.323  17.384  0.00  0.00    +0.000 A 
ATOM      4  C   UNL     1       6.320   4.402  17.070  0.00  0.00    +0.000 A 
ATOM      5  C   UNL     1       7.201   5.114  17.882  0.00  0.00    +0.000 A 
ATOM      6  C   UNL     1       6.732   5.743  19.028  0.00  0.00    +0.000 A 
ATOM      7  C   UNL     1       5.379   5.677  19.350  0.00  0.00    +0.000 A 
ATOM      8  C   UNL     1       4.463   5.004  18.514  0.00  0.00    +0.000 A 
ATOM      9  C   UNL     1       2.977   4.996  18.866  0.00  0.00    +0.000 C 
ATOM     10  C   UNL     1       2.094   4.483  17.710  0.00  0.00    +0.000 C 
ENDROOT
BRANCH   9  11
ATOM     11  C   UNL     1       2.483   6.363  19.341  0.00  0.00    +0.000 A 
ATOM     12  C   UNL     1       1.925   6.524  20.620  0.00  0.00    +0.000 A 
ATOM     13  C   UNL     1       1.365   7.743  21.005  0.00  0.00    +0.000 A 
ATOM     14  C   UNL     1       1.355   8.822  20.118  0.00  0.00    +0.000 A 
ATOM     15 CL   UNL     1       0.601  10.285  20.642  0.00  0.00    +0.000 Cl
ATOM     16  C   UNL     1       1.923   8.682  18.847  0.00  0.00    +0.000 A 
ATOM     17 CL   UNL     1       1.927   9.964  17.688  0.00  0.00    +0.000 Cl
ATOM     18  C   UNL     1       2.490   7.460  18.465  0.00  0.00    +0.000 A 
ENDBRANCH   9  11
BRANCH   1  19
ATOM     19  C   UNL     1       2.757   1.988  17.988  0.00  0.00    +0.000 C 
BRANCH  19  21
ATOM     20  C   UNL     1       1.548   2.057  20.073  0.00  0.00    +0.000 C 
ATOM     21  N   UNL     1       1.479   1.731  18.655  0.00  0.00    +0.000 NA
ATOM     22  H   UNL     1       0.741   2.291  18.231  0.00  0.00    +0.000 HD
ENDBRANCH  19  21
ENDBRANCH   1  19
TORSDOF 3
ENDMDL
MODEL 7
REMARK VINA RESULT:      -7.5      1.917      3.821
REMARK  Name = 
REMARK  4 active torsions:
REMARK  status: ('A' for Active; 'I' for Inactive)
REMARK    1  A    between atoms: C_1  and  N_2
REMARK    2  A    between atoms: N_2  and  C_3
REMARK    3  A    between atoms: C_3  and  C_4
REMARK    4  A    between atoms: C_12  and  C_13
REMARK                            x       y       z     vdW  Elec       q    Type
REMARK                         _______ _______ _______ _____ _____    ______ ____
ROOT
ATOM      1  C   UNL     1       2.847   3.291  19.116  0.00  0.00    +0.000 C 
ATOM      2  C   UNL     1       3.364   3.187  17.671  0.00  0.00    +0.000 C 
ATOM      3  C   UNL     1       4.113   4.410  17.193  0.00  0.00    +0.000 A 
ATOM      4  C   UNL     1       4.898   4.303  16.033  0.00  0.00    +0.000 A 
ATOM      5  C   UNL     1       5.591   5.405  15.533  0.00  0.00    +0.000 A 
ATOM      6  C   UNL     1       5.525   6.624  16.197  0.00  0.00    +0.000 A 
ATOM      7  C   UNL     1       4.748   6.744  17.346  0.00  0.00    +0.000 A 
ATOM      8  C   UNL     1       3.999   5.655  17.838  0.00  0.00    +0.000 A 
ATOM      9  C   UNL     1       3.114   5.835  19.070  0.00  0.00    +0.000 C 
ATOM     10  C   UNL     1       2.150   4.651  19.289  0.00  0.00    +0.000 C 
ENDROOT
BRANCH   9  11
ATOM     11  C   UNL     1       2.336   7.151  19.041  0.00  0.00    +0.000 A 
ATOM     12  C   UNL     1       2.190   7.877  17.847  0.00  0.00    +0.000 A 
ATOM     13  C   UNL     1       1.584   9.134  17.847  0.00  0.00    +0.000 A 
ATOM     14  C   UNL     1       1.114   9.686  19.040  0.00  0.00    +0.000 A 
ATOM     15 CL   UNL     1       0.422  11.268  18.975  0.00  0.00    +0.000 Cl
ATOM     16  C   UNL     1       1.236   8.968  20.234  0.00  0.00    +0.000 A 
ATOM     17 CL   UNL     1       0.699   9.595  21.752  0.00  0.00    +0.000 Cl
ATOM     18  C   UNL     1       1.837   7.704  20.231  0.00  0.00    +0.000 A 
ENDBRANCH   9  11
BRANCH   1  19
ATOM     19  C   UNL     1       3.975   3.009  20.135  0.00  0.00    +0.000 C 
BRANCH  19  21
ATOM     20  C   UNL     1       5.262   1.118  20.897  0.00  0.00    +0.000 C 
ATOM     21  N   UNL     1       4.778   1.851  19.735  0.00  0.00    +0.000 NA
ATOM     22  H   UNL     1       4.223   1.218  19.162  0.00  0.00    +0.000 HD
ENDBRANCH  19  21
ENDBRANCH   1  19
TORSDOF 3
ENDMDL
MODEL 8
REMARK VINA RESULT:      -7.3      1.639      1.762
REMARK  Name = 
REMARK  4 active torsions:
REMARK  status: ('A' for Active; 'I' for Inactive)
REMARK    1  A    between atoms: C_1  and  N_2
REMARK    2  A    between atoms: N_2  and  C_3
REMARK    3  A    between atoms: C_3  and  C_4
REMARK    4  A    between atoms: C_12  and  C_13
REMARK                            x       y       z     vdW  Elec       q    Type
REMARK                         _______ _______ _______ _____ _____    ______ ____
ROOT
ATOM      1  C   UNL     1       5.163   4.696  18.063  0.00  0.00    +0.000 C 
ATOM      2  C   UNL     1       4.994   3.691  19.216  0.00  0.00    +0.000 C 
ATOM      3  C   UNL     1       3.580   3.578  19.736  0.00  0.00    +0.000 A 
ATOM      4  C   UNL     1       3.249   2.479  20.546  0.00  0.00    +0.000 A 
ATOM      5  C   UNL     1       1.966   2.337  21.073  0.00  0.00    +0.000 A 
ATOM      6  C   UNL     1       0.990   3.283  20.783  0.00  0.00    +0.000 A 
ATOM      7  C   UNL     1       1.305   4.380  19.984  0.00  0.00    +0.000 A 
ATOM      8  C   UNL     1       2.610   4.567  19.484  0.00  0.00    +0.000 A 
ATOM      9  C   UNL     1       2.937   5.809  18.657  0.00  0.00    +0.000 C 
ATOM     10  C   UNL     1       4.452   6.004  18.449  0.00  0.00    +0.000 C 
ENDROOT
BRANCH   9  11
ATOM     11  C   UNL     1       2.316   7.078  19.242  0.00  0.00    +0.000 A 
ATOM     12  C   UNL     1       1.870   7.116  20.573  0.00  0.00    +0.000 A 
ATOM     13  C   UNL     1       1.196   8.233  21.068  0.00  0.00    +0.000 A 
ATOM     14  C   UNL     1       0.957   9.332  20.239  0.00  0.00    +0.000 A 
ATOM     15 CL   UNL     1       0.072  10.659  20.902  0.00  0.00    +0.000 Cl
ATOM     16  C   UNL     1       1.410   9.316  18.916  0.00  0.00    +0.000 A 
ATOM     17 CL   UNL     1       1.132  10.627  17.826  0.00  0.00    +0.000 Cl
ATOM     18  C   UNL     1       2.092   8.197  18.424  0.00  0.00    +0.000 A 
ENDBRANCH   9  11
BRANCH   1  19
ATOM     19  C   UNL     1       4.707   4.086  16.718  0.00  0.00    +0.000 C 
BRANCH  19  21
ATOM     20  C   UNL     1       6.828   4.533  15.662  0.00  0.00    +0.000 C 
ATOM     21  N   UNL     1       5.837   3.514  15.981  0.00  0.00    +0.000 NA
ATOM     22  H   UNL     1       6.288   2.788  16.535  0.00  0.00    +0.000 HD
ENDBRANCH  19  21
ENDBRANCH   1  19
TORSDOF 3
ENDMDL
MODEL 9
REMARK VINA RESULT:      -7.3      3.528      6.186
REMARK  Name = 
REMARK  4 active torsions:
REMARK  status: ('A' for Active; 'I' for Inactive)
REMARK    1  A    between atoms: C_1  and  N_2
REMARK    2  A    between atoms: N_2  and  C_3
REMARK    3  A    between atoms: C_3  and  C_4
REMARK    4  A    between atoms: C_12  and  C_13
REMARK                            x       y       z     vdW  Elec       q    Type
REMARK                         _______ _______ _______ _____ _____    ______ ____
ROOT
ATOM      1  C   UNL     1       2.173   4.836  20.768  0.00  0.00    +0.000 C 
ATOM      2  C   UNL     1       2.033   6.325  21.128  0.00  0.00    +0.000 C 
ATOM      3  C   UNL     1       1.943   7.245  19.932  0.00  0.00    +0.000 A 
ATOM      4  C   UNL     1       1.491   8.560  20.130  0.00  0.00    +0.000 A 
ATOM      5  C   UNL     1       1.412   9.458  19.067  0.00  0.00    +0.000 A 
ATOM      6  C   UNL     1       1.765   9.049  17.787  0.00  0.00    +0.000 A 
ATOM      7  C   UNL     1       2.217   7.749  17.576  0.00  0.00    +0.000 A 
ATOM      8  C   UNL     1       2.353   6.842  18.648  0.00  0.00    +0.000 A 
ATOM      9  C   UNL     1       2.904   5.440  18.392  0.00  0.00    +0.000 C 
ATOM     10  C   UNL     1       3.264   4.695  19.693  0.00  0.00    +0.000 C 
ENDROOT
BRANCH   9  11
ATOM     11  C   UNL     1       4.102   5.449  17.441  0.00  0.00    +0.000 A 
ATOM     12  C   UNL     1       4.188   4.534  16.379  0.00  0.00    +0.000 A 
ATOM     13  C   UNL     1       5.336   4.464  15.588  0.00  0.00    +0.000 A 
ATOM     14  C   UNL     1       6.416   5.311  15.845  0.00  0.00    +0.000 A 
ATOM     15 CL   UNL     1       7.824   5.136  14.859  0.00  0.00    +0.000 Cl
ATOM     16  C   UNL     1       6.339   6.240  16.887  0.00  0.00    +0.000 A 
ATOM     17 CL   UNL     1       7.643   7.304  17.279  0.00  0.00    +0.000 Cl
ATOM     18  C   UNL     1       5.184   6.313  17.675  0.00  0.00    +0.000 A 
ENDBRANCH   9  11
BRANCH   1  19
ATOM     19  C   UNL     1       0.807   4.221  20.387  0.00  0.00    +0.000 C 
BRANCH  19  21
ATOM     20  C   UNL     1       0.737   2.319  18.906  0.00  0.00    +0.000 C 
ATOM     21  N   UNL     1       0.888   2.762  20.286  0.00  0.00    +0.000 NA
ATOM     22  H   UNL     1       1.787   2.434  20.633  0.00  0.00    +0.000 HD
ENDBRANCH  19  21
ENDBRANCH   1  19
TORSDOF 3
ENDMDL
