MODEL 1
REMARK VINA RESULT:      -8.7      0.000      0.000
REMARK  Name = 
REMARK  3 active torsions:
REMARK  status: ('A' for Active; 'I' for Inactive)
REMARK    1  A    between atoms: C_4  and  C_5
REMARK    2  A    between atoms: C_8  and  C_9
REMARK    3  A    between atoms: N_21  and  C_22
REMARK                            x       y       z     vdW  Elec       q    Type
REMARK                         _______ _______ _______ _____ _____    ______ ____
ROOT
ATOM      1  C   UNL     1       7.851   7.018  18.327  0.00  0.00    +0.000 A 
ATOM      2  N   UNL     1       7.257   7.621  17.321  0.00  0.00    +0.000 NA
ATOM      3  C   UNL     1       7.688   8.921  17.361  0.00  0.00    +0.000 A 
ATOM      4  C   UNL     1       8.571   9.134  18.404  0.00  0.00    +0.000 A 
ATOM      5  N   UNL     1       8.664   7.899  19.004  0.00  0.00    +0.000 N 
ATOM      6  H   UNL     1       9.218   7.678  19.817  0.00  0.00    +0.000 HD
ENDROOT
BRANCH   4   7
ATOM      7  C   UNL     1       9.256  10.337  18.872  0.00  0.00    +0.000 A 
ATOM      8  C   UNL     1       9.371  10.586  20.248  0.00  0.00    +0.000 A 
ATOM      9  C   UNL     1      10.051  11.713  20.721  0.00  0.00    +0.000 A 
ATOM     10  C   UNL     1      10.617  12.608  19.820  0.00  0.00    +0.000 A 
ATOM     11  C   UNL     1      10.513  12.373  18.448  0.00  0.00    +0.000 A 
ATOM     12  C   UNL     1       9.824  11.253  17.975  0.00  0.00    +0.000 A 
ATOM     13  O   UNL     1      11.059  13.202  17.501  0.00  0.00    +0.000 OA
ATOM     14  C   UNL     1      12.038  14.076  18.076  0.00  0.00    +0.000 C 
ATOM     15  C   UNL     1      11.523  14.692  19.368  0.00  0.00    +0.000 C 
ATOM     16  O   UNL     1      11.272  13.686  20.354  0.00  0.00    +0.000 OA
ENDBRANCH   4   7
BRANCH   1  20
ATOM     17  O   UNL     1       5.517   4.204  16.238  0.00  0.00    +0.000 OA
ATOM     18  C   UNL     1       6.061   4.614  17.249  0.00  0.00    +0.000 C 
ATOM     19  C   UNL     1       7.557   4.668  17.469  0.00  0.00    +0.000 C 
ATOM     20  C   UNL     1       7.695   5.571  18.695  0.00  0.00    +0.000 C 
ATOM     21  C   UNL     1       6.404   5.317  19.458  0.00  0.00    +0.000 C 
ATOM     22  N   UNL     1       5.440   5.088  18.410  0.00  0.00    +0.000 N 
BRANCH  22  23
ATOM     23  C   UNL     1       4.060   4.895  18.713  0.00  0.00    +0.000 C 
ATOM     24  C   UNL     1       3.224   5.997  19.313  0.00  0.00    +0.000 C 
ATOM     25  C   UNL     1       2.974   5.551  17.904  0.00  0.00    +0.000 C 
ENDBRANCH  22  23
ENDBRANCH   1  20
TORSDOF 3
ENDMDL
MODEL 2
REMARK VINA RESULT:      -8.5      7.087      8.256
REMARK  Name = 
REMARK  3 active torsions:
REMARK  status: ('A' for Active; 'I' for Inactive)
REMARK    1  A    between atoms: C_4  and  C_5
REMARK    2  A    between atoms: C_8  and  C_9
REMARK    3  A    between atoms: N_21  and  C_22
REMARK                            x       y       z     vdW  Elec       q    Type
REMARK                         _______ _______ _______ _____ _____    ______ ____
ROOT
ATOM      1  C   UNL     1       3.171   6.831  18.551  0.00  0.00    +0.000 A 
ATOM      2  N   UNL     1       2.791   7.603  17.556  0.00  0.00    +0.000 NA
ATOM      3  C   UNL     1       1.959   8.539  18.110  0.00  0.00    +0.000 A 
ATOM      4  C   UNL     1       1.820   8.356  19.474  0.00  0.00    +0.000 A 
ATOM      5  N   UNL     1       2.611   7.260  19.734  0.00  0.00    +0.000 N 
ATOM      6  H   UNL     1       2.744   6.828  20.635  0.00  0.00    +0.000 HD
ENDROOT
BRANCH   4   7
ATOM      7  C   UNL     1       1.024   9.060  20.477  0.00  0.00    +0.000 A 
ATOM      8  C   UNL     1       1.134   8.708  21.831  0.00  0.00    +0.000 A 
ATOM      9  C   UNL     1       0.407   9.390  22.812  0.00  0.00    +0.000 A 
ATOM     10  C   UNL     1      -0.443  10.428  22.449  0.00  0.00    +0.000 A 
ATOM     11  C   UNL     1      -0.561  10.791  21.106  0.00  0.00    +0.000 A 
ATOM     12  C   UNL     1       0.156  10.103  20.123  0.00  0.00    +0.000 A 
ATOM     13  O   UNL     1      -1.368  11.814  20.674  0.00  0.00    +0.000 OA
ATOM     14  C   UNL     1      -1.744  12.673  21.757  0.00  0.00    +0.000 C 
ATOM     15  C   UNL     1      -2.189  11.861  22.964  0.00  0.00    +0.000 C 
ATOM     16  O   UNL     1      -1.118  11.053  23.463  0.00  0.00    +0.000 OA
ENDBRANCH   4   7
BRANCH   1  20
ATOM     17  O   UNL     1       2.110   3.011  17.135  0.00  0.00    +0.000 OA
ATOM     18  C   UNL     1       2.806   3.758  17.801  0.00  0.00    +0.000 C 
ATOM     19  C   UNL     1       3.779   4.771  17.236  0.00  0.00    +0.000 C 
ATOM     20  C   UNL     1       4.097   5.655  18.442  0.00  0.00    +0.000 C 
ATOM     21  C   UNL     1       3.944   4.703  19.619  0.00  0.00    +0.000 C 
ATOM     22  N   UNL     1       2.881   3.824  19.196  0.00  0.00    +0.000 N 
BRANCH  22  23
ATOM     23  C   UNL     1       2.367   2.824  20.072  0.00  0.00    +0.000 C 
ATOM     24  C   UNL     1       2.245   3.062  21.555  0.00  0.00    +0.000 C 
ATOM     25  C   UNL     1       1.011   2.953  20.711  0.00  0.00    +0.000 C 
ENDBRANCH  22  23
ENDBRANCH   1  20
TORSDOF 3
ENDMDL
MODEL 3
REMARK VINA RESULT:      -8.3      7.429      8.939
REMARK  Name = 
REMARK  3 active torsions:
REMARK  status: ('A' for Active; 'I' for Inactive)
REMARK    1  A    between atoms: C_4  and  C_5
REMARK    2  A    between atoms: C_8  and  C_9
REMARK    3  A    between atoms: N_21  and  C_22
REMARK                            x       y       z     vdW  Elec       q    Type
REMARK                         _______ _______ _______ _____ _____    ______ ____
ROOT
ATOM      1  C   UNL     1       2.376   7.582  19.087  0.00  0.00    +0.000 A 
ATOM      2  N   UNL     1       2.200   8.428  18.095  0.00  0.00    +0.000 NA
ATOM      3  C   UNL     1       1.379   9.408  18.586  0.00  0.00    +0.000 A 
ATOM      4  C   UNL     1       1.041   9.178  19.908  0.00  0.00    +0.000 A 
ATOM      5  N   UNL     1       1.697   8.006  20.207  0.00  0.00    +0.000 N 
ATOM      6  H   UNL     1       1.670   7.524  21.092  0.00  0.00    +0.000 HD
ENDROOT
BRANCH   4   7
ATOM      7  C   UNL     1       0.177   9.905  20.835  0.00  0.00    +0.000 A 
ATOM      8  C   UNL     1       0.050   9.467  22.162  0.00  0.00    +0.000 A 
ATOM      9  C   UNL     1      -0.746  10.165  23.076  0.00  0.00    +0.000 A 
ATOM     10  C   UNL     1      -1.428  11.306  22.671  0.00  0.00    +0.000 A 
ATOM     11  C   UNL     1      -1.310  11.755  21.354  0.00  0.00    +0.000 A 
ATOM     12  C   UNL     1      -0.525  11.052  20.437  0.00  0.00    +0.000 A 
ATOM     13  O   UNL     1      -1.941  12.880  20.886  0.00  0.00    +0.000 OA
ATOM     14  C   UNL     1      -2.390  13.712  21.962  0.00  0.00    +0.000 C 
ATOM     15  C   UNL     1      -3.085  12.885  23.033  0.00  0.00    +0.000 C 
ATOM     16  O   UNL     1      -2.183  11.941  23.621  0.00  0.00    +0.000 OA
ENDBRANCH   4   7
BRANCH   1  20
ATOM     17  O   UNL     1       1.238   3.961  17.264  0.00  0.00    +0.000 OA
ATOM     18  C   UNL     1       1.882   4.602  18.077  0.00  0.00    +0.000 C 
ATOM     19  C   UNL     1       3.009   5.552  17.736  0.00  0.00    +0.000 C 
ATOM     20  C   UNL     1       3.208   6.334  19.035  0.00  0.00    +0.000 C 
ATOM     21  C   UNL     1       2.798   5.335  20.106  0.00  0.00    +0.000 C 
ATOM     22  N   UNL     1       1.745   4.582  19.469  0.00  0.00    +0.000 N 
BRANCH  22  23
ATOM     23  C   UNL     1       1.022   3.585  20.186  0.00  0.00    +0.000 C 
ATOM     24  C   UNL     1       1.505   2.159  20.257  0.00  0.00    +0.000 C 
ATOM     25  C   UNL     1       1.530   3.019  21.484  0.00  0.00    +0.000 C 
ENDBRANCH  22  23
ENDBRANCH   1  20
TORSDOF 3
ENDMDL
MODEL 4
REMARK VINA RESULT:      -8.2      5.248      8.209
REMARK  Name = 
REMARK  3 active torsions:
REMARK  status: ('A' for Active; 'I' for Inactive)
REMARK    1  A    between atoms: C_4  and  C_5
REMARK    2  A    between atoms: C_8  and  C_9
REMARK    3  A    between atoms: N_21  and  C_22
REMARK                            x       y       z     vdW  Elec       q    Type
REMARK                         _______ _______ _______ _____ _____    ______ ____
ROOT
ATOM      1  C   UNL     1       2.928   7.017  17.931  0.00  0.00    +0.000 A 
ATOM      2  N   UNL     1       2.863   8.086  17.166  0.00  0.00    +0.000 NA
ATOM      3  C   UNL     1       2.178   9.022  17.895  0.00  0.00    +0.000 A 
ATOM      4  C   UNL     1       1.813   8.536  19.137  0.00  0.00    +0.000 A 
ATOM      5  N   UNL     1       2.311   7.252  19.139  0.00  0.00    +0.000 N 
ATOM      6  H   UNL     1       2.221   6.586  19.890  0.00  0.00    +0.000 HD
ENDROOT
BRANCH   4   7
ATOM      7  C   UNL     1       1.052   9.131  20.233  0.00  0.00    +0.000 A 
ATOM      8  C   UNL     1       0.940   8.454  21.457  0.00  0.00    +0.000 A 
ATOM      9  C   UNL     1       0.245   9.019  22.531  0.00  0.00    +0.000 A 
ATOM     10  C   UNL     1      -0.354  10.265  22.389  0.00  0.00    +0.000 A 
ATOM     11  C   UNL     1      -0.250  10.953  21.178  0.00  0.00    +0.000 A 
ATOM     12  C   UNL     1       0.435  10.384  20.101  0.00  0.00    +0.000 A 
ATOM     13  O   UNL     1      -0.801  12.192  20.969  0.00  0.00    +0.000 OA
ATOM     14  C   UNL     1      -1.134  12.829  22.208  0.00  0.00    +0.000 C 
ATOM     15  C   UNL     1      -1.854  11.864  23.138  0.00  0.00    +0.000 C 
ATOM     16  O   UNL     1      -1.014  10.758  23.483  0.00  0.00    +0.000 OA
ENDBRANCH   4   7
BRANCH   1  20
ATOM     17  O   UNL     1       6.130   5.245  20.011  0.00  0.00    +0.000 OA
ATOM     18  C   UNL     1       5.469   5.425  19.003  0.00  0.00    +0.000 C 
ATOM     19  C   UNL     1       4.052   4.936  18.796  0.00  0.00    +0.000 C 
ATOM     20  C   UNL     1       3.591   5.720  17.568  0.00  0.00    +0.000 C 
ATOM     21  C   UNL     1       4.881   5.942  16.794  0.00  0.00    +0.000 C 
ATOM     22  N   UNL     1       5.870   6.082  17.835  0.00  0.00    +0.000 N 
BRANCH  22  23
ATOM     23  C   UNL     1       7.225   6.396  17.520  0.00  0.00    +0.000 C 
ATOM     24  C   UNL     1       7.698   7.822  17.410  0.00  0.00    +0.000 C 
ATOM     25  C   UNL     1       8.164   6.966  18.548  0.00  0.00    +0.000 C 
ENDBRANCH  22  23
ENDBRANCH   1  20
TORSDOF 3
ENDMDL
MODEL 5
REMARK VINA RESULT:      -8.2      5.772      8.309
REMARK  Name = 
REMARK  3 active torsions:
REMARK  status: ('A' for Active; 'I' for Inactive)
REMARK    1  A    between atoms: C_4  and  C_5
REMARK    2  A    between atoms: C_8  and  C_9
REMARK    3  A    between atoms: N_21  and  C_22
REMARK                            x       y       z     vdW  Elec       q    Type
REMARK                         _______ _______ _______ _____ _____    ______ ____
ROOT
ATOM      1  C   UNL     1       2.780   6.522  18.653  0.00  0.00    +0.000 A 
ATOM      2  N   UNL     1       2.829   7.490  17.765  0.00  0.00    +0.000 NA
ATOM      3  C   UNL     1       2.181   8.552  18.339  0.00  0.00    +0.000 A 
ATOM      4  C   UNL     1       1.725   8.248  19.609  0.00  0.00    +0.000 A 
ATOM      5  N   UNL     1       2.127   6.944  19.790  0.00  0.00    +0.000 N 
ATOM      6  H   UNL     1       1.954   6.381  20.609  0.00  0.00    +0.000 HD
ENDROOT
BRANCH   4   7
ATOM      7  C   UNL     1       0.960   9.022  20.582  0.00  0.00    +0.000 A 
ATOM      8  C   UNL     1       1.072   8.733  21.951  0.00  0.00    +0.000 A 
ATOM      9  C   UNL     1       0.374   9.482  22.904  0.00  0.00    +0.000 A 
ATOM     10  C   UNL     1      -0.449  10.525  22.498  0.00  0.00    +0.000 A 
ATOM     11  C   UNL     1      -0.570  10.827  21.140  0.00  0.00    +0.000 A 
ATOM     12  C   UNL     1       0.118  10.072  20.186  0.00  0.00    +0.000 A 
ATOM     13  O   UNL     1      -1.350  11.851  20.665  0.00  0.00    +0.000 OA
ATOM     14  C   UNL     1      -1.692  12.771  21.708  0.00  0.00    +0.000 C 
ATOM     15  C   UNL     1      -2.148  12.032  22.957  0.00  0.00    +0.000 C 
ATOM     16  O   UNL     1      -1.096  11.218  23.486  0.00  0.00    +0.000 OA
ENDBRANCH   4   7
BRANCH   1  20
ATOM     17  O   UNL     1       6.660   5.355  19.797  0.00  0.00    +0.000 OA
ATOM     18  C   UNL     1       5.658   5.238  19.113  0.00  0.00    +0.000 C 
ATOM     19  C   UNL     1       4.311   4.772  19.621  0.00  0.00    +0.000 C 
ATOM     20  C   UNL     1       3.362   5.148  18.484  0.00  0.00    +0.000 C 
ATOM     21  C   UNL     1       4.247   5.058  17.250  0.00  0.00    +0.000 C 
ATOM     22  N   UNL     1       5.539   5.475  17.740  0.00  0.00    +0.000 N 
BRANCH  22  23
ATOM     23  C   UNL     1       6.647   5.614  16.854  0.00  0.00    +0.000 C 
ATOM     24  C   UNL     1       7.407   4.414  16.349  0.00  0.00    +0.000 C 
ATOM     25  C   UNL     1       6.559   5.212  15.407  0.00  0.00    +0.000 C 
ENDBRANCH  22  23
ENDBRANCH   1  20
TORSDOF 3
ENDMDL
MODEL 6
REMARK VINA RESULT:      -8.2      6.540      7.756
REMARK  Name = 
REMARK  3 active torsions:
REMARK  status: ('A' for Active; 'I' for Inactive)
REMARK    1  A    between atoms: C_4  and  C_5
REMARK    2  A    between atoms: C_8  and  C_9
REMARK    3  A    between atoms: N_21  and  C_22
REMARK                            x       y       z     vdW  Elec       q    Type
REMARK                         _______ _______ _______ _____ _____    ______ ____
ROOT
ATOM      1  C   UNL     1       4.132   5.704  17.915  0.00  0.00    +0.000 A 
ATOM      2  N   UNL     1       4.417   6.564  16.961  0.00  0.00    +0.000 NA
ATOM      3  C   UNL     1       3.682   7.685  17.241  0.00  0.00    +0.000 A 
ATOM      4  C   UNL     1       2.930   7.530  18.392  0.00  0.00    +0.000 A 
ATOM      5  N   UNL     1       3.240   6.255  18.808  0.00  0.00    +0.000 N 
ATOM      6  H   UNL     1       2.863   5.791  19.620  0.00  0.00    +0.000 HD
ENDROOT
BRANCH   4   7
ATOM      7  C   UNL     1       1.977   8.412  19.062  0.00  0.00    +0.000 A 
ATOM      8  C   UNL     1       1.238   9.341  18.314  0.00  0.00    +0.000 A 
ATOM      9  C   UNL     1       0.297  10.173  18.927  0.00  0.00    +0.000 A 
ATOM     10  C   UNL     1       0.089  10.089  20.299  0.00  0.00    +0.000 A 
ATOM     11  C   UNL     1       0.815   9.168  21.057  0.00  0.00    +0.000 A 
ATOM     12  C   UNL     1       1.764   8.344  20.446  0.00  0.00    +0.000 A 
ATOM     13  O   UNL     1       0.653   9.018  22.412  0.00  0.00    +0.000 OA
ATOM     14  C   UNL     1      -0.571   9.612  22.859  0.00  0.00    +0.000 C 
ATOM     15  C   UNL     1      -0.753  10.997  22.257  0.00  0.00    +0.000 C 
ATOM     16  O   UNL     1      -0.852  10.931  20.831  0.00  0.00    +0.000 OA
ENDBRANCH   4   7
BRANCH   1  20
ATOM     17  O   UNL     1       1.937   2.126  17.586  0.00  0.00    +0.000 OA
ATOM     18  C   UNL     1       2.886   2.774  17.992  0.00  0.00    +0.000 C 
ATOM     19  C   UNL     1       4.002   3.316  17.125  0.00  0.00    +0.000 C 
ATOM     20  C   UNL     1       4.698   4.320  18.043  0.00  0.00    +0.000 C 
ATOM     21  C   UNL     1       4.466   3.740  19.430  0.00  0.00    +0.000 C 
ATOM     22  N   UNL     1       3.164   3.128  19.317  0.00  0.00    +0.000 N 
BRANCH  22  23
ATOM     23  C   UNL     1       2.533   2.537  20.451  0.00  0.00    +0.000 C 
ATOM     24  C   UNL     1       2.225   3.340  21.689  0.00  0.00    +0.000 C 
ATOM     25  C   UNL     1       1.108   2.853  20.816  0.00  0.00    +0.000 C 
ENDBRANCH  22  23
ENDBRANCH   1  20
TORSDOF 3
ENDMDL
MODEL 7
REMARK VINA RESULT:      -8.1      6.245      8.012
REMARK  Name = 
REMARK  3 active torsions:
REMARK  status: ('A' for Active; 'I' for Inactive)
REMARK    1  A    between atoms: C_4  and  C_5
REMARK    2  A    between atoms: C_8  and  C_9
REMARK    3  A    between atoms: N_21  and  C_22
REMARK                            x       y       z     vdW  Elec       q    Type
REMARK                         _______ _______ _______ _____ _____    ______ ____
ROOT
ATOM      1  C   UNL     1       3.297   5.988  18.358  0.00  0.00    +0.000 A 
ATOM      2  N   UNL     1       3.723   6.806  17.421  0.00  0.00    +0.000 NA
ATOM      3  C   UNL     1       3.099   8.002  17.661  0.00  0.00    +0.000 A 
ATOM      4  C   UNL     1       2.275   7.935  18.770  0.00  0.00    +0.000 A 
ATOM      5  N   UNL     1       2.424   6.636  19.203  0.00  0.00    +0.000 N 
ATOM      6  H   UNL     1       1.957   6.221  19.994  0.00  0.00    +0.000 HD
ENDROOT
BRANCH   4   7
ATOM      7  C   UNL     1       1.389   8.918  19.388  0.00  0.00    +0.000 A 
ATOM      8  C   UNL     1       0.651   9.799  18.583  0.00  0.00    +0.000 A 
ATOM      9  C   UNL     1      -0.229  10.727  19.150  0.00  0.00    +0.000 A 
ATOM     10  C   UNL     1      -0.374  10.788  20.531  0.00  0.00    +0.000 A 
ATOM     11  C   UNL     1       0.352   9.917  21.346  0.00  0.00    +0.000 A 
ATOM     12  C   UNL     1       1.239   8.997  20.780  0.00  0.00    +0.000 A 
ATOM     13  O   UNL     1       0.248   9.908  22.714  0.00  0.00    +0.000 OA
ATOM     14  C   UNL     1      -0.930  10.595  23.151  0.00  0.00    +0.000 C 
ATOM     15  C   UNL     1      -1.088  11.920  22.422  0.00  0.00    +0.000 C 
ATOM     16  O   UNL     1      -1.257  11.716  21.016  0.00  0.00    +0.000 OA
ENDBRANCH   4   7
BRANCH   1  20
ATOM     17  O   UNL     1       7.254   4.551  18.310  0.00  0.00    +0.000 OA
ATOM     18  C   UNL     1       6.054   4.407  18.153  0.00  0.00    +0.000 C 
ATOM     19  C   UNL     1       5.028   4.399  19.265  0.00  0.00    +0.000 C 
ATOM     20  C   UNL     1       3.704   4.552  18.517  0.00  0.00    +0.000 C 
ATOM     21  C   UNL     1       3.987   3.892  17.176  0.00  0.00    +0.000 C 
ATOM     22  N   UNL     1       5.378   4.194  16.946  0.00  0.00    +0.000 N 
BRANCH  22  23
ATOM     23  C   UNL     1       6.018   3.819  15.729  0.00  0.00    +0.000 C 
ATOM     24  C   UNL     1       5.608   4.417  14.407  0.00  0.00    +0.000 C 
ATOM     25  C   UNL     1       6.942   4.756  14.999  0.00  0.00    +0.000 C 
ENDBRANCH  22  23
ENDBRANCH   1  20
TORSDOF 3
ENDMDL
MODEL 8
REMARK VINA RESULT:      -8.1      5.332      7.628
REMARK  Name = 
REMARK  3 active torsions:
REMARK  status: ('A' for Active; 'I' for Inactive)
REMARK    1  A    between atoms: C_4  and  C_5
REMARK    2  A    between atoms: C_8  and  C_9
REMARK    3  A    between atoms: N_21  and  C_22
REMARK                            x       y       z     vdW  Elec       q    Type
REMARK                         _______ _______ _______ _____ _____    ______ ____
ROOT
ATOM      1  C   UNL     1       4.375   4.997  18.987  0.00  0.00    +0.000 A 
ATOM      2  N   UNL     1       3.449   4.361  19.671  0.00  0.00    +0.000 NA
ATOM      3  C   UNL     1       2.463   5.282  19.906  0.00  0.00    +0.000 A 
ATOM      4  C   UNL     1       2.772   6.513  19.355  0.00  0.00    +0.000 A 
ATOM      5  N   UNL     1       3.998   6.303  18.766  0.00  0.00    +0.000 N 
ATOM      6  H   UNL     1       4.542   6.994  18.273  0.00  0.00    +0.000 HD
ENDROOT
BRANCH   4   7
ATOM      7  C   UNL     1       2.069   7.794  19.373  0.00  0.00    +0.000 A 
ATOM      8  C   UNL     1       1.912   8.523  18.184  0.00  0.00    +0.000 A 
ATOM      9  C   UNL     1       1.215   9.735  18.169  0.00  0.00    +0.000 A 
ATOM     10  C   UNL     1       0.671  10.235  19.347  0.00  0.00    +0.000 A 
ATOM     11  C   UNL     1       0.817   9.520  20.538  0.00  0.00    +0.000 A 
ATOM     12  C   UNL     1       1.523   8.314  20.555  0.00  0.00    +0.000 A 
ATOM     13  O   UNL     1       0.295   9.943  21.735  0.00  0.00    +0.000 OA
ATOM     14  C   UNL     1      -0.703  10.951  21.540  0.00  0.00    +0.000 C 
ATOM     15  C   UNL     1      -0.228  12.000  20.547  0.00  0.00    +0.000 C 
ATOM     16  O   UNL     1      -0.003  11.423  19.257  0.00  0.00    +0.000 OA
ENDBRANCH   4   7
BRANCH   1  20
ATOM     17  O   UNL     1       7.324   7.043  16.786  0.00  0.00    +0.000 OA
ATOM     18  C   UNL     1       6.745   6.025  17.124  0.00  0.00    +0.000 C 
ATOM     19  C   UNL     1       6.813   5.406  18.503  0.00  0.00    +0.000 C 
ATOM     20  C   UNL     1       5.660   4.402  18.490  0.00  0.00    +0.000 C 
ATOM     21  C   UNL     1       5.569   4.000  17.025  0.00  0.00    +0.000 C 
ATOM     22  N   UNL     1       5.933   5.209  16.328  0.00  0.00    +0.000 N 
BRANCH  22  23
ATOM     23  C   UNL     1       5.885   5.277  14.905  0.00  0.00    +0.000 C 
ATOM     24  C   UNL     1       7.042   4.818  14.055  0.00  0.00    +0.000 C 
ATOM     25  C   UNL     1       5.761   4.040  14.058  0.00  0.00    +0.000 C 
ENDBRANCH  22  23
ENDBRANCH   1  20
TORSDOF 3
ENDMDL
MODEL 9
REMARK VINA RESULT:      -8.1      7.052      8.584
REMARK  Name = 
REMARK  3 active torsions:
REMARK  status: ('A' for Active; 'I' for Inactive)
REMARK    1  A    between atoms: C_4  and  C_5
REMARK    2  A    between atoms: C_8  and  C_9
REMARK    3  A    between atoms: N_21  and  C_22
REMARK                            x       y       z     vdW  Elec       q    Type
REMARK                         _______ _______ _______ _____ _____    ______ ____
ROOT
ATOM      1  C   UNL     1       2.841   7.341  18.568  0.00  0.00    +0.000 A 
ATOM      2  N   UNL     1       2.909   8.039  17.456  0.00  0.00    +0.000 NA
ATOM      3  C   UNL     1       2.076   9.111  17.639  0.00  0.00    +0.000 A 
ATOM      4  C   UNL     1       1.482   9.089  18.888  0.00  0.00    +0.000 A 
ATOM      5  N   UNL     1       1.993   7.949  19.467  0.00  0.00    +0.000 N 
ATOM      6  H   UNL     1       1.769   7.603  20.386  0.00  0.00    +0.000 HD
ENDROOT
BRANCH   4   7
ATOM      7  C   UNL     1       0.508   9.975  19.522  0.00  0.00    +0.000 A 
ATOM      8  C   UNL     1      -0.469  10.612  18.742  0.00  0.00    +0.000 A 
ATOM      9  C   UNL     1      -1.433  11.438  19.329  0.00  0.00    +0.000 A 
ATOM     10  C   UNL     1      -1.424  11.642  20.704  0.00  0.00    +0.000 A 
ATOM     11  C   UNL     1      -0.459  11.014  21.494  0.00  0.00    +0.000 A 
ATOM     12  C   UNL     1       0.511  10.197  20.906  0.00  0.00    +0.000 A 
ATOM     13  O   UNL     1      -0.397  11.155  22.858  0.00  0.00    +0.000 OA
ATOM     14  C   UNL     1      -1.623  11.679  23.382  0.00  0.00    +0.000 C 
ATOM     15  C   UNL     1      -2.108  12.858  22.553  0.00  0.00    +0.000 C 
ATOM     16  O   UNL     1      -2.400  12.458  21.211  0.00  0.00    +0.000 OA
ENDBRANCH   4   7
BRANCH   1  20
ATOM     17  O   UNL     1       1.826   3.537  17.076  0.00  0.00    +0.000 OA
ATOM     18  C   UNL     1       2.349   4.266  17.902  0.00  0.00    +0.000 C 
ATOM     19  C   UNL     1       3.579   5.112  17.656  0.00  0.00    +0.000 C 
ATOM     20  C   UNL     1       3.585   6.068  18.849  0.00  0.00    +0.000 C 
ATOM     21  C   UNL     1       2.920   5.254  19.948  0.00  0.00    +0.000 C 
ATOM     22  N   UNL     1       1.956   4.457  19.231  0.00  0.00    +0.000 N 
BRANCH  22  23
ATOM     23  C   UNL     1       1.049   3.604  19.926  0.00  0.00    +0.000 C 
ATOM     24  C   UNL     1       1.375   2.156  20.191  0.00  0.00    +0.000 C 
ATOM     25  C   UNL     1       1.324   3.132  21.328  0.00  0.00    +0.000 C 
ENDBRANCH  22  23
ENDBRANCH   1  20
TORSDOF 3
ENDMDL
