MODEL 1
REMARK VINA RESULT:      -7.6      0.000      0.000
REMARK  Name = 
REMARK  5 active torsions:
REMARK  status: ('A' for Active; 'I' for Inactive)
REMARK    1  A    between atoms: C_1  and  C_2
REMARK    2  A    between atoms: C_4  and  C_5
REMARK    3  A    between atoms: C_5  and  N_6
REMARK    4  A    between atoms: N_9  and  C_10
REMARK    5  A    between atoms: C_10  and  C_11
REMARK                            x       y       z     vdW  Elec       q    Type
REMARK                         _______ _______ _______ _____ _____    ______ ____
ROOT
ATOM      1  N   UNL     1       6.031   5.953  17.567  0.00  0.00    +0.000 N 
ATOM      2  C   UNL     1       6.195   4.841  18.411  0.00  0.00    +0.000 A 
ATOM      3  O   UNL     1       7.141   4.071  18.424  0.00  0.00    +0.000 OA
ATOM      4  N   UNL     1       5.041   4.786  19.227  0.00  0.00    +0.000 N 
ATOM      5  C   UNL     1       4.180   5.836  18.857  0.00  0.00    +0.000 A 
ATOM      6  C   UNL     1       2.947   6.210  19.342  0.00  0.00    +0.000 A 
ATOM      7  C   UNL     1       2.355   7.292  18.705  0.00  0.00    +0.000 A 
ATOM      8  N   UNL     1       2.904   7.976  17.658  0.00  0.00    +0.000 NA
ATOM      9  C   UNL     1       4.124   7.579  17.223  0.00  0.00    +0.000 A 
ATOM     10  C   UNL     1       4.784   6.534  17.815  0.00  0.00    +0.000 A 
ENDROOT
BRANCH   1  11
ATOM     11  C   UNL     1       6.960   6.350  16.546  0.00  0.00    +0.000 C 
BRANCH  11  15
ATOM     12  C   UNL     1       5.529   3.291  12.728  0.00  0.00    +0.000 C 
ATOM     13  C   UNL     1       6.190   4.256  13.633  0.00  0.00    +0.000 A 
ATOM     14  C   UNL     1       5.709   4.780  14.851  0.00  0.00    +0.000 A 
ATOM     15  C   UNL     1       6.735   5.569  15.311  0.00  0.00    +0.000 A 
ATOM     16  O   UNL     1       7.751   5.552  14.406  0.00  0.00    +0.000 OA
ATOM     17  N   UNL     1       7.411   4.726  13.348  0.00  0.00    +0.000 NA
ENDBRANCH  11  15
ENDBRANCH   1  11
BRANCH   4  18
ATOM     18  C   UNL     1       4.715   3.648  20.054  0.00  0.00    +0.000 C 
BRANCH  18  19
ATOM     19  C   UNL     1       3.368   3.064  19.682  0.00  0.00    +0.000 A 
ATOM     20  C   UNL     1       3.133   2.571  18.388  0.00  0.00    +0.000 A 
ATOM     21  C   UNL     1       1.850   2.176  18.001  0.00  0.00    +0.000 A 
ATOM     22  C   UNL     1       0.790   2.266  18.902  0.00  0.00    +0.000 A 
ATOM     23  C   UNL     1       1.019   2.714  20.200  0.00  0.00    +0.000 A 
ATOM     24  C   UNL     1       2.302   3.100  20.591  0.00  0.00    +0.000 A 
ENDBRANCH  18  19
ENDBRANCH   4  18
TORSDOF 4
ENDMDL
MODEL 2
REMARK VINA RESULT:      -7.6      1.830      4.093
REMARK  Name = 
REMARK  5 active torsions:
REMARK  status: ('A' for Active; 'I' for Inactive)
REMARK    1  A    between atoms: C_1  and  C_2
REMARK    2  A    between atoms: C_4  and  C_5
REMARK    3  A    between atoms: C_5  and  N_6
REMARK    4  A    between atoms: N_9  and  C_10
REMARK    5  A    between atoms: C_10  and  C_11
REMARK                            x       y       z     vdW  Elec       q    Type
REMARK                         _______ _______ _______ _____ _____    ______ ____
ROOT
ATOM      1  N   UNL     1       5.001   4.311  18.367  0.00  0.00    +0.000 N 
ATOM      2  C   UNL     1       4.702   5.499  19.056  0.00  0.00    +0.000 A 
ATOM      3  O   UNL     1       5.483   6.391  19.341  0.00  0.00    +0.000 OA
ATOM      4  N   UNL     1       3.323   5.444  19.363  0.00  0.00    +0.000 N 
ATOM      5  C   UNL     1       2.806   4.225  18.891  0.00  0.00    +0.000 A 
ATOM      6  C   UNL     1       1.534   3.699  18.942  0.00  0.00    +0.000 A 
ATOM      7  C   UNL     1       1.388   2.429  18.400  0.00  0.00    +0.000 A 
ATOM      8  N   UNL     1       2.400   1.696  17.848  0.00  0.00    +0.000 NA
ATOM      9  C   UNL     1       3.631   2.259  17.810  0.00  0.00    +0.000 A 
ATOM     10  C   UNL     1       3.852   3.519  18.303  0.00  0.00    +0.000 A 
ENDROOT
BRANCH   1  11
ATOM     11  C   UNL     1       6.310   3.941  17.904  0.00  0.00    +0.000 C 
BRANCH  11  15
ATOM     12  C   UNL     1       6.410   4.134  12.811  0.00  0.00    +0.000 C 
ATOM     13  C   UNL     1       6.546   4.360  14.266  0.00  0.00    +0.000 A 
ATOM     14  C   UNL     1       5.925   3.658  15.320  0.00  0.00    +0.000 A 
ATOM     15  C   UNL     1       6.445   4.224  16.458  0.00  0.00    +0.000 A 
ATOM     16  O   UNL     1       7.293   5.229  16.110  0.00  0.00    +0.000 OA
ATOM     17  N   UNL     1       7.359   5.317  14.730  0.00  0.00    +0.000 NA
ENDBRANCH  11  15
ENDBRANCH   1  11
BRANCH   4  18
ATOM     18  C   UNL     1       2.684   6.360  20.279  0.00  0.00    +0.000 C 
BRANCH  18  19
ATOM     19  C   UNL     1       2.096   7.551  19.550  0.00  0.00    +0.000 A 
ATOM     20  C   UNL     1       2.394   7.781  18.198  0.00  0.00    +0.000 A 
ATOM     21  C   UNL     1       1.979   8.958  17.570  0.00  0.00    +0.000 A 
ATOM     22  C   UNL     1       1.261   9.915  18.285  0.00  0.00    +0.000 A 
ATOM     23  C   UNL     1       0.923   9.678  19.615  0.00  0.00    +0.000 A 
ATOM     24  C   UNL     1       1.330   8.499  20.240  0.00  0.00    +0.000 A 
ENDBRANCH  18  19
ENDBRANCH   4  18
TORSDOF 4
ENDMDL
MODEL 3
REMARK VINA RESULT:      -7.5      1.753      2.680
REMARK  Name = 
REMARK  5 active torsions:
REMARK  status: ('A' for Active; 'I' for Inactive)
REMARK    1  A    between atoms: C_1  and  C_2
REMARK    2  A    between atoms: C_4  and  C_5
REMARK    3  A    between atoms: C_5  and  N_6
REMARK    4  A    between atoms: N_9  and  C_10
REMARK    5  A    between atoms: C_10  and  C_11
REMARK                            x       y       z     vdW  Elec       q    Type
REMARK                         _______ _______ _______ _____ _____    ______ ____
ROOT
ATOM      1  N   UNL     1       5.493   5.343  16.521  0.00  0.00    +0.000 N 
ATOM      2  C   UNL     1       4.804   4.271  17.115  0.00  0.00    +0.000 A 
ATOM      3  O   UNL     1       3.877   3.643  16.631  0.00  0.00    +0.000 OA
ATOM      4  N   UNL     1       5.391   4.076  18.387  0.00  0.00    +0.000 N 
ATOM      5  C   UNL     1       6.400   5.040  18.568  0.00  0.00    +0.000 A 
ATOM      6  C   UNL     1       7.254   5.271  19.622  0.00  0.00    +0.000 A 
ATOM      7  C   UNL     1       8.114   6.351  19.472  0.00  0.00    +0.000 A 
ATOM      8  N   UNL     1       8.152   7.171  18.381  0.00  0.00    +0.000 NA
ATOM      9  C   UNL     1       7.302   6.898  17.363  0.00  0.00    +0.000 A 
ATOM     10  C   UNL     1       6.438   5.835  17.425  0.00  0.00    +0.000 A 
ENDROOT
BRANCH   1  11
ATOM     11  C   UNL     1       5.186   5.898  15.232  0.00  0.00    +0.000 C 
BRANCH  11  15
ATOM     12  C   UNL     1       6.607   2.513  11.695  0.00  0.00    +0.000 C 
ATOM     13  C   UNL     1       6.474   3.645  12.637  0.00  0.00    +0.000 A 
ATOM     14  C   UNL     1       5.357   3.998  13.424  0.00  0.00    +0.000 A 
ATOM     15  C   UNL     1       5.788   5.076  14.160  0.00  0.00    +0.000 A 
ATOM     16  O   UNL     1       7.067   5.375  13.806  0.00  0.00    +0.000 OA
ATOM     17  N   UNL     1       7.502   4.476  12.848  0.00  0.00    +0.000 NA
ENDBRANCH  11  15
ENDBRANCH   1  11
BRANCH   4  18
ATOM     18  C   UNL     1       4.807   3.233  19.404  0.00  0.00    +0.000 C 
BRANCH  18  19
ATOM     19  C   UNL     1       3.372   3.627  19.689  0.00  0.00    +0.000 A 
ATOM     20  C   UNL     1       3.058   4.924  20.123  0.00  0.00    +0.000 A 
ATOM     21  C   UNL     1       1.760   5.241  20.533  0.00  0.00    +0.000 A 
ATOM     22  C   UNL     1       0.764   4.267  20.512  0.00  0.00    +0.000 A 
ATOM     23  C   UNL     1       1.054   2.988  20.044  0.00  0.00    +0.000 A 
ATOM     24  C   UNL     1       2.348   2.673  19.626  0.00  0.00    +0.000 A 
ENDBRANCH  18  19
ENDBRANCH   4  18
TORSDOF 4
ENDMDL
MODEL 4
REMARK VINA RESULT:      -7.3      0.255      1.012
REMARK  Name = 
REMARK  5 active torsions:
REMARK  status: ('A' for Active; 'I' for Inactive)
REMARK    1  A    between atoms: C_1  and  C_2
REMARK    2  A    between atoms: C_4  and  C_5
REMARK    3  A    between atoms: C_5  and  N_6
REMARK    4  A    between atoms: N_9  and  C_10
REMARK    5  A    between atoms: C_10  and  C_11
REMARK                            x       y       z     vdW  Elec       q    Type
REMARK                         _______ _______ _______ _____ _____    ______ ____
ROOT
ATOM      1  N   UNL     1       6.079   5.922  17.498  0.00  0.00    +0.000 N 
ATOM      2  C   UNL     1       6.196   4.805  18.343  0.00  0.00    +0.000 A 
ATOM      3  O   UNL     1       7.120   4.008  18.372  0.00  0.00    +0.000 OA
ATOM      4  N   UNL     1       5.027   4.783  19.139  0.00  0.00    +0.000 N 
ATOM      5  C   UNL     1       4.204   5.857  18.755  0.00  0.00    +0.000 A 
ATOM      6  C   UNL     1       2.973   6.266  19.218  0.00  0.00    +0.000 A 
ATOM      7  C   UNL     1       2.424   7.366  18.572  0.00  0.00    +0.000 A 
ATOM      8  N   UNL     1       3.011   8.034  17.536  0.00  0.00    +0.000 NA
ATOM      9  C   UNL     1       4.226   7.603  17.122  0.00  0.00    +0.000 A 
ATOM     10  C   UNL     1       4.845   6.538  17.724  0.00  0.00    +0.000 A 
ENDROOT
BRANCH   1  11
ATOM     11  C   UNL     1       7.038   6.293  16.495  0.00  0.00    +0.000 C 
BRANCH  11  15
ATOM     12  C   UNL     1       5.589   3.279  12.647  0.00  0.00    +0.000 C 
ATOM     13  C   UNL     1       6.246   4.244  13.555  0.00  0.00    +0.000 A 
ATOM     14  C   UNL     1       5.785   4.724  14.799  0.00  0.00    +0.000 A 
ATOM     15  C   UNL     1       6.801   5.534  15.248  0.00  0.00    +0.000 A 
ATOM     16  O   UNL     1       7.789   5.569  14.314  0.00  0.00    +0.000 OA
ATOM     17  N   UNL     1       7.443   4.757  13.247  0.00  0.00    +0.000 NA
ENDBRANCH  11  15
ENDBRANCH   1  11
BRANCH   4  18
ATOM     18  C   UNL     1       4.653   3.654  19.958  0.00  0.00    +0.000 C 
BRANCH  18  19
ATOM     19  C   UNL     1       3.199   3.283  19.755  0.00  0.00    +0.000 A 
ATOM     20  C   UNL     1       2.280   3.382  20.811  0.00  0.00    +0.000 A 
ATOM     21  C   UNL     1       0.978   2.895  20.668  0.00  0.00    +0.000 A 
ATOM     22  C   UNL     1       0.581   2.307  19.469  0.00  0.00    +0.000 A 
ATOM     23  C   UNL     1       1.471   2.241  18.400  0.00  0.00    +0.000 A 
ATOM     24  C   UNL     1       2.769   2.735  18.539  0.00  0.00    +0.000 A 
ENDBRANCH  18  19
ENDBRANCH   4  18
TORSDOF 4
ENDMDL
MODEL 5
REMARK VINA RESULT:      -7.1      4.766      7.627
REMARK  Name = 
REMARK  5 active torsions:
REMARK  status: ('A' for Active; 'I' for Inactive)
REMARK    1  A    between atoms: C_1  and  C_2
REMARK    2  A    between atoms: C_4  and  C_5
REMARK    3  A    between atoms: C_5  and  N_6
REMARK    4  A    between atoms: N_9  and  C_10
REMARK    5  A    between atoms: C_10  and  C_11
REMARK                            x       y       z     vdW  Elec       q    Type
REMARK                         _______ _______ _______ _____ _____    ______ ____
ROOT
ATOM      1  N   UNL     1       1.798   8.516  19.634  0.00  0.00    +0.000 N 
ATOM      2  C   UNL     1       1.337   9.240  18.521  0.00  0.00    +0.000 A 
ATOM      3  O   UNL     1       1.702   9.108  17.364  0.00  0.00    +0.000 OA
ATOM      4  N   UNL     1       0.380  10.159  19.012  0.00  0.00    +0.000 N 
ATOM      5  C   UNL     1       0.289  10.008  20.407  0.00  0.00    +0.000 A 
ATOM      6  C   UNL     1      -0.487  10.659  21.340  0.00  0.00    +0.000 A 
ATOM      7  C   UNL     1      -0.287  10.274  22.659  0.00  0.00    +0.000 A 
ATOM      8  N   UNL     1       0.608   9.329  23.068  0.00  0.00    +0.000 NA
ATOM      9  C   UNL     1       1.342   8.708  22.114  0.00  0.00    +0.000 A 
ATOM     10  C   UNL     1       1.186   9.014  20.787  0.00  0.00    +0.000 A 
ENDROOT
BRANCH   1  11
ATOM     11  C   UNL     1       2.815   7.502  19.586  0.00  0.00    +0.000 C 
BRANCH  11  15
ATOM     12  C   UNL     1       0.841   2.811  19.876  0.00  0.00    +0.000 C 
ATOM     13  C   UNL     1       1.365   4.133  19.470  0.00  0.00    +0.000 A 
ATOM     14  C   UNL     1       1.710   5.225  20.293  0.00  0.00    +0.000 A 
ATOM     15  C   UNL     1       2.204   6.165  19.421  0.00  0.00    +0.000 A 
ATOM     16  O   UNL     1       2.122   5.683  18.152  0.00  0.00    +0.000 OA
ATOM     17  N   UNL     1       1.595   4.403  18.179  0.00  0.00    +0.000 NA
ENDBRANCH  11  15
ENDBRANCH   1  11
BRANCH   4  18
ATOM     18  C   UNL     1      -0.143  11.248  18.221  0.00  0.00    +0.000 C 
BRANCH  18  19
ATOM     19  C   UNL     1      -1.620  11.065  17.938  0.00  0.00    +0.000 A 
ATOM     20  C   UNL     1      -2.577  11.878  18.567  0.00  0.00    +0.000 A 
ATOM     21  C   UNL     1      -3.941  11.609  18.425  0.00  0.00    +0.000 A 
ATOM     22  C   UNL     1      -4.362  10.528  17.653  0.00  0.00    +0.000 A 
ATOM     23  C   UNL     1      -3.424   9.740  16.991  0.00  0.00    +0.000 A 
ATOM     24  C   UNL     1      -2.062  10.013  17.124  0.00  0.00    +0.000 A 
ENDBRANCH  18  19
ENDBRANCH   4  18
TORSDOF 4
ENDMDL
MODEL 6
REMARK VINA RESULT:      -7.1      4.844      7.668
REMARK  Name = 
REMARK  5 active torsions:
REMARK  status: ('A' for Active; 'I' for Inactive)
REMARK    1  A    between atoms: C_1  and  C_2
REMARK    2  A    between atoms: C_4  and  C_5
REMARK    3  A    between atoms: C_5  and  N_6
REMARK    4  A    between atoms: N_9  and  C_10
REMARK    5  A    between atoms: C_10  and  C_11
REMARK                            x       y       z     vdW  Elec       q    Type
REMARK                         _______ _______ _______ _____ _____    ______ ____
ROOT
ATOM      1  N   UNL     1       1.784   8.460  19.759  0.00  0.00    +0.000 N 
ATOM      2  C   UNL     1       1.318   9.112  18.604  0.00  0.00    +0.000 A 
ATOM      3  O   UNL     1       1.683   8.911  17.457  0.00  0.00    +0.000 OA
ATOM      4  N   UNL     1       0.354  10.052  19.038  0.00  0.00    +0.000 N 
ATOM      5  C   UNL     1       0.265   9.987  20.441  0.00  0.00    +0.000 A 
ATOM      6  C   UNL     1      -0.515  10.688  21.332  0.00  0.00    +0.000 A 
ATOM      7  C   UNL     1      -0.312  10.387  22.673  0.00  0.00    +0.000 A 
ATOM      8  N   UNL     1       0.590   9.474  23.138  0.00  0.00    +0.000 NA
ATOM      9  C   UNL     1       1.327   8.801  22.223  0.00  0.00    +0.000 A 
ATOM     10  C   UNL     1       1.169   9.024  20.880  0.00  0.00    +0.000 A 
ENDROOT
BRANCH   1  11
ATOM     11  C   UNL     1       2.808   7.453  19.772  0.00  0.00    +0.000 C 
BRANCH  11  15
ATOM     12  C   UNL     1       0.838   2.891  18.630  0.00  0.00    +0.000 C 
ATOM     13  C   UNL     1       1.319   4.136  19.266  0.00  0.00    +0.000 A 
ATOM     14  C   UNL     1       2.111   5.157  18.699  0.00  0.00    +0.000 A 
ATOM     15  C   UNL     1       2.206   6.104  19.690  0.00  0.00    +0.000 A 
ATOM     16  O   UNL     1       1.547   5.661  20.795  0.00  0.00    +0.000 OA
ATOM     17  N   UNL     1       0.987   4.423  20.532  0.00  0.00    +0.000 NA
ENDBRANCH  11  15
ENDBRANCH   1  11
BRANCH   4  18
ATOM     18  C   UNL     1      -0.177  11.087  18.183  0.00  0.00    +0.000 C 
BRANCH  18  19
ATOM     19  C   UNL     1      -1.641  10.851  17.875  0.00  0.00    +0.000 A 
ATOM     20  C   UNL     1      -2.027   9.930  16.888  0.00  0.00    +0.000 A 
ATOM     21  C   UNL     1      -3.364   9.825  16.498  0.00  0.00    +0.000 A 
ATOM     22  C   UNL     1      -4.330  10.637  17.091  0.00  0.00    +0.000 A 
ATOM     23  C   UNL     1      -3.966  11.525  18.100  0.00  0.00    +0.000 A 
ATOM     24  C   UNL     1      -2.632  11.624  18.497  0.00  0.00    +0.000 A 
ENDBRANCH  18  19
ENDBRANCH   4  18
TORSDOF 4
ENDMDL
MODEL 7
REMARK VINA RESULT:      -7.0      2.642      6.042
REMARK  Name = 
REMARK  5 active torsions:
REMARK  status: ('A' for Active; 'I' for Inactive)
REMARK    1  A    between atoms: C_1  and  C_2
REMARK    2  A    between atoms: C_4  and  C_5
REMARK    3  A    between atoms: C_5  and  N_6
REMARK    4  A    between atoms: N_9  and  C_10
REMARK    5  A    between atoms: C_10  and  C_11
REMARK                            x       y       z     vdW  Elec       q    Type
REMARK                         _______ _______ _______ _____ _____    ______ ____
ROOT
ATOM      1  N   UNL     1       4.049   4.336  17.838  0.00  0.00    +0.000 N 
ATOM      2  C   UNL     1       3.038   5.305  17.716  0.00  0.00    +0.000 A 
ATOM      3  O   UNL     1       1.834   5.109  17.747  0.00  0.00    +0.000 OA
ATOM      4  N   UNL     1       3.695   6.545  17.537  0.00  0.00    +0.000 N 
ATOM      5  C   UNL     1       5.083   6.319  17.521  0.00  0.00    +0.000 A 
ATOM      6  C   UNL     1       6.141   7.188  17.377  0.00  0.00    +0.000 A 
ATOM      7  C   UNL     1       7.401   6.603  17.371  0.00  0.00    +0.000 A 
ATOM      8  N   UNL     1       7.639   5.264  17.488  0.00  0.00    +0.000 NA
ATOM      9  C   UNL     1       6.568   4.449  17.640  0.00  0.00    +0.000 A 
ATOM     10  C   UNL     1       5.293   4.951  17.679  0.00  0.00    +0.000 A 
ENDROOT
BRANCH   1  11
ATOM     11  C   UNL     1       3.816   2.927  17.995  0.00  0.00    +0.000 C 
BRANCH  11  15
ATOM     12  C   UNL     1       1.149   2.263  22.288  0.00  0.00    +0.000 C 
ATOM     13  C   UNL     1       2.174   2.354  21.226  0.00  0.00    +0.000 A 
ATOM     14  C   UNL     1       1.984   2.582  19.847  0.00  0.00    +0.000 A 
ATOM     15  C   UNL     1       3.258   2.641  19.334  0.00  0.00    +0.000 A 
ATOM     16  O   UNL     1       4.152   2.421  20.335  0.00  0.00    +0.000 OA
ATOM     17  N   UNL     1       3.474   2.240  21.527  0.00  0.00    +0.000 NA
ENDBRANCH  11  15
ENDBRANCH   1  11
BRANCH   4  18
ATOM     18  C   UNL     1       3.008   7.748  17.129  0.00  0.00    +0.000 C 
BRANCH  18  19
ATOM     19  C   UNL     1       2.258   8.374  18.286  0.00  0.00    +0.000 A 
ATOM     20  C   UNL     1       2.254   7.767  19.551  0.00  0.00    +0.000 A 
ATOM     21  C   UNL     1       1.440   8.260  20.574  0.00  0.00    +0.000 A 
ATOM     22  C   UNL     1       0.623   9.366  20.343  0.00  0.00    +0.000 A 
ATOM     23  C   UNL     1       0.649  10.002  19.104  0.00  0.00    +0.000 A 
ATOM     24  C   UNL     1       1.469   9.516  18.086  0.00  0.00    +0.000 A 
ENDBRANCH  18  19
ENDBRANCH   4  18
TORSDOF 4
ENDMDL
MODEL 8
REMARK VINA RESULT:      -7.0      2.401      6.397
REMARK  Name = 
REMARK  5 active torsions:
REMARK  status: ('A' for Active; 'I' for Inactive)
REMARK    1  A    between atoms: C_1  and  C_2
REMARK    2  A    between atoms: C_4  and  C_5
REMARK    3  A    between atoms: C_5  and  N_6
REMARK    4  A    between atoms: N_9  and  C_10
REMARK    5  A    between atoms: C_10  and  C_11
REMARK                            x       y       z     vdW  Elec       q    Type
REMARK                         _______ _______ _______ _____ _____    ______ ____
ROOT
ATOM      1  N   UNL     1       3.547   6.435  17.589  0.00  0.00    +0.000 N 
ATOM      2  C   UNL     1       4.925   6.307  17.344  0.00  0.00    +0.000 A 
ATOM      3  O   UNL     1       5.723   7.215  17.180  0.00  0.00    +0.000 OA
ATOM      4  N   UNL     1       5.197   4.919  17.312  0.00  0.00    +0.000 N 
ATOM      5  C   UNL     1       3.991   4.221  17.505  0.00  0.00    +0.000 A 
ATOM      6  C   UNL     1       3.724   2.872  17.557  0.00  0.00    +0.000 A 
ATOM      7  C   UNL     1       2.388   2.532  17.729  0.00  0.00    +0.000 A 
ATOM      8  N   UNL     1       1.363   3.427  17.836  0.00  0.00    +0.000 NA
ATOM      9  C   UNL     1       1.676   4.744  17.791  0.00  0.00    +0.000 A 
ATOM     10  C   UNL     1       2.974   5.161  17.647  0.00  0.00    +0.000 A 
ENDROOT
BRANCH   1  11
ATOM     11  C   UNL     1       2.841   7.684  17.659  0.00  0.00    +0.000 C 
BRANCH  11  15
ATOM     12  C   UNL     1       0.460   9.039  21.958  0.00  0.00    +0.000 C 
ATOM     13  C   UNL     1       1.210   8.369  20.875  0.00  0.00    +0.000 A 
ATOM     14  C   UNL     1       1.357   8.777  19.532  0.00  0.00    +0.000 A 
ATOM     15  C   UNL     1       2.200   7.842  18.983  0.00  0.00    +0.000 A 
ATOM     16  O   UNL     1       2.507   6.910  19.925  0.00  0.00    +0.000 OA
ATOM     17  N   UNL     1       1.886   7.239  21.117  0.00  0.00    +0.000 NA
ENDBRANCH  11  15
ENDBRANCH   1  11
BRANCH   4  18
ATOM     18  C   UNL     1       6.449   4.373  16.842  0.00  0.00    +0.000 C 
BRANCH  18  19
ATOM     19  C   UNL     1       6.548   4.441  15.332  0.00  0.00    +0.000 A 
ATOM     20  C   UNL     1       5.749   3.618  14.523  0.00  0.00    +0.000 A 
ATOM     21  C   UNL     1       5.950   3.570  13.141  0.00  0.00    +0.000 A 
ATOM     22  C   UNL     1       6.949   4.344  12.554  0.00  0.00    +0.000 A 
ATOM     23  C   UNL     1       7.720   5.195  13.341  0.00  0.00    +0.000 A 
ATOM     24  C   UNL     1       7.515   5.251  14.720  0.00  0.00    +0.000 A 
ENDBRANCH  18  19
ENDBRANCH   4  18
TORSDOF 4
ENDMDL
MODEL 9
REMARK VINA RESULT:      -6.9      9.388     12.429
REMARK  Name = 
REMARK  5 active torsions:
REMARK  status: ('A' for Active; 'I' for Inactive)
REMARK    1  A    between atoms: C_1  and  C_2
REMARK    2  A    between atoms: C_4  and  C_5
REMARK    3  A    between atoms: C_5  and  N_6
REMARK    4  A    between atoms: N_9  and  C_10
REMARK    5  A    between atoms: C_10  and  C_11
REMARK                            x       y       z     vdW  Elec       q    Type
REMARK                         _______ _______ _______ _____ _____    ______ ____
ROOT
ATOM      1  N   UNL     1      -4.883  12.268  19.039  0.00  0.00    +0.000 N 
ATOM      2  C   UNL     1      -3.909  12.561  20.010  0.00  0.00    +0.000 A 
ATOM      3  O   UNL     1      -4.093  13.108  21.084  0.00  0.00    +0.000 OA
ATOM      4  N   UNL     1      -2.676  12.108  19.485  0.00  0.00    +0.000 N 
ATOM      5  C   UNL     1      -2.902  11.576  18.203  0.00  0.00    +0.000 A 
ATOM      6  C   UNL     1      -2.039  11.015  17.290  0.00  0.00    +0.000 A 
ATOM      7  C   UNL     1      -2.610  10.624  16.085  0.00  0.00    +0.000 A 
ATOM      8  N   UNL     1      -3.930  10.767  15.767  0.00  0.00    +0.000 NA
ATOM      9  C   UNL     1      -4.744  11.314  16.701  0.00  0.00    +0.000 A 
ATOM     10  C   UNL     1      -4.260  11.704  17.923  0.00  0.00    +0.000 A 
ENDROOT
BRANCH   1  11
ATOM     11  C   UNL     1      -6.276  12.601  19.153  0.00  0.00    +0.000 C 
BRANCH  11  15
ATOM     12  C   UNL     1      -7.287  16.517  16.050  0.00  0.00    +0.000 C 
ATOM     13  C   UNL     1      -6.966  15.616  17.177  0.00  0.00    +0.000 A 
ATOM     14  C   UNL     1      -7.024  14.206  17.212  0.00  0.00    +0.000 A 
ATOM     15  C   UNL     1      -6.560  13.878  18.462  0.00  0.00    +0.000 A 
ATOM     16  O   UNL     1      -6.279  15.018  19.148  0.00  0.00    +0.000 OA
ATOM     17  N   UNL     1      -6.533  16.115  18.342  0.00  0.00    +0.000 NA
ENDBRANCH  11  15
ENDBRANCH   1  11
BRANCH   4  18
ATOM     18  C   UNL     1      -1.400  12.446  20.071  0.00  0.00    +0.000 C 
BRANCH  18  19
ATOM     19  C   UNL     1      -0.913  11.353  21.000  0.00  0.00    +0.000 A 
ATOM     20  C   UNL     1      -0.283  10.207  20.492  0.00  0.00    +0.000 A 
ATOM     21  C   UNL     1       0.027   9.134  21.332  0.00  0.00    +0.000 A 
ATOM     22  C   UNL     1      -0.288   9.197  22.688  0.00  0.00    +0.000 A 
ATOM     23  C   UNL     1      -0.874  10.346  23.212  0.00  0.00    +0.000 A 
ATOM     24  C   UNL     1      -1.175  11.422  22.375  0.00  0.00    +0.000 A 
ENDBRANCH  18  19
ENDBRANCH   4  18
TORSDOF 4
ENDMDL
