MODEL 1
REMARK VINA RESULT:      -8.4      0.000      0.000
REMARK  Name = 
REMARK  4 active torsions:
REMARK  status: ('A' for Active; 'I' for Inactive)
REMARK    1  A    between atoms: C_1  and  C_2
REMARK    2  A    between atoms: C_4  and  C_5
REMARK    3  A    between atoms: C_14  and  O_15
REMARK    4  A    between atoms: C_14  and  C_16
REMARK                            x       y       z     vdW  Elec       q    Type
REMARK                         _______ _______ _______ _____ _____    ______ ____
ROOT
ATOM      1  C   UNL     1       6.326   3.664  13.359  0.00  0.00    +0.000 C 
ATOM      2  C   UNL     1       5.963   4.157  14.728  0.00  0.00    +0.000 A 
ATOM      3  C   UNL     1       6.942   4.626  15.633  0.00  0.00    +0.000 A 
ATOM      4  C   UNL     1       6.628   5.006  16.968  0.00  0.00    +0.000 A 
ATOM      5  C   UNL     1       7.756   5.055  17.963  0.00  0.00    +0.000 C 
ATOM      6  C   UNL     1       5.283   5.042  17.345  0.00  0.00    +0.000 A 
ATOM      7  C   UNL     1       4.397   4.354  16.474  0.00  0.00    +0.000 A 
ATOM      8  C   UNL     1       4.655   3.994  15.170  0.00  0.00    +0.000 A 
ATOM      9  C   UNL     1       3.644   3.525  17.400  0.00  0.00    +0.000 C 
ATOM     10  N   UNL     1       2.973   2.438  17.214  0.00  0.00    +0.000 NA
ATOM     11  C   UNL     1       2.825   1.933  18.636  0.00  0.00    +0.000 C 
ATOM     12  C   UNL     1       3.395   3.010  19.612  0.00  0.00    +0.000 C 
ATOM     13  N   UNL     1       3.890   3.935  18.665  0.00  0.00    +0.000 N 
ATOM     14  C   UNL     1       4.570   5.190  18.716  0.00  0.00    +0.000 C 
ENDROOT
BRANCH  14  15
ATOM     15  C   UNL     1       3.443   6.259  18.801  0.00  0.00    +0.000 A 
ATOM     16  C   UNL     1       3.355   7.248  17.792  0.00  0.00    +0.000 A 
ATOM     17  C   UNL     1       2.579   8.401  17.951  0.00  0.00    +0.000 A 
ATOM     18  C   UNL     1       1.823   8.565  19.104  0.00  0.00    +0.000 A 
ATOM     19 CL   UNL     1       0.911  10.006  19.333  0.00  0.00    +0.000 Cl
ATOM     20  C   UNL     1       1.816   7.570  20.078  0.00  0.00    +0.000 A 
ATOM     21  C   UNL     1       2.615   6.424  19.928  0.00  0.00    +0.000 A 
ENDBRANCH  14  15
BRANCH  14  22
ATOM     22  O   UNL     1       5.420   5.295  19.831  0.00  0.00    +0.000 OA
ATOM     23  H   UNL     1       5.183   4.544  20.399  0.00  0.00    +0.000 HD
ENDBRANCH  14  22
TORSDOF 2
ENDMDL
MODEL 2
REMARK VINA RESULT:      -7.9      0.445      1.119
REMARK  Name = 
REMARK  4 active torsions:
REMARK  status: ('A' for Active; 'I' for Inactive)
REMARK    1  A    between atoms: C_1  and  C_2
REMARK    2  A    between atoms: C_4  and  C_5
REMARK    3  A    between atoms: C_14  and  O_15
REMARK    4  A    between atoms: C_14  and  C_16
REMARK                            x       y       z     vdW  Elec       q    Type
REMARK                         _______ _______ _______ _____ _____    ______ ____
ROOT
ATOM      1  C   UNL     1       6.291   3.708  13.230  0.00  0.00    +0.000 C 
ATOM      2  C   UNL     1       5.974   4.207  14.608  0.00  0.00    +0.000 A 
ATOM      3  C   UNL     1       6.988   4.438  15.566  0.00  0.00    +0.000 A 
ATOM      4  C   UNL     1       6.700   4.818  16.906  0.00  0.00    +0.000 A 
ATOM      5  C   UNL     1       7.774   4.605  17.939  0.00  0.00    +0.000 C 
ATOM      6  C   UNL     1       5.373   5.103  17.241  0.00  0.00    +0.000 A 
ATOM      7  C   UNL     1       4.406   4.637  16.311  0.00  0.00    +0.000 A 
ATOM      8  C   UNL     1       4.643   4.286  15.000  0.00  0.00    +0.000 A 
ATOM      9  C   UNL     1       3.469   3.936  17.172  0.00  0.00    +0.000 C 
ATOM     10  N   UNL     1       2.608   3.009  16.912  0.00  0.00    +0.000 NA
ATOM     11  C   UNL     1       2.306   2.487  18.304  0.00  0.00    +0.000 C 
ATOM     12  C   UNL     1       3.034   3.391  19.347  0.00  0.00    +0.000 C 
ATOM     13  N   UNL     1       3.739   4.238  18.462  0.00  0.00    +0.000 N 
ATOM     14  C   UNL     1       4.647   5.332  18.594  0.00  0.00    +0.000 C 
ENDROOT
BRANCH  14  15
ATOM     15  C   UNL     1       3.747   6.598  18.694  0.00  0.00    +0.000 A 
ATOM     16  C   UNL     1       2.853   6.721  19.784  0.00  0.00    +0.000 A 
ATOM     17  C   UNL     1       1.814   7.659  19.787  0.00  0.00    +0.000 A 
ATOM     18  C   UNL     1       1.683   8.539  18.721  0.00  0.00    +0.000 A 
ATOM     19 CL   UNL     1       0.375   9.658  18.690  0.00  0.00    +0.000 Cl
ATOM     20  C   UNL     1       2.599   8.505  17.673  0.00  0.00    +0.000 A 
ATOM     21  C   UNL     1       3.627   7.546  17.660  0.00  0.00    +0.000 A 
ENDBRANCH  14  15
BRANCH  14  22
ATOM     22  O   UNL     1       5.455   5.224  19.740  0.00  0.00    +0.000 OA
ATOM     23  H   UNL     1       5.980   6.041  19.754  0.00  0.00    +0.000 HD
ENDBRANCH  14  22
TORSDOF 2
ENDMDL
MODEL 3
REMARK VINA RESULT:      -7.1      3.039      5.991
REMARK  Name = 
REMARK  4 active torsions:
REMARK  status: ('A' for Active; 'I' for Inactive)
REMARK    1  A    between atoms: C_1  and  C_2
REMARK    2  A    between atoms: C_4  and  C_5
REMARK    3  A    between atoms: C_14  and  O_15
REMARK    4  A    between atoms: C_14  and  C_16
REMARK                            x       y       z     vdW  Elec       q    Type
REMARK                         _______ _______ _______ _____ _____    ______ ____
ROOT
ATOM      1  C   UNL     1       1.573   8.955  18.110  0.00  0.00    +0.000 C 
ATOM      2  C   UNL     1       2.532   7.809  17.977  0.00  0.00    +0.000 A 
ATOM      3  C   UNL     1       2.351   6.602  18.690  0.00  0.00    +0.000 A 
ATOM      4  C   UNL     1       3.300   5.543  18.651  0.00  0.00    +0.000 A 
ATOM      5  C   UNL     1       3.253   4.523  19.757  0.00  0.00    +0.000 C 
ATOM      6  C   UNL     1       4.378   5.654  17.768  0.00  0.00    +0.000 A 
ATOM      7  C   UNL     1       4.610   6.962  17.266  0.00  0.00    +0.000 A 
ATOM      8  C   UNL     1       3.708   8.003  17.262  0.00  0.00    +0.000 A 
ATOM      9  C   UNL     1       6.032   7.134  17.513  0.00  0.00    +0.000 C 
ATOM     10  N   UNL     1       6.751   8.200  17.627  0.00  0.00    +0.000 NA
ATOM     11  C   UNL     1       8.004   7.644  18.274  0.00  0.00    +0.000 C 
ATOM     12  C   UNL     1       7.886   6.090  18.342  0.00  0.00    +0.000 C 
ATOM     13  N   UNL     1       6.573   5.939  17.842  0.00  0.00    +0.000 N 
ATOM     14  C   UNL     1       5.691   4.845  17.591  0.00  0.00    +0.000 C 
ENDROOT
BRANCH  14  15
ATOM     15  C   UNL     1       6.028   4.375  16.146  0.00  0.00    +0.000 A 
ATOM     16  C   UNL     1       7.267   4.751  15.572  0.00  0.00    +0.000 A 
ATOM     17  C   UNL     1       7.513   4.631  14.200  0.00  0.00    +0.000 A 
ATOM     18  C   UNL     1       6.544   4.074  13.376  0.00  0.00    +0.000 A 
ATOM     19 CL   UNL     1       6.817   3.975  11.679  0.00  0.00    +0.000 Cl
ATOM     20  C   UNL     1       5.350   3.611  13.920  0.00  0.00    +0.000 A 
ATOM     21  C   UNL     1       5.093   3.756  15.295  0.00  0.00    +0.000 A 
ENDBRANCH  14  15
BRANCH  14  22
ATOM     22  O   UNL     1       5.876   3.786  18.498  0.00  0.00    +0.000 OA
ATOM     23  H   UNL     1       6.397   3.128  18.010  0.00  0.00    +0.000 HD
ENDBRANCH  14  22
TORSDOF 2
ENDMDL
MODEL 4
REMARK VINA RESULT:      -7.1      3.166      6.149
REMARK  Name = 
REMARK  4 active torsions:
REMARK  status: ('A' for Active; 'I' for Inactive)
REMARK    1  A    between atoms: C_1  and  C_2
REMARK    2  A    between atoms: C_4  and  C_5
REMARK    3  A    between atoms: C_14  and  O_15
REMARK    4  A    between atoms: C_14  and  C_16
REMARK                            x       y       z     vdW  Elec       q    Type
REMARK                         _______ _______ _______ _____ _____    ______ ____
ROOT
ATOM      1  C   UNL     1       1.813   8.728  18.495  0.00  0.00    +0.000 C 
ATOM      2  C   UNL     1       2.595   7.554  17.986  0.00  0.00    +0.000 A 
ATOM      3  C   UNL     1       2.133   6.228  18.146  0.00  0.00    +0.000 A 
ATOM      4  C   UNL     1       2.906   5.098  17.757  0.00  0.00    +0.000 A 
ATOM      5  C   UNL     1       2.548   3.766  18.360  0.00  0.00    +0.000 C 
ATOM      6  C   UNL     1       4.102   5.321  17.069  0.00  0.00    +0.000 A 
ATOM      7  C   UNL     1       4.599   6.649  17.146  0.00  0.00    +0.000 A 
ATOM      8  C   UNL     1       3.876   7.770  17.493  0.00  0.00    +0.000 A 
ATOM      9  C   UNL     1       5.981   6.434  17.541  0.00  0.00    +0.000 C 
ATOM     10  N   UNL     1       6.831   7.215  18.120  0.00  0.00    +0.000 NA
ATOM     11  C   UNL     1       7.880   6.222  18.580  0.00  0.00    +0.000 C 
ATOM     12  C   UNL     1       7.519   4.813  18.016  0.00  0.00    +0.000 C 
ATOM     13  N   UNL     1       6.282   5.122  17.406  0.00  0.00    +0.000 N 
ATOM     14  C   UNL     1       5.288   4.400  16.679  0.00  0.00    +0.000 C 
ENDROOT
BRANCH  14  15
ATOM     15  C   UNL     1       5.751   4.454  15.194  0.00  0.00    +0.000 A 
ATOM     16  C   UNL     1       5.010   3.748  14.217  0.00  0.00    +0.000 A 
ATOM     17  C   UNL     1       5.520   3.500  12.937  0.00  0.00    +0.000 A 
ATOM     18  C   UNL     1       6.764   4.007  12.586  0.00  0.00    +0.000 A 
ATOM     19 CL   UNL     1       7.423   3.659  11.034  0.00  0.00    +0.000 Cl
ATOM     20  C   UNL     1       7.481   4.782  13.492  0.00  0.00    +0.000 A 
ATOM     21  C   UNL     1       6.979   5.009  14.786  0.00  0.00    +0.000 A 
ENDBRANCH  14  15
BRANCH  14  22
ATOM     22  O   UNL     1       5.179   3.062  17.101  0.00  0.00    +0.000 OA
ATOM     23  H   UNL     1       4.846   2.582  16.326  0.00  0.00    +0.000 HD
ENDBRANCH  14  22
TORSDOF 2
ENDMDL
MODEL 5
REMARK VINA RESULT:      -6.7      2.651      4.204
REMARK  Name = 
REMARK  4 active torsions:
REMARK  status: ('A' for Active; 'I' for Inactive)
REMARK    1  A    between atoms: C_1  and  C_2
REMARK    2  A    between atoms: C_4  and  C_5
REMARK    3  A    between atoms: C_14  and  O_15
REMARK    4  A    between atoms: C_14  and  C_16
REMARK                            x       y       z     vdW  Elec       q    Type
REMARK                         _______ _______ _______ _____ _____    ______ ____
ROOT
ATOM      1  C   UNL     1       8.431   9.803  17.601  0.00  0.00    +0.000 C 
ATOM      2  C   UNL     1       7.783   8.475  17.855  0.00  0.00    +0.000 A 
ATOM      3  C   UNL     1       8.331   7.542  18.764  0.00  0.00    +0.000 A 
ATOM      4  C   UNL     1       7.785   6.241  18.946  0.00  0.00    +0.000 A 
ATOM      5  C   UNL     1       8.667   5.194  19.569  0.00  0.00    +0.000 C 
ATOM      6  C   UNL     1       6.584   5.933  18.299  0.00  0.00    +0.000 A 
ATOM      7  C   UNL     1       6.225   6.818  17.248  0.00  0.00    +0.000 A 
ATOM      8  C   UNL     1       6.712   8.092  17.056  0.00  0.00    +0.000 A 
ATOM      9  C   UNL     1       5.937   5.898  16.161  0.00  0.00    +0.000 C 
ATOM     10  N   UNL     1       5.921   6.073  14.882  0.00  0.00    +0.000 NA
ATOM     11  C   UNL     1       5.958   4.641  14.386  0.00  0.00    +0.000 C 
ATOM     12  C   UNL     1       5.843   3.683  15.612  0.00  0.00    +0.000 C 
ATOM     13  N   UNL     1       5.862   4.640  16.651  0.00  0.00    +0.000 N 
ATOM     14  C   UNL     1       5.810   4.606  18.078  0.00  0.00    +0.000 C 
ENDROOT
BRANCH  14  15
ATOM     15  C   UNL     1       4.294   4.620  18.429  0.00  0.00    +0.000 A 
ATOM     16  C   UNL     1       3.872   5.245  19.627  0.00  0.00    +0.000 A 
ATOM     17  C   UNL     1       2.593   5.041  20.158  0.00  0.00    +0.000 A 
ATOM     18  C   UNL     1       1.683   4.250  19.467  0.00  0.00    +0.000 A 
ATOM     19 CL   UNL     1       0.128   3.948  20.141  0.00  0.00    +0.000 Cl
ATOM     20  C   UNL     1       2.035   3.693  18.241  0.00  0.00    +0.000 A 
ATOM     21  C   UNL     1       3.328   3.879  17.722  0.00  0.00    +0.000 A 
ENDBRANCH  14  15
BRANCH  14  22
ATOM     22  O   UNL     1       6.418   3.455  18.610  0.00  0.00    +0.000 OA
ATOM     23  H   UNL     1       7.082   3.789  19.235  0.00  0.00    +0.000 HD
ENDBRANCH  14  22
TORSDOF 2
ENDMDL
MODEL 6
REMARK VINA RESULT:      -6.6      2.941      5.567
REMARK  Name = 
REMARK  4 active torsions:
REMARK  status: ('A' for Active; 'I' for Inactive)
REMARK    1  A    between atoms: C_1  and  C_2
REMARK    2  A    between atoms: C_4  and  C_5
REMARK    3  A    between atoms: C_14  and  O_15
REMARK    4  A    between atoms: C_14  and  C_16
REMARK                            x       y       z     vdW  Elec       q    Type
REMARK                         _______ _______ _______ _____ _____    ______ ____
ROOT
ATOM      1  C   UNL     1       0.182   2.272  18.804  0.00  0.00    +0.000 C 
ATOM      2  C   UNL     1       1.608   2.660  18.549  0.00  0.00    +0.000 A 
ATOM      3  C   UNL     1       2.670   2.141  19.324  0.00  0.00    +0.000 A 
ATOM      4  C   UNL     1       4.016   2.571  19.160  0.00  0.00    +0.000 A 
ATOM      5  C   UNL     1       4.974   2.313  20.292  0.00  0.00    +0.000 C 
ATOM      6  C   UNL     1       4.309   3.436  18.102  0.00  0.00    +0.000 A 
ATOM      7  C   UNL     1       3.182   4.078  17.523  0.00  0.00    +0.000 A 
ATOM      8  C   UNL     1       1.870   3.676  17.637  0.00  0.00    +0.000 A 
ATOM      9  C   UNL     1       3.596   5.471  17.517  0.00  0.00    +0.000 C 
ATOM     10  N   UNL     1       2.907   6.561  17.469  0.00  0.00    +0.000 NA
ATOM     11  C   UNL     1       3.937   7.583  17.911  0.00  0.00    +0.000 C 
ATOM     12  C   UNL     1       5.319   6.872  18.051  0.00  0.00    +0.000 C 
ATOM     13  N   UNL     1       4.919   5.542  17.790  0.00  0.00    +0.000 N 
ATOM     14  C   UNL     1       5.564   4.270  17.731  0.00  0.00    +0.000 C 
ENDROOT
BRANCH  14  15
ATOM     15  C   UNL     1       6.076   4.141  16.267  0.00  0.00    +0.000 A 
ATOM     16  C   UNL     1       7.255   4.829  15.888  0.00  0.00    +0.000 A 
ATOM     17  C   UNL     1       7.607   5.009  14.546  0.00  0.00    +0.000 A 
ATOM     18  C   UNL     1       6.816   4.452  13.549  0.00  0.00    +0.000 A 
ATOM     19 CL   UNL     1       7.210   4.717  11.895  0.00  0.00    +0.000 Cl
ATOM     20  C   UNL     1       5.699   3.694  13.889  0.00  0.00    +0.000 A 
ATOM     21  C   UNL     1       5.333   3.535  15.237  0.00  0.00    +0.000 A 
ENDBRANCH  14  15
BRANCH  14  22
ATOM     22  O   UNL     1       6.642   4.172  18.629  0.00  0.00    +0.000 OA
ATOM     23  H   UNL     1       7.400   4.546  18.151  0.00  0.00    +0.000 HD
ENDBRANCH  14  22
TORSDOF 2
ENDMDL
MODEL 7
REMARK VINA RESULT:      -6.5      5.117      7.876
REMARK  Name = 
REMARK  4 active torsions:
REMARK  status: ('A' for Active; 'I' for Inactive)
REMARK    1  A    between atoms: C_1  and  C_2
REMARK    2  A    between atoms: C_4  and  C_5
REMARK    3  A    between atoms: C_14  and  O_15
REMARK    4  A    between atoms: C_14  and  C_16
REMARK                            x       y       z     vdW  Elec       q    Type
REMARK                         _______ _______ _______ _____ _____    ______ ____
ROOT
ATOM      1  C   UNL     1       2.623   6.662  18.261  0.00  0.00    +0.000 C 
ATOM      2  C   UNL     1       1.969   7.906  18.784  0.00  0.00    +0.000 A 
ATOM      3  C   UNL     1       1.811   8.137  20.170  0.00  0.00    +0.000 A 
ATOM      4  C   UNL     1       1.108   9.263  20.681  0.00  0.00    +0.000 A 
ATOM      5  C   UNL     1       0.613   9.191  22.101  0.00  0.00    +0.000 C 
ATOM      6  C   UNL     1       0.679  10.240  19.778  0.00  0.00    +0.000 A 
ATOM      7  C   UNL     1       0.671   9.836  18.416  0.00  0.00    +0.000 A 
ATOM      8  C   UNL     1       1.360   8.770  17.881  0.00  0.00    +0.000 A 
ATOM      9  C   UNL     1      -0.664  10.223  17.993  0.00  0.00    +0.000 C 
ATOM     10  N   UNL     1      -1.397   9.808  17.015  0.00  0.00    +0.000 NA
ATOM     11  C   UNL     1      -2.761  10.325  17.427  0.00  0.00    +0.000 C 
ATOM     12  C   UNL     1      -2.597  11.209  18.703  0.00  0.00    +0.000 C 
ATOM     13  N   UNL     1      -1.217  11.016  18.937  0.00  0.00    +0.000 N 
ATOM     14  C   UNL     1      -0.270  11.461  19.909  0.00  0.00    +0.000 C 
ENDROOT
BRANCH  14  15
ATOM     15  C   UNL     1       0.264  12.818  19.365  0.00  0.00    +0.000 A 
ATOM     16  C   UNL     1       1.662  13.033  19.308  0.00  0.00    +0.000 A 
ATOM     17  C   UNL     1       2.207  14.308  19.124  0.00  0.00    +0.000 A 
ATOM     18  C   UNL     1       1.362  15.394  18.932  0.00  0.00    +0.000 A 
ATOM     19 CL   UNL     1       2.023  16.974  18.761  0.00  0.00    +0.000 Cl
ATOM     20  C   UNL     1      -0.016  15.204  18.892  0.00  0.00    +0.000 A 
ATOM     21  C   UNL     1      -0.563  13.926  19.103  0.00  0.00    +0.000 A 
ENDBRANCH  14  15
BRANCH  14  22
ATOM     22  O   UNL     1      -0.849  11.644  21.178  0.00  0.00    +0.000 OA
ATOM     23  H   UNL     1      -1.347  12.475  21.108  0.00  0.00    +0.000 HD
ENDBRANCH  14  22
TORSDOF 2
ENDMDL
MODEL 8
REMARK VINA RESULT:      -6.4      5.261      8.223
REMARK  Name = 
REMARK  4 active torsions:
REMARK  status: ('A' for Active; 'I' for Inactive)
REMARK    1  A    between atoms: C_1  and  C_2
REMARK    2  A    between atoms: C_4  and  C_5
REMARK    3  A    between atoms: C_14  and  O_15
REMARK    4  A    between atoms: C_14  and  C_16
REMARK                            x       y       z     vdW  Elec       q    Type
REMARK                         _______ _______ _______ _____ _____    ______ ____
ROOT
ATOM      1  C   UNL     1       2.514   6.729  19.496  0.00  0.00    +0.000 C 
ATOM      2  C   UNL     1       1.817   7.999  19.884  0.00  0.00    +0.000 A 
ATOM      3  C   UNL     1       1.376   8.231  21.207  0.00  0.00    +0.000 A 
ATOM      4  C   UNL     1       0.628   9.385  21.572  0.00  0.00    +0.000 A 
ATOM      5  C   UNL     1      -0.162   9.329  22.851  0.00  0.00    +0.000 C 
ATOM      6  C   UNL     1       0.446  10.384  20.611  0.00  0.00    +0.000 A 
ATOM      7  C   UNL     1       0.713   9.987  19.274  0.00  0.00    +0.000 A 
ATOM      8  C   UNL     1       1.453   8.893  18.883  0.00  0.00    +0.000 A 
ATOM      9  C   UNL     1      -0.483  10.435  18.580  0.00  0.00    +0.000 C 
ATOM     10  N   UNL     1      -1.007  10.058  17.462  0.00  0.00    +0.000 NA
ATOM     11  C   UNL     1      -2.404  10.634  17.580  0.00  0.00    +0.000 C 
ATOM     12  C   UNL     1      -2.480  11.504  18.874  0.00  0.00    +0.000 C 
ATOM     13  N   UNL     1      -1.191  11.249  19.395  0.00  0.00    +0.000 N 
ATOM     14  C   UNL     1      -0.456  11.645  20.553  0.00  0.00    +0.000 C 
ENDROOT
BRANCH  14  15
ATOM     15  C   UNL     1       0.240  12.980  20.155  0.00  0.00    +0.000 A 
ATOM     16  C   UNL     1      -0.528  14.000  19.545  0.00  0.00    +0.000 A 
ATOM     17  C   UNL     1       0.068  15.086  18.894  0.00  0.00    +0.000 A 
ATOM     18  C   UNL     1       1.452  15.207  18.890  0.00  0.00    +0.000 A 
ATOM     19 CL   UNL     1       2.195  16.508  18.043  0.00  0.00    +0.000 Cl
ATOM     20  C   UNL     1       2.234  14.269  19.557  0.00  0.00    +0.000 A 
ATOM     21  C   UNL     1       1.635  13.165  20.189  0.00  0.00    +0.000 A 
ENDBRANCH  14  15
BRANCH  14  22
ATOM     22  O   UNL     1      -1.285  11.849  21.671  0.00  0.00    +0.000 OA
ATOM     23  H   UNL     1      -2.142  11.469  21.420  0.00  0.00    +0.000 HD
ENDBRANCH  14  22
TORSDOF 2
ENDMDL
MODEL 9
REMARK VINA RESULT:      -6.3      5.730      8.553
REMARK  Name = 
REMARK  4 active torsions:
REMARK  status: ('A' for Active; 'I' for Inactive)
REMARK    1  A    between atoms: C_1  and  C_2
REMARK    2  A    between atoms: C_4  and  C_5
REMARK    3  A    between atoms: C_14  and  O_15
REMARK    4  A    between atoms: C_14  and  C_16
REMARK                            x       y       z     vdW  Elec       q    Type
REMARK                         _______ _______ _______ _____ _____    ______ ____
ROOT
ATOM      1  C   UNL     1       2.835   8.287  17.811  0.00  0.00    +0.000 C 
ATOM      2  C   UNL     1       1.874   9.353  18.243  0.00  0.00    +0.000 A 
ATOM      3  C   UNL     1       2.127  10.723  18.005  0.00  0.00    +0.000 A 
ATOM      4  C   UNL     1       1.276  11.753  18.493  0.00  0.00    +0.000 A 
ATOM      5  C   UNL     1       1.843  13.144  18.582  0.00  0.00    +0.000 C 
ATOM      6  C   UNL     1       0.078  11.382  19.112  0.00  0.00    +0.000 A 
ATOM      7  C   UNL     1       0.005  10.021  19.509  0.00  0.00    +0.000 A 
ATOM      8  C   UNL     1       0.793   8.993  19.040  0.00  0.00    +0.000 A 
ATOM      9  C   UNL     1      -0.428  10.131  20.892  0.00  0.00    +0.000 C 
ATOM     10  N   UNL     1      -0.324   9.309  21.883  0.00  0.00    +0.000 NA
ATOM     11  C   UNL     1      -0.600  10.226  23.058  0.00  0.00    +0.000 C 
ATOM     12  C   UNL     1      -1.016  11.628  22.514  0.00  0.00    +0.000 C 
ATOM     13  N   UNL     1      -0.831  11.399  21.132  0.00  0.00    +0.000 N 
ATOM     14  C   UNL     1      -0.976  12.167  19.936  0.00  0.00    +0.000 C 
ENDROOT
BRANCH  14  15
ATOM     15  C   UNL     1      -2.464  11.986  19.515  0.00  0.00    +0.000 A 
ATOM     16  C   UNL     1      -2.756  11.371  18.274  0.00  0.00    +0.000 A 
ATOM     17  C   UNL     1      -4.028  11.443  17.694  0.00  0.00    +0.000 A 
ATOM     18  C   UNL     1      -5.056  12.084  18.374  0.00  0.00    +0.000 A 
ATOM     19 CL   UNL     1      -6.608  12.227  17.644  0.00  0.00    +0.000 Cl
ATOM     20  C   UNL     1      -4.825  12.622  19.638  0.00  0.00    +0.000 A 
ATOM     21  C   UNL     1      -3.541  12.570  20.207  0.00  0.00    +0.000 A 
ENDBRANCH  14  15
BRANCH  14  22
ATOM     22  O   UNL     1      -0.695  13.531  20.136  0.00  0.00    +0.000 OA
ATOM     23  H   UNL     1      -0.221  13.808  19.336  0.00  0.00    +0.000 HD
ENDBRANCH  14  22
TORSDOF 2
ENDMDL
