MODEL 1
REMARK VINA RESULT:      -7.3      0.000      0.000
REMARK  Name = 
REMARK  11 active torsions:
REMARK  status: ('A' for Active; 'I' for Inactive)
REMARK    1  A    between atoms: C_1  and  O_2
REMARK    2  A    between atoms: O_2  and  C_3
REMARK    3  A    between atoms: C_5  and  C_6
REMARK    4  A    between atoms: N_8  and  C_9
REMARK    5  A    between atoms: C_9  and  C_10
REMARK    6  A    between atoms: C_10  and  C_11
REMARK    7  A    between atoms: C_11  and  C_12
REMARK    8  A    between atoms: C_19  and  O_20
REMARK    9  A    between atoms: O_20  and  C_21
REMARK   10  A    between atoms: C_22  and  O_23
REMARK   11  A    between atoms: O_23  and  C_24
REMARK                            x       y       z     vdW  Elec       q    Type
REMARK                         _______ _______ _______ _____ _____    ______ ____
ROOT
ATOM      1  C   UNL     1       5.907   6.322  16.901  0.00  0.00    +0.000 C 
ATOM      2  O   UNL     1       6.309   5.906  15.822  0.00  0.00    +0.000 OA
ATOM      3  N   UNL     1       6.556   7.281  17.653  0.00  0.00    +0.000 N 
ATOM      4  H   UNL     1       6.231   7.490  18.588  0.00  0.00    +0.000 HD
ENDROOT
BRANCH   1   7
ATOM      5  C   UNL     1       2.723   6.083  18.905  0.00  0.00    +0.000 A 
ATOM      6  C   UNL     1       3.951   6.534  18.395  0.00  0.00    +0.000 A 
ATOM      7  C   UNL     1       4.699   5.736  17.537  0.00  0.00    +0.000 A 
ATOM      8  C   UNL     1       4.274   4.440  17.261  0.00  0.00    +0.000 A 
ATOM      9  C   UNL     1       3.088   3.940  17.821  0.00  0.00    +0.000 A 
ATOM     10  C   UNL     1       2.297   4.757  18.659  0.00  0.00    +0.000 A 
BRANCH   5  12
ATOM     11  C   UNL     1       1.852   8.267  19.183  0.00  0.00    +0.000 C 
ATOM     12  O   UNL     1       1.943   6.922  19.662  0.00  0.00    +0.000 OA
ENDBRANCH   5  12
BRANCH   9  13
ATOM     13  O   UNL     1       2.864   2.646  17.416  0.00  0.00    +0.000 OA
ATOM     14  C   UNL     1       3.450   1.571  18.134  0.00  0.00    +0.000 C 
ENDBRANCH   9  13
BRANCH  10  15
ATOM     15  O   UNL     1       1.179   4.165  19.182  0.00  0.00    +0.000 OA
ATOM     16  C   UNL     1       1.196   3.572  20.470  0.00  0.00    +0.000 C 
ENDBRANCH  10  15
ENDBRANCH   1   7
BRANCH   3  17
ATOM     17  C   UNL     1       7.814   7.863  17.231  0.00  0.00    +0.000 C 
BRANCH  17  18
ATOM     18  C   UNL     1       8.477   8.689  18.326  0.00  0.00    +0.000 C 
BRANCH  18  19
ATOM     19  C   UNL     1       8.367  10.195  18.076  0.00  0.00    +0.000 C 
BRANCH  19  20
ATOM     20  C   UNL     1       9.555  10.916  18.663  0.00  0.00    +0.000 A 
ATOM     21  C   UNL     1      10.637  11.275  17.848  0.00  0.00    +0.000 A 
ATOM     22  C   UNL     1      11.773  11.865  18.401  0.00  0.00    +0.000 A 
ATOM     23  C   UNL     1      11.838  12.102  19.773  0.00  0.00    +0.000 A 
ATOM     24  C   UNL     1      10.763  11.759  20.591  0.00  0.00    +0.000 A 
ATOM     25  C   UNL     1       9.625  11.169  20.039  0.00  0.00    +0.000 A 
ENDBRANCH  19  20
ENDBRANCH  18  19
ENDBRANCH  17  18
ENDBRANCH   3  17
TORSDOF 8
ENDMDL
MODEL 2
REMARK VINA RESULT:      -7.1      1.221      1.569
REMARK  Name = 
REMARK  11 active torsions:
REMARK  status: ('A' for Active; 'I' for Inactive)
REMARK    1  A    between atoms: C_1  and  O_2
REMARK    2  A    between atoms: O_2  and  C_3
REMARK    3  A    between atoms: C_5  and  C_6
REMARK    4  A    between atoms: N_8  and  C_9
REMARK    5  A    between atoms: C_9  and  C_10
REMARK    6  A    between atoms: C_10  and  C_11
REMARK    7  A    between atoms: C_11  and  C_12
REMARK    8  A    between atoms: C_19  and  O_20
REMARK    9  A    between atoms: O_20  and  C_21
REMARK   10  A    between atoms: C_22  and  O_23
REMARK   11  A    between atoms: O_23  and  C_24
REMARK                            x       y       z     vdW  Elec       q    Type
REMARK                         _______ _______ _______ _____ _____    ______ ____
ROOT
ATOM      1  C   UNL     1       6.813   5.976  18.410  0.00  0.00    +0.000 C 
ATOM      2  O   UNL     1       7.774   5.445  18.951  0.00  0.00    +0.000 OA
ATOM      3  N   UNL     1       6.886   7.131  17.659  0.00  0.00    +0.000 N 
ATOM      4  H   UNL     1       6.036   7.579  17.342  0.00  0.00    +0.000 HD
ENDROOT
BRANCH   1   7
ATOM      5  C   UNL     1       3.048   5.799  18.408  0.00  0.00    +0.000 A 
ATOM      6  C   UNL     1       4.363   6.289  18.378  0.00  0.00    +0.000 A 
ATOM      7  C   UNL     1       5.440   5.443  18.612  0.00  0.00    +0.000 A 
ATOM      8  C   UNL     1       5.208   4.121  18.977  0.00  0.00    +0.000 A 
ATOM      9  C   UNL     1       3.899   3.628  19.089  0.00  0.00    +0.000 A 
ATOM     10  C   UNL     1       2.796   4.466  18.810  0.00  0.00    +0.000 A 
BRANCH   5  12
ATOM     11  C   UNL     1       2.313   8.013  18.002  0.00  0.00    +0.000 C 
ATOM     12  O   UNL     1       2.000   6.619  18.068  0.00  0.00    +0.000 OA
ENDBRANCH   5  12
BRANCH   9  13
ATOM     13  O   UNL     1       3.905   2.305  19.460  0.00  0.00    +0.000 OA
ATOM     14  C   UNL     1       3.748   1.296  18.474  0.00  0.00    +0.000 C 
ENDBRANCH   9  13
BRANCH  10  15
ATOM     15  O   UNL     1       1.561   3.901  18.982  0.00  0.00    +0.000 OA
ATOM     16  C   UNL     1       0.896   3.955  20.232  0.00  0.00    +0.000 C 
ENDBRANCH  10  15
ENDBRANCH   1   7
BRANCH   3  17
ATOM     17  C   UNL     1       8.133   7.844  17.469  0.00  0.00    +0.000 C 
BRANCH  17  18
ATOM     18  C   UNL     1       8.394   8.875  18.561  0.00  0.00    +0.000 C 
BRANCH  18  19
ATOM     19  C   UNL     1       8.590  10.287  18.003  0.00  0.00    +0.000 C 
BRANCH  19  20
ATOM     20  C   UNL     1       9.752  10.967  18.683  0.00  0.00    +0.000 A 
ATOM     21  C   UNL     1       9.728  11.191  20.066  0.00  0.00    +0.000 A 
ATOM     22  C   UNL     1      10.760  11.895  20.686  0.00  0.00    +0.000 A 
ATOM     23  C   UNL     1      11.826  12.380  19.930  0.00  0.00    +0.000 A 
ATOM     24  C   UNL     1      11.865  12.153  18.555  0.00  0.00    +0.000 A 
ATOM     25  C   UNL     1      10.833  11.449  17.933  0.00  0.00    +0.000 A 
ENDBRANCH  19  20
ENDBRANCH  18  19
ENDBRANCH  17  18
ENDBRANCH   3  17
TORSDOF 8
ENDMDL
MODEL 3
REMARK VINA RESULT:      -7.1      1.254      2.739
REMARK  Name = 
REMARK  11 active torsions:
REMARK  status: ('A' for Active; 'I' for Inactive)
REMARK    1  A    between atoms: C_1  and  O_2
REMARK    2  A    between atoms: O_2  and  C_3
REMARK    3  A    between atoms: C_5  and  C_6
REMARK    4  A    between atoms: N_8  and  C_9
REMARK    5  A    between atoms: C_9  and  C_10
REMARK    6  A    between atoms: C_10  and  C_11
REMARK    7  A    between atoms: C_11  and  C_12
REMARK    8  A    between atoms: C_19  and  O_20
REMARK    9  A    between atoms: O_20  and  C_21
REMARK   10  A    between atoms: C_22  and  O_23
REMARK   11  A    between atoms: O_23  and  C_24
REMARK                            x       y       z     vdW  Elec       q    Type
REMARK                         _______ _______ _______ _____ _____    ______ ____
ROOT
ATOM      1  C   UNL     1       6.894   6.206  17.903  0.00  0.00    +0.000 C 
ATOM      2  O   UNL     1       7.867   5.545  18.240  0.00  0.00    +0.000 OA
ATOM      3  N   UNL     1       6.956   7.520  17.488  0.00  0.00    +0.000 N 
ATOM      4  H   UNL     1       6.101   8.040  17.339  0.00  0.00    +0.000 HD
ENDROOT
BRANCH   1   7
ATOM      5  C   UNL     1       4.121   3.731  18.531  0.00  0.00    +0.000 A 
ATOM      6  C   UNL     1       5.385   4.286  18.274  0.00  0.00    +0.000 A 
ATOM      7  C   UNL     1       5.522   5.643  18.010  0.00  0.00    +0.000 A 
ATOM      8  C   UNL     1       4.387   6.440  17.903  0.00  0.00    +0.000 A 
ATOM      9  C   UNL     1       3.107   5.893  18.081  0.00  0.00    +0.000 A 
ATOM     10  C   UNL     1       2.957   4.522  18.394  0.00  0.00    +0.000 A 
BRANCH   5  12
ATOM     11  C   UNL     1       4.428   2.114  20.233  0.00  0.00    +0.000 C 
ATOM     12  O   UNL     1       4.011   2.412  18.898  0.00  0.00    +0.000 OA
ENDBRANCH   5  12
BRANCH   9  13
ATOM     13  O   UNL     1       2.138   6.854  17.931  0.00  0.00    +0.000 OA
ATOM     14  C   UNL     1       2.266   8.095  18.610  0.00  0.00    +0.000 C 
ENDBRANCH   9  13
BRANCH  10  15
ATOM     15  O   UNL     1       1.668   4.078  18.513  0.00  0.00    +0.000 OA
ATOM     16  C   UNL     1       1.038   3.982  19.780  0.00  0.00    +0.000 C 
ENDBRANCH  10  15
ENDBRANCH   1   7
BRANCH   3  17
ATOM     17  C   UNL     1       8.205   8.253  17.447  0.00  0.00    +0.000 C 
BRANCH  17  18
ATOM     18  C   UNL     1       8.098   9.637  18.075  0.00  0.00    +0.000 C 
BRANCH  18  19
ATOM     19  C   UNL     1       9.020   9.806  19.286  0.00  0.00    +0.000 C 
BRANCH  19  20
ATOM     20  C   UNL     1       9.972  10.955  19.067  0.00  0.00    +0.000 A 
ATOM     21  C   UNL     1      10.304  11.359  17.767  0.00  0.00    +0.000 A 
ATOM     22  C   UNL     1      11.249  12.365  17.560  0.00  0.00    +0.000 A 
ATOM     23  C   UNL     1      11.869  12.975  18.649  0.00  0.00    +0.000 A 
ATOM     24  C   UNL     1      11.537  12.588  19.947  0.00  0.00    +0.000 A 
ATOM     25  C   UNL     1      10.592  11.582  20.156  0.00  0.00    +0.000 A 
ENDBRANCH  19  20
ENDBRANCH  18  19
ENDBRANCH  17  18
ENDBRANCH   3  17
TORSDOF 8
ENDMDL
MODEL 4
REMARK VINA RESULT:      -7.0      0.869      2.881
REMARK  Name = 
REMARK  11 active torsions:
REMARK  status: ('A' for Active; 'I' for Inactive)
REMARK    1  A    between atoms: C_1  and  O_2
REMARK    2  A    between atoms: O_2  and  C_3
REMARK    3  A    between atoms: C_5  and  C_6
REMARK    4  A    between atoms: N_8  and  C_9
REMARK    5  A    between atoms: C_9  and  C_10
REMARK    6  A    between atoms: C_10  and  C_11
REMARK    7  A    between atoms: C_11  and  C_12
REMARK    8  A    between atoms: C_19  and  O_20
REMARK    9  A    between atoms: O_20  and  C_21
REMARK   10  A    between atoms: C_22  and  O_23
REMARK   11  A    between atoms: O_23  and  C_24
REMARK                            x       y       z     vdW  Elec       q    Type
REMARK                         _______ _______ _______ _____ _____    ______ ____
ROOT
ATOM      1  C   UNL     1       5.600   6.566  17.198  0.00  0.00    +0.000 C 
ATOM      2  O   UNL     1       5.540   6.615  15.976  0.00  0.00    +0.000 OA
ATOM      3  N   UNL     1       6.608   7.137  17.948  0.00  0.00    +0.000 N 
ATOM      4  H   UNL     1       6.658   6.955  18.942  0.00  0.00    +0.000 HD
ENDROOT
BRANCH   1   7
ATOM      5  C   UNL     1       3.993   3.651  18.966  0.00  0.00    +0.000 A 
ATOM      6  C   UNL     1       4.816   4.414  18.122  0.00  0.00    +0.000 A 
ATOM      7  C   UNL     1       4.606   5.780  17.974  0.00  0.00    +0.000 A 
ATOM      8  C   UNL     1       3.512   6.377  18.590  0.00  0.00    +0.000 A 
ATOM      9  C   UNL     1       2.630   5.620  19.377  0.00  0.00    +0.000 A 
ATOM     10  C   UNL     1       2.858   4.238  19.572  0.00  0.00    +0.000 A 
BRANCH   5  12
ATOM     11  C   UNL     1       3.691   1.412  18.259  0.00  0.00    +0.000 C 
ATOM     12  O   UNL     1       4.277   2.326  19.189  0.00  0.00    +0.000 OA
ENDBRANCH   5  12
BRANCH   9  13
ATOM     13  O   UNL     1       1.626   6.409  19.884  0.00  0.00    +0.000 OA
ATOM     14  C   UNL     1       1.923   7.719  20.342  0.00  0.00    +0.000 C 
ENDBRANCH   9  13
BRANCH  10  15
ATOM     15  O   UNL     1       1.923   3.583  20.327  0.00  0.00    +0.000 OA
ATOM     16  C   UNL     1       0.837   2.901  19.721  0.00  0.00    +0.000 C 
ENDBRANCH  10  15
ENDBRANCH   1   7
BRANCH   3  17
ATOM     17  C   UNL     1       7.720   7.833  17.334  0.00  0.00    +0.000 C 
BRANCH  17  18
ATOM     18  C   UNL     1       8.501   8.687  18.325  0.00  0.00    +0.000 C 
BRANCH  18  19
ATOM     19  C   UNL     1       8.502  10.172  17.949  0.00  0.00    +0.000 C 
BRANCH  19  20
ATOM     20  C   UNL     1       9.649  10.885  18.620  0.00  0.00    +0.000 A 
ATOM     21  C   UNL     1       9.652  11.066  20.009  0.00  0.00    +0.000 A 
ATOM     22  C   UNL     1      10.668  11.799  20.623  0.00  0.00    +0.000 A 
ATOM     23  C   UNL     1      11.688  12.357  19.855  0.00  0.00    +0.000 A 
ATOM     24  C   UNL     1      11.699  12.174  18.473  0.00  0.00    +0.000 A 
ATOM     25  C   UNL     1      10.684  11.441  17.857  0.00  0.00    +0.000 A 
ENDBRANCH  19  20
ENDBRANCH  18  19
ENDBRANCH  17  18
ENDBRANCH   3  17
TORSDOF 8
ENDMDL
MODEL 5
REMARK VINA RESULT:      -7.0      3.617      7.386
REMARK  Name = 
REMARK  11 active torsions:
REMARK  status: ('A' for Active; 'I' for Inactive)
REMARK    1  A    between atoms: C_1  and  O_2
REMARK    2  A    between atoms: O_2  and  C_3
REMARK    3  A    between atoms: C_5  and  C_6
REMARK    4  A    between atoms: N_8  and  C_9
REMARK    5  A    between atoms: C_9  and  C_10
REMARK    6  A    between atoms: C_10  and  C_11
REMARK    7  A    between atoms: C_11  and  C_12
REMARK    8  A    between atoms: C_19  and  O_20
REMARK    9  A    between atoms: O_20  and  C_21
REMARK   10  A    between atoms: C_22  and  O_23
REMARK   11  A    between atoms: O_23  and  C_24
REMARK                            x       y       z     vdW  Elec       q    Type
REMARK                         _______ _______ _______ _____ _____    ______ ____
ROOT
ATOM      1  C   UNL     1       3.738   3.633  17.127  0.00  0.00    +0.000 C 
ATOM      2  O   UNL     1       2.660   3.444  16.579  0.00  0.00    +0.000 OA
ATOM      3  N   UNL     1       3.941   3.547  18.489  0.00  0.00    +0.000 N 
ATOM      4  H   UNL     1       4.828   3.833  18.884  0.00  0.00    +0.000 HD
ENDROOT
BRANCH   1   7
ATOM      5  C   UNL     1       6.166   3.952  14.262  0.00  0.00    +0.000 A 
ATOM      6  C   UNL     1       5.155   3.473  15.110  0.00  0.00    +0.000 A 
ATOM      7  C   UNL     1       4.920   4.074  16.341  0.00  0.00    +0.000 A 
ATOM      8  C   UNL     1       5.759   5.094  16.779  0.00  0.00    +0.000 A 
ATOM      9  C   UNL     1       6.824   5.538  15.981  0.00  0.00    +0.000 A 
ATOM     10  C   UNL     1       7.046   4.965  14.707  0.00  0.00    +0.000 A 
BRANCH   5  12
ATOM     11  C   UNL     1       5.121   3.365  12.220  0.00  0.00    +0.000 C 
ATOM     12  O   UNL     1       6.316   3.422  13.004  0.00  0.00    +0.000 OA
ENDBRANCH   5  12
BRANCH   9  13
ATOM     13  O   UNL     1       7.518   6.545  16.606  0.00  0.00    +0.000 OA
ATOM     14  C   UNL     1       6.919   7.248  17.684  0.00  0.00    +0.000 C 
ENDBRANCH   9  13
BRANCH  10  15
ATOM     15  O   UNL     1       8.131   5.442  14.022  0.00  0.00    +0.000 OA
ATOM     16  C   UNL     1       8.075   5.668  12.624  0.00  0.00    +0.000 C 
ENDBRANCH  10  15
ENDBRANCH   1   7
BRANCH   3  17
ATOM     17  C   UNL     1       2.861   3.249  19.408  0.00  0.00    +0.000 C 
BRANCH  17  18
ATOM     18  C   UNL     1       2.227   4.502  19.999  0.00  0.00    +0.000 C 
BRANCH  18  19
ATOM     19  C   UNL     1       3.194   5.690  20.034  0.00  0.00    +0.000 C 
BRANCH  19  20
ATOM     20  C   UNL     1       2.524   6.932  19.502  0.00  0.00    +0.000 A 
ATOM     21  C   UNL     1       2.733   7.334  18.176  0.00  0.00    +0.000 A 
ATOM     22  C   UNL     1       2.184   8.527  17.705  0.00  0.00    +0.000 A 
ATOM     23  C   UNL     1       1.422   9.327  18.554  0.00  0.00    +0.000 A 
ATOM     24  C   UNL     1       1.198   8.930  19.872  0.00  0.00    +0.000 A 
ATOM     25  C   UNL     1       1.746   7.737  20.345  0.00  0.00    +0.000 A 
ENDBRANCH  19  20
ENDBRANCH  18  19
ENDBRANCH  17  18
ENDBRANCH   3  17
TORSDOF 8
ENDMDL
MODEL 6
REMARK VINA RESULT:      -7.0      5.091      8.401
REMARK  Name = 
REMARK  11 active torsions:
REMARK  status: ('A' for Active; 'I' for Inactive)
REMARK    1  A    between atoms: C_1  and  O_2
REMARK    2  A    between atoms: O_2  and  C_3
REMARK    3  A    between atoms: C_5  and  C_6
REMARK    4  A    between atoms: N_8  and  C_9
REMARK    5  A    between atoms: C_9  and  C_10
REMARK    6  A    between atoms: C_10  and  C_11
REMARK    7  A    between atoms: C_11  and  C_12
REMARK    8  A    between atoms: C_19  and  O_20
REMARK    9  A    between atoms: O_20  and  C_21
REMARK   10  A    between atoms: C_22  and  O_23
REMARK   11  A    between atoms: O_23  and  C_24
REMARK                            x       y       z     vdW  Elec       q    Type
REMARK                         _______ _______ _______ _____ _____    ______ ____
ROOT
ATOM      1  C   UNL     1       2.055   8.332  18.489  0.00  0.00    +0.000 C 
ATOM      2  O   UNL     1       2.242   8.927  17.436  0.00  0.00    +0.000 OA
ATOM      3  N   UNL     1       1.357   8.853  19.560  0.00  0.00    +0.000 N 
ATOM      4  H   UNL     1       1.344   8.355  20.440  0.00  0.00    +0.000 HD
ENDROOT
BRANCH   1   7
ATOM      5  C   UNL     1       4.384   5.392  18.124  0.00  0.00    +0.000 A 
ATOM      6  C   UNL     1       3.670   6.572  17.863  0.00  0.00    +0.000 A 
ATOM      7  C   UNL     1       2.667   6.999  18.726  0.00  0.00    +0.000 A 
ATOM      8  C   UNL     1       2.302   6.199  19.803  0.00  0.00    +0.000 A 
ATOM      9  C   UNL     1       2.950   4.978  20.042  0.00  0.00    +0.000 A 
ATOM     10  C   UNL     1       4.002   4.553  19.198  0.00  0.00    +0.000 A 
BRANCH   5  12
ATOM     11  C   UNL     1       5.094   4.388  16.101  0.00  0.00    +0.000 C 
ATOM     12  O   UNL     1       5.444   5.038  17.326  0.00  0.00    +0.000 OA
ENDBRANCH   5  12
BRANCH   9  13
ATOM     13  O   UNL     1       2.432   4.357  21.152  0.00  0.00    +0.000 OA
ATOM     14  C   UNL     1       1.308   3.500  21.020  0.00  0.00    +0.000 C 
ENDBRANCH   9  13
BRANCH  10  15
ATOM     15  O   UNL     1       4.545   3.332  19.493  0.00  0.00    +0.000 OA
ATOM     16  C   UNL     1       3.990   2.136  18.973  0.00  0.00    +0.000 C 
ENDBRANCH  10  15
ENDBRANCH   1   7
BRANCH   3  17
ATOM     17  C   UNL     1       0.803  10.191  19.536  0.00  0.00    +0.000 C 
BRANCH  17  18
ATOM     18  C   UNL     1      -0.715  10.203  19.665  0.00  0.00    +0.000 C 
BRANCH  18  19
ATOM     19  C   UNL     1      -1.344  11.478  19.096  0.00  0.00    +0.000 C 
BRANCH  19  20
ATOM     20  C   UNL     1      -2.227  11.151  17.917  0.00  0.00    +0.000 A 
ATOM     21  C   UNL     1      -3.494  11.737  17.800  0.00  0.00    +0.000 A 
ATOM     22  C   UNL     1      -4.347  11.373  16.758  0.00  0.00    +0.000 A 
ATOM     23  C   UNL     1      -3.941  10.422  15.825  0.00  0.00    +0.000 A 
ATOM     24  C   UNL     1      -2.678   9.840  15.926  0.00  0.00    +0.000 A 
ATOM     25  C   UNL     1      -1.823  10.203  16.967  0.00  0.00    +0.000 A 
ENDBRANCH  19  20
ENDBRANCH  18  19
ENDBRANCH  17  18
ENDBRANCH   3  17
TORSDOF 8
ENDMDL
MODEL 7
REMARK VINA RESULT:      -7.0      1.188      1.188
REMARK  Name = 
REMARK  11 active torsions:
REMARK  status: ('A' for Active; 'I' for Inactive)
REMARK    1  A    between atoms: C_1  and  O_2
REMARK    2  A    between atoms: O_2  and  C_3
REMARK    3  A    between atoms: C_5  and  C_6
REMARK    4  A    between atoms: N_8  and  C_9
REMARK    5  A    between atoms: C_9  and  C_10
REMARK    6  A    between atoms: C_10  and  C_11
REMARK    7  A    between atoms: C_11  and  C_12
REMARK    8  A    between atoms: C_19  and  O_20
REMARK    9  A    between atoms: O_20  and  C_21
REMARK   10  A    between atoms: C_22  and  O_23
REMARK   11  A    between atoms: O_23  and  C_24
REMARK                            x       y       z     vdW  Elec       q    Type
REMARK                         _______ _______ _______ _____ _____    ______ ____
ROOT
ATOM      1  C   UNL     1       6.643   5.581  18.408  0.00  0.00    +0.000 C 
ATOM      2  O   UNL     1       7.664   4.952  18.650  0.00  0.00    +0.000 OA
ATOM      3  N   UNL     1       6.619   6.807  17.775  0.00  0.00    +0.000 N 
ATOM      4  H   UNL     1       5.752   7.324  17.716  0.00  0.00    +0.000 HD
ENDROOT
BRANCH   1   7
ATOM      5  C   UNL     1       3.104   5.633  19.704  0.00  0.00    +0.000 A 
ATOM      6  C   UNL     1       4.416   6.016  19.384  0.00  0.00    +0.000 A 
ATOM      7  C   UNL     1       5.321   5.090  18.879  0.00  0.00    +0.000 A 
ATOM      8  C   UNL     1       4.953   3.753  18.782  0.00  0.00    +0.000 A 
ATOM      9  C   UNL     1       3.671   3.332  19.168  0.00  0.00    +0.000 A 
ATOM     10  C   UNL     1       2.727   4.271  19.642  0.00  0.00    +0.000 A 
BRANCH   5  12
ATOM     11  C   UNL     1       2.142   7.756  19.289  0.00  0.00    +0.000 C 
ATOM     12  O   UNL     1       2.188   6.578  20.098  0.00  0.00    +0.000 OA
ENDBRANCH   5  12
BRANCH   9  13
ATOM     13  O   UNL     1       3.526   1.978  18.990  0.00  0.00    +0.000 OA
ATOM     14  C   UNL     1       2.738   1.489  17.915  0.00  0.00    +0.000 C 
ENDBRANCH   9  13
BRANCH  10  15
ATOM     15  O   UNL     1       1.517   3.757  20.025  0.00  0.00    +0.000 OA
ATOM     16  C   UNL     1       1.351   3.134  21.288  0.00  0.00    +0.000 C 
ENDBRANCH  10  15
ENDBRANCH   1   7
BRANCH   3  17
ATOM     17  C   UNL     1       7.834   7.481  17.364  0.00  0.00    +0.000 C 
BRANCH  17  18
ATOM     18  C   UNL     1       8.382   8.415  18.436  0.00  0.00    +0.000 C 
BRANCH  18  19
ATOM     19  C   UNL     1       8.250   9.892  18.053  0.00  0.00    +0.000 C 
BRANCH  19  20
ATOM     20  C   UNL     1       9.387  10.692  18.636  0.00  0.00    +0.000 A 
ATOM     21  C   UNL     1      10.430  11.141  17.814  0.00  0.00    +0.000 A 
ATOM     22  C   UNL     1      11.525  11.807  18.363  0.00  0.00    +0.000 A 
ATOM     23  C   UNL     1      11.588  12.032  19.737  0.00  0.00    +0.000 A 
ATOM     24  C   UNL     1      10.551  11.600  20.562  0.00  0.00    +0.000 A 
ATOM     25  C   UNL     1       9.454  10.933  20.015  0.00  0.00    +0.000 A 
ENDBRANCH  19  20
ENDBRANCH  18  19
ENDBRANCH  17  18
ENDBRANCH   3  17
TORSDOF 8
ENDMDL
MODEL 8
REMARK VINA RESULT:      -7.0      3.486      8.252
REMARK  Name = 
REMARK  11 active torsions:
REMARK  status: ('A' for Active; 'I' for Inactive)
REMARK    1  A    between atoms: C_1  and  O_2
REMARK    2  A    between atoms: O_2  and  C_3
REMARK    3  A    between atoms: C_5  and  C_6
REMARK    4  A    between atoms: N_8  and  C_9
REMARK    5  A    between atoms: C_9  and  C_10
REMARK    6  A    between atoms: C_10  and  C_11
REMARK    7  A    between atoms: C_11  and  C_12
REMARK    8  A    between atoms: C_19  and  O_20
REMARK    9  A    between atoms: O_20  and  C_21
REMARK   10  A    between atoms: C_22  and  O_23
REMARK   11  A    between atoms: O_23  and  C_24
REMARK                            x       y       z     vdW  Elec       q    Type
REMARK                         _______ _______ _______ _____ _____    ______ ____
ROOT
ATOM      1  C   UNL     1       2.323   7.183  19.238  0.00  0.00    +0.000 C 
ATOM      2  O   UNL     1       1.924   6.687  20.284  0.00  0.00    +0.000 OA
ATOM      3  N   UNL     1       1.968   8.440  18.792  0.00  0.00    +0.000 N 
ATOM      4  H   UNL     1       2.239   8.738  17.863  0.00  0.00    +0.000 HD
ENDROOT
BRANCH   1   7
ATOM      5  C   UNL     1       5.143   6.326  16.888  0.00  0.00    +0.000 A 
ATOM      6  C   UNL     1       4.221   7.048  17.664  0.00  0.00    +0.000 A 
ATOM      7  C   UNL     1       3.171   6.399  18.303  0.00  0.00    +0.000 A 
ATOM      8  C   UNL     1       2.974   5.039  18.091  0.00  0.00    +0.000 A 
ATOM      9  C   UNL     1       3.837   4.311  17.257  0.00  0.00    +0.000 A 
ATOM     10  C   UNL     1       4.935   4.950  16.638  0.00  0.00    +0.000 A 
BRANCH   5  12
ATOM     11  C   UNL     1       7.375   7.043  17.215  0.00  0.00    +0.000 C 
ATOM     12  O   UNL     1       6.237   6.960  16.353  0.00  0.00    +0.000 OA
ENDBRANCH   5  12
BRANCH   9  13
ATOM     13  O   UNL     1       3.457   2.992  17.191  0.00  0.00    +0.000 OA
ATOM     14  C   UNL     1       3.571   2.168  18.341  0.00  0.00    +0.000 C 
ENDBRANCH   9  13
BRANCH  10  15
ATOM     15  O   UNL     1       5.696   4.161  15.817  0.00  0.00    +0.000 OA
ATOM     16  C   UNL     1       5.644   4.302  14.408  0.00  0.00    +0.000 C 
ENDBRANCH  10  15
ENDBRANCH   1   7
BRANCH   3  17
ATOM     17  C   UNL     1       1.049   9.283  19.528  0.00  0.00    +0.000 C 
BRANCH  17  18
ATOM     18  C   UNL     1       0.500  10.430  18.688  0.00  0.00    +0.000 C 
BRANCH  18  19
ATOM     19  C   UNL     1      -0.835  10.961  19.218  0.00  0.00    +0.000 C 
BRANCH  19  20
ATOM     20  C   UNL     1      -1.914  10.815  18.174  0.00  0.00    +0.000 A 
ATOM     21  C   UNL     1      -1.715   9.982  17.065  0.00  0.00    +0.000 A 
ATOM     22  C   UNL     1      -2.674   9.910  16.055  0.00  0.00    +0.000 A 
ATOM     23  C   UNL     1      -3.839  10.668  16.143  0.00  0.00    +0.000 A 
ATOM     24  C   UNL     1      -4.052  11.493  17.248  0.00  0.00    +0.000 A 
ATOM     25  C   UNL     1      -3.094  11.566  18.260  0.00  0.00    +0.000 A 
ENDBRANCH  19  20
ENDBRANCH  18  19
ENDBRANCH  17  18
ENDBRANCH   3  17
TORSDOF 8
ENDMDL
MODEL 9
REMARK VINA RESULT:      -6.9      4.866      8.032
REMARK  Name = 
REMARK  11 active torsions:
REMARK  status: ('A' for Active; 'I' for Inactive)
REMARK    1  A    between atoms: C_1  and  O_2
REMARK    2  A    between atoms: O_2  and  C_3
REMARK    3  A    between atoms: C_5  and  C_6
REMARK    4  A    between atoms: N_8  and  C_9
REMARK    5  A    between atoms: C_9  and  C_10
REMARK    6  A    between atoms: C_10  and  C_11
REMARK    7  A    between atoms: C_11  and  C_12
REMARK    8  A    between atoms: C_19  and  O_20
REMARK    9  A    between atoms: O_20  and  C_21
REMARK   10  A    between atoms: C_22  and  O_23
REMARK   11  A    between atoms: O_23  and  C_24
REMARK                            x       y       z     vdW  Elec       q    Type
REMARK                         _______ _______ _______ _____ _____    ______ ____
ROOT
ATOM      1  C   UNL     1       1.971   7.886  19.622  0.00  0.00    +0.000 C 
ATOM      2  O   UNL     1       1.952   8.698  18.707  0.00  0.00    +0.000 OA
ATOM      3  N   UNL     1       1.527   8.149  20.902  0.00  0.00    +0.000 N 
ATOM      4  H   UNL     1       1.683   7.471  21.636  0.00  0.00    +0.000 HD
ENDROOT
BRANCH   1   7
ATOM      5  C   UNL     1       2.862   4.279  20.258  0.00  0.00    +0.000 A 
ATOM      6  C   UNL     1       2.437   5.604  20.445  0.00  0.00    +0.000 A 
ATOM      7  C   UNL     1       2.581   6.544  19.431  0.00  0.00    +0.000 A 
ATOM      8  C   UNL     1       3.242   6.193  18.259  0.00  0.00    +0.000 A 
ATOM      9  C   UNL     1       3.744   4.895  18.079  0.00  0.00    +0.000 A 
ATOM     10  C   UNL     1       3.564   3.917  19.084  0.00  0.00    +0.000 A 
BRANCH   5  12
ATOM     11  C   UNL     1       1.305   2.761  21.193  0.00  0.00    +0.000 C 
ATOM     12  O   UNL     1       2.614   3.334  21.223  0.00  0.00    +0.000 OA
ENDBRANCH   5  12
BRANCH   9  13
ATOM     13  O   UNL     1       4.357   4.772  16.856  0.00  0.00    +0.000 OA
ATOM     14  C   UNL     1       5.245   5.784  16.407  0.00  0.00    +0.000 C 
ENDBRANCH   9  13
BRANCH  10  15
ATOM     15  O   UNL     1       4.121   2.693  18.828  0.00  0.00    +0.000 OA
ATOM     16  C   UNL     1       3.390   1.680  18.157  0.00  0.00    +0.000 C 
ENDBRANCH  10  15
ENDBRANCH   1   7
BRANCH   3  17
ATOM     17  C   UNL     1       1.018   9.450  21.284  0.00  0.00    +0.000 C 
BRANCH  17  18
ATOM     18  C   UNL     1      -0.375   9.724  20.731  0.00  0.00    +0.000 C 
BRANCH  18  19
ATOM     19  C   UNL     1      -0.449  11.034  19.942  0.00  0.00    +0.000 C 
BRANCH  19  20
ATOM     20  C   UNL     1      -1.425  10.909  18.800  0.00  0.00    +0.000 A 
ATOM     21  C   UNL     1      -2.631  11.623  18.820  0.00  0.00    +0.000 A 
ATOM     22  C   UNL     1      -3.574  11.445  17.808  0.00  0.00    +0.000 A 
ATOM     23  C   UNL     1      -3.321  10.554  16.767  0.00  0.00    +0.000 A 
ATOM     24  C   UNL     1      -2.120   9.846  16.732  0.00  0.00    +0.000 A 
ATOM     25  C   UNL     1      -1.175  10.023  17.743  0.00  0.00    +0.000 A 
ENDBRANCH  19  20
ENDBRANCH  18  19
ENDBRANCH  17  18
ENDBRANCH   3  17
TORSDOF 8
ENDMDL
