MODEL 1
REMARK VINA RESULT:      -7.5      0.000      0.000
REMARK  Name = 
REMARK  3 active torsions:
REMARK  status: ('A' for Active; 'I' for Inactive)
REMARK    1  A    between atoms: S_2  and  C_4
REMARK    2  A    between atoms: S_2  and  N_11
REMARK    3  A    between atoms: C_18  and  C_19
REMARK                            x       y       z     vdW  Elec       q    Type
REMARK                         _______ _______ _______ _____ _____    ______ ____
ROOT
ATOM      1  N   UNL     1       3.841   4.565  18.454  0.00  0.00    +0.000 NA
ATOM      2  C   UNL     1       4.628   4.383  19.696  0.00  0.00    +0.000 C 
ATOM      3  C   UNL     1       4.804   2.843  19.946  0.00  0.00    +0.000 C 
ATOM      4  C   UNL     1       3.971   1.891  19.008  0.00  0.00    +0.000 C 
ATOM      5  C   UNL     1       3.906   2.328  17.490  0.00  0.00    +0.000 C 
ATOM      6  C   UNL     1       4.457   3.735  17.378  0.00  0.00    +0.000 C 
ATOM      7  C   UNL     1       5.650   4.546  16.971  0.00  0.00    +0.000 A 
ATOM      8  C   UNL     1       6.340   4.841  15.774  0.00  0.00    +0.000 A 
ATOM      9  N   UNL     1       7.418   5.619  16.037  0.00  0.00    +0.000 NA
ATOM     10  N   UNL     1       7.402   5.817  17.371  0.00  0.00    +0.000 N 
ATOM     11  C   UNL     1       6.371   5.184  17.980  0.00  0.00    +0.000 A 
ATOM     12  C   UNL     1       6.001   5.167  19.455  0.00  0.00    +0.000 C 
ATOM     13  H   UNL     1       8.131   6.392  17.782  0.00  0.00    +0.000 HD
ENDROOT
BRANCH   8  14
ATOM     14  C   UNL     1       6.002   4.374  14.383  0.00  0.00    +0.000 C 
ATOM     15  F   UNL     1       6.032   3.015  14.287  0.00  0.00    +0.000 F 
ATOM     16  F   UNL     1       4.760   4.762  13.989  0.00  0.00    +0.000 F 
ATOM     17  F   UNL     1       6.879   4.838  13.452  0.00  0.00    +0.000 F 
ENDBRANCH   8  14
BRANCH   1  19
ATOM     18  O   UNL     1       1.633   4.153  19.634  0.00  0.00    +0.000 OA
ATOM     19  S   UNL     1       2.184   4.797  18.459  0.00  0.00    +0.000 S 
ATOM     20  O   UNL     1       1.687   4.504  17.131  0.00  0.00    +0.000 OA
BRANCH  19  21
ATOM     21  C   UNL     1       2.028   6.552  18.694  0.00  0.00    +0.000 A 
ATOM     22  C   UNL     1       2.134   7.402  17.588  0.00  0.00    +0.000 A 
ATOM     23  C   UNL     1       1.975   8.779  17.764  0.00  0.00    +0.000 A 
ATOM     24  C   UNL     1       1.706   9.292  19.034  0.00  0.00    +0.000 A 
ATOM     25 CL   UNL     1       1.521  10.989  19.250  0.00  0.00    +0.000 Cl
ATOM     26  C   UNL     1       1.585   8.440  20.133  0.00  0.00    +0.000 A 
ATOM     27  C   UNL     1       1.742   7.064  19.965  0.00  0.00    +0.000 A 
ENDBRANCH  19  21
ENDBRANCH   1  19
TORSDOF 3
ENDMDL
MODEL 2
REMARK VINA RESULT:      -7.4      0.068      1.209
REMARK  Name = 
REMARK  3 active torsions:
REMARK  status: ('A' for Active; 'I' for Inactive)
REMARK    1  A    between atoms: S_2  and  C_4
REMARK    2  A    between atoms: S_2  and  N_11
REMARK    3  A    between atoms: C_18  and  C_19
REMARK                            x       y       z     vdW  Elec       q    Type
REMARK                         _______ _______ _______ _____ _____    ______ ____
ROOT
ATOM      1  N   UNL     1       3.824   4.519  18.426  0.00  0.00    +0.000 NA
ATOM      2  C   UNL     1       4.611   4.360  19.671  0.00  0.00    +0.000 C 
ATOM      3  C   UNL     1       4.820   2.825  19.929  0.00  0.00    +0.000 C 
ATOM      4  C   UNL     1       4.011   1.851  18.993  0.00  0.00    +0.000 C 
ATOM      5  C   UNL     1       3.940   2.278  17.473  0.00  0.00    +0.000 C 
ATOM      6  C   UNL     1       4.461   3.697  17.356  0.00  0.00    +0.000 C 
ATOM      7  C   UNL     1       5.637   4.531  16.948  0.00  0.00    +0.000 A 
ATOM      8  C   UNL     1       6.324   4.834  15.750  0.00  0.00    +0.000 A 
ATOM      9  N   UNL     1       7.384   5.637  16.012  0.00  0.00    +0.000 NA
ATOM     10  N   UNL     1       7.360   5.842  17.345  0.00  0.00    +0.000 N 
ATOM     11  C   UNL     1       6.341   5.190  17.954  0.00  0.00    +0.000 A 
ATOM     12  C   UNL     1       5.968   5.173  19.429  0.00  0.00    +0.000 C 
ATOM     13  H   UNL     1       8.076   6.434  17.755  0.00  0.00    +0.000 HD
ENDROOT
BRANCH   8  14
ATOM     14  C   UNL     1       5.999   4.354  14.361  0.00  0.00    +0.000 C 
ATOM     15  F   UNL     1       6.880   4.840  13.442  0.00  0.00    +0.000 F 
ATOM     16  F   UNL     1       6.038   2.999  14.255  0.00  0.00    +0.000 F 
ATOM     17  F   UNL     1       4.765   4.751  13.949  0.00  0.00    +0.000 F 
ENDBRANCH   8  14
BRANCH   1  19
ATOM     18  O   UNL     1       1.622   4.065  19.602  0.00  0.00    +0.000 OA
ATOM     19  S   UNL     1       2.163   4.715  18.425  0.00  0.00    +0.000 S 
ATOM     20  O   UNL     1       1.676   4.405  17.097  0.00  0.00    +0.000 OA
BRANCH  19  21
ATOM     21  C   UNL     1       1.968   6.468  18.650  0.00  0.00    +0.000 A 
ATOM     22  C   UNL     1       1.740   6.972  19.934  0.00  0.00    +0.000 A 
ATOM     23  C   UNL     1       1.623   8.351  20.120  0.00  0.00    +0.000 A 
ATOM     24  C   UNL     1       1.743   9.213  19.027  0.00  0.00    +0.000 A 
ATOM     25 CL   UNL     1       1.589  10.911  19.255  0.00  0.00    +0.000 Cl
ATOM     26  C   UNL     1       1.987   8.708  17.748  0.00  0.00    +0.000 A 
ATOM     27  C   UNL     1       2.105   7.331  17.557  0.00  0.00    +0.000 A 
ENDBRANCH  19  21
ENDBRANCH   1  19
TORSDOF 3
ENDMDL
MODEL 3
REMARK VINA RESULT:      -6.7      9.047     11.036
REMARK  Name = 
REMARK  3 active torsions:
REMARK  status: ('A' for Active; 'I' for Inactive)
REMARK    1  A    between atoms: S_2  and  C_4
REMARK    2  A    between atoms: S_2  and  N_11
REMARK    3  A    between atoms: C_18  and  C_19
REMARK                            x       y       z     vdW  Elec       q    Type
REMARK                         _______ _______ _______ _____ _____    ______ ____
ROOT
ATOM      1  N   UNL     1      -3.101  13.343  21.063  0.00  0.00    +0.000 NA
ATOM      2  C   UNL     1      -2.649  14.748  21.184  0.00  0.00    +0.000 C 
ATOM      3  C   UNL     1      -2.987  15.251  22.632  0.00  0.00    +0.000 C 
ATOM      4  C   UNL     1      -3.875  14.290  23.508  0.00  0.00    +0.000 C 
ATOM      5  C   UNL     1      -3.525  12.753  23.389  0.00  0.00    +0.000 C 
ATOM      6  C   UNL     1      -2.570  12.573  22.226  0.00  0.00    +0.000 C 
ATOM      7  C   UNL     1      -1.137  12.347  21.852  0.00  0.00    +0.000 A 
ATOM      8  C   UNL     1      -0.181  11.316  21.997  0.00  0.00    +0.000 A 
ATOM      9  N   UNL     1       1.011  11.712  21.487  0.00  0.00    +0.000 NA
ATOM     10  N   UNL     1       0.807  12.961  21.022  0.00  0.00    +0.000 N 
ATOM     11  C   UNL     1      -0.460  13.394  21.229  0.00  0.00    +0.000 A 
ATOM     12  C   UNL     1      -1.085  14.727  20.847  0.00  0.00    +0.000 C 
ATOM     13  H   UNL     1       1.584  13.446  20.584  0.00  0.00    +0.000 HD
ENDROOT
BRANCH   8  14
ATOM     14  C   UNL     1      -0.378   9.967  22.635  0.00  0.00    +0.000 C 
ATOM     15  F   UNL     1      -0.673   9.012  21.708  0.00  0.00    +0.000 F 
ATOM     16  F   UNL     1       0.727   9.536  23.298  0.00  0.00    +0.000 F 
ATOM     17  F   UNL     1      -1.406   9.959  23.526  0.00  0.00    +0.000 F 
ENDBRANCH   8  14
BRANCH   1  19
ATOM     18  O   UNL     1      -5.300  14.137  20.075  0.00  0.00    +0.000 OA
ATOM     19  S   UNL     1      -4.586  12.923  20.415  0.00  0.00    +0.000 S 
ATOM     20  O   UNL     1      -5.175  11.910  21.265  0.00  0.00    +0.000 OA
BRANCH  19  21
ATOM     21  C   UNL     1      -4.143  12.123  18.890  0.00  0.00    +0.000 A 
ATOM     22  C   UNL     1      -5.121  11.929  17.910  0.00  0.00    +0.000 A 
ATOM     23  C   UNL     1      -4.769  11.334  16.696  0.00  0.00    +0.000 A 
ATOM     24  C   UNL     1      -3.446  10.946  16.470  0.00  0.00    +0.000 A 
ATOM     25 CL   UNL     1      -3.015  10.204  14.978  0.00  0.00    +0.000 Cl
ATOM     26  C   UNL     1      -2.468  11.157  17.443  0.00  0.00    +0.000 A 
ATOM     27  C   UNL     1      -2.814  11.751  18.657  0.00  0.00    +0.000 A 
ENDBRANCH  19  21
ENDBRANCH   1  19
TORSDOF 3
ENDMDL
MODEL 4
REMARK VINA RESULT:      -6.6      8.950     10.923
REMARK  Name = 
REMARK  3 active torsions:
REMARK  status: ('A' for Active; 'I' for Inactive)
REMARK    1  A    between atoms: S_2  and  C_4
REMARK    2  A    between atoms: S_2  and  N_11
REMARK    3  A    between atoms: C_18  and  C_19
REMARK                            x       y       z     vdW  Elec       q    Type
REMARK                         _______ _______ _______ _____ _____    ______ ____
ROOT
ATOM      1  N   UNL     1      -2.952  13.298  21.029  0.00  0.00    +0.000 NA
ATOM      2  C   UNL     1      -2.446  14.688  21.119  0.00  0.00    +0.000 C 
ATOM      3  C   UNL     1      -2.743  15.227  22.564  0.00  0.00    +0.000 C 
ATOM      4  C   UNL     1      -3.653  14.314  23.468  0.00  0.00    +0.000 C 
ATOM      5  C   UNL     1      -3.362  12.763  23.371  0.00  0.00    +0.000 C 
ATOM      6  C   UNL     1      -2.432  12.529  22.197  0.00  0.00    +0.000 C 
ATOM      7  C   UNL     1      -1.014  12.243  21.806  0.00  0.00    +0.000 A 
ATOM      8  C   UNL     1      -0.095  11.180  21.955  0.00  0.00    +0.000 A 
ATOM      9  N   UNL     1       1.103  11.522  21.421  0.00  0.00    +0.000 NA
ATOM     10  N   UNL     1       0.939  12.771  20.938  0.00  0.00    +0.000 N 
ATOM     11  C   UNL     1      -0.308  13.254  21.156  0.00  0.00    +0.000 A 
ATOM     12  C   UNL     1      -0.889  14.603  20.760  0.00  0.00    +0.000 C 
ATOM     13  H   UNL     1       1.727  13.219  20.480  0.00  0.00    +0.000 HD
ENDROOT
BRANCH   8  14
ATOM     14  C   UNL     1      -0.332   9.850  22.618  0.00  0.00    +0.000 C 
ATOM     15  F   UNL     1       0.772   9.418  23.290  0.00  0.00    +0.000 F 
ATOM     16  F   UNL     1      -1.345   9.891  23.524  0.00  0.00    +0.000 F 
ATOM     17  F   UNL     1      -0.637   8.871  21.724  0.00  0.00    +0.000 F 
ENDBRANCH   8  14
BRANCH   1  19
ATOM     18  O   UNL     1      -5.158  14.159  20.118  0.00  0.00    +0.000 OA
ATOM     19  S   UNL     1      -4.460  12.924  20.409  0.00  0.00    +0.000 S 
ATOM     20  O   UNL     1      -5.048  11.902  21.250  0.00  0.00    +0.000 OA
BRANCH  19  21
ATOM     21  C   UNL     1      -4.073  12.153  18.854  0.00  0.00    +0.000 A 
ATOM     22  C   UNL     1      -2.762  11.733  18.607  0.00  0.00    +0.000 A 
ATOM     23  C   UNL     1      -2.462  11.095  17.401  0.00  0.00    +0.000 A 
ATOM     24  C   UNL     1      -3.471  10.876  16.460  0.00  0.00    +0.000 A 
ATOM     25 CL   UNL     1      -3.098  10.098  14.972  0.00  0.00    +0.000 Cl
ATOM     26  C   UNL     1      -4.782  11.281  16.717  0.00  0.00    +0.000 A 
ATOM     27  C   UNL     1      -5.087  11.920  17.919  0.00  0.00    +0.000 A 
ENDBRANCH  19  21
ENDBRANCH   1  19
TORSDOF 3
ENDMDL
MODEL 5
REMARK VINA RESULT:      -6.4      8.630     10.984
REMARK  Name = 
REMARK  3 active torsions:
REMARK  status: ('A' for Active; 'I' for Inactive)
REMARK    1  A    between atoms: S_2  and  C_4
REMARK    2  A    between atoms: S_2  and  N_11
REMARK    3  A    between atoms: C_18  and  C_19
REMARK                            x       y       z     vdW  Elec       q    Type
REMARK                         _______ _______ _______ _____ _____    ______ ____
ROOT
ATOM      1  N   UNL     1      -0.173  12.212  19.692  0.00  0.00    +0.000 NA
ATOM      2  C   UNL     1      -0.604  11.470  18.484  0.00  0.00    +0.000 C 
ATOM      3  C   UNL     1      -0.426   9.935  18.760  0.00  0.00    +0.000 C 
ATOM      4  C   UNL     1       0.333   9.554  20.086  0.00  0.00    +0.000 C 
ATOM      5  C   UNL     1      -0.035  10.430  21.349  0.00  0.00    +0.000 C 
ATOM      6  C   UNL     1      -0.852  11.618  20.880  0.00  0.00    +0.000 C 
ATOM      7  C   UNL     1      -2.237  12.183  20.792  0.00  0.00    +0.000 A 
ATOM      8  C   UNL     1      -3.226  12.640  21.692  0.00  0.00    +0.000 A 
ATOM      9  N   UNL     1      -4.342  13.002  21.012  0.00  0.00    +0.000 NA
ATOM     10  N   UNL     1      -4.058  12.786  19.712  0.00  0.00    +0.000 N 
ATOM     11  C   UNL     1      -2.814  12.282  19.527  0.00  0.00    +0.000 A 
ATOM     12  C   UNL     1      -2.119  11.915  18.224  0.00  0.00    +0.000 C 
ATOM     13  H   UNL     1      -4.768  13.005  19.020  0.00  0.00    +0.000 HD
ENDROOT
BRANCH   8  14
ATOM     14  C   UNL     1      -3.135  12.717  23.192  0.00  0.00    +0.000 C 
ATOM     15  F   UNL     1      -2.764  11.523  23.735  0.00  0.00    +0.000 F 
ATOM     16  F   UNL     1      -2.224  13.634  23.614  0.00  0.00    +0.000 F 
ATOM     17  F   UNL     1      -4.323  13.041  23.769  0.00  0.00    +0.000 F 
ENDBRANCH   8  14
BRANCH   1  19
ATOM     18  O   UNL     1       2.259  12.129  18.973  0.00  0.00    +0.000 OA
ATOM     19  S   UNL     1       1.367  12.844  19.862  0.00  0.00    +0.000 S 
ATOM     20  O   UNL     1       1.646  12.967  21.278  0.00  0.00    +0.000 OA
BRANCH  19  21
ATOM     21  C   UNL     1       1.193  14.495  19.225  0.00  0.00    +0.000 A 
ATOM     22  C   UNL     1       2.335  15.205  18.844  0.00  0.00    +0.000 A 
ATOM     23  C   UNL     1       2.199  16.489  18.310  0.00  0.00    +0.000 A 
ATOM     24  C   UNL     1       0.927  17.046  18.154  0.00  0.00    +0.000 A 
ATOM     25 CL   UNL     1       0.762  18.631  17.505  0.00  0.00    +0.000 Cl
ATOM     26  C   UNL     1      -0.213  16.328  18.519  0.00  0.00    +0.000 A 
ATOM     27  C   UNL     1      -0.083  15.046  19.054  0.00  0.00    +0.000 A 
ENDBRANCH  19  21
ENDBRANCH   1  19
TORSDOF 3
ENDMDL
MODEL 6
REMARK VINA RESULT:      -6.4      9.412     11.551
REMARK  Name = 
REMARK  3 active torsions:
REMARK  status: ('A' for Active; 'I' for Inactive)
REMARK    1  A    between atoms: S_2  and  C_4
REMARK    2  A    between atoms: S_2  and  N_11
REMARK    3  A    between atoms: C_18  and  C_19
REMARK                            x       y       z     vdW  Elec       q    Type
REMARK                         _______ _______ _______ _____ _____    ______ ____
ROOT
ATOM      1  N   UNL     1      -0.493  12.705  20.638  0.00  0.00    +0.000 NA
ATOM      2  C   UNL     1      -0.394  11.770  19.493  0.00  0.00    +0.000 C 
ATOM      3  C   UNL     1      -0.134  10.328  20.057  0.00  0.00    +0.000 C 
ATOM      4  C   UNL     1       0.168  10.232  21.599  0.00  0.00    +0.000 C 
ATOM      5  C   UNL     1      -0.713  11.169  22.518  0.00  0.00    +0.000 C 
ATOM      6  C   UNL     1      -1.459  12.142  21.626  0.00  0.00    +0.000 C 
ATOM      7  C   UNL     1      -2.789  12.451  21.009  0.00  0.00    +0.000 A 
ATOM      8  C   UNL     1      -4.074  12.833  21.459  0.00  0.00    +0.000 A 
ATOM      9  N   UNL     1      -4.926  12.923  20.408  0.00  0.00    +0.000 NA
ATOM     10  N   UNL     1      -4.192  12.614  19.321  0.00  0.00    +0.000 N 
ATOM     11  C   UNL     1      -2.908  12.310  19.627  0.00  0.00    +0.000 A 
ATOM     12  C   UNL     1      -1.771  11.922  18.693  0.00  0.00    +0.000 C 
ATOM     13  H   UNL     1      -4.645  12.631  18.412  0.00  0.00    +0.000 HD
ENDROOT
BRANCH   8  14
ATOM     14  C   UNL     1      -4.509  13.092  22.876  0.00  0.00    +0.000 C 
ATOM     15  F   UNL     1      -5.859  12.978  23.016  0.00  0.00    +0.000 F 
ATOM     16  F   UNL     1      -3.953  12.222  23.761  0.00  0.00    +0.000 F 
ATOM     17  F   UNL     1      -4.190  14.346  23.296  0.00  0.00    +0.000 F 
ENDBRANCH   8  14
BRANCH   1  19
ATOM     18  O   UNL     1       2.015  12.824  21.004  0.00  0.00    +0.000 OA
ATOM     19  S   UNL     1       0.807  13.603  21.188  0.00  0.00    +0.000 S 
ATOM     20  O   UNL     1       0.453  14.161  22.477  0.00  0.00    +0.000 OA
BRANCH  19  21
ATOM     21  C   UNL     1       0.870  14.958  20.038  0.00  0.00    +0.000 A 
ATOM     22  C   UNL     1       2.110  15.493  19.677  0.00  0.00    +0.000 A 
ATOM     23  C   UNL     1       2.165  16.533  18.747  0.00  0.00    +0.000 A 
ATOM     24  C   UNL     1       0.986  17.024  18.182  0.00  0.00    +0.000 A 
ATOM     25 CL   UNL     1       1.054  18.312  17.044  0.00  0.00    +0.000 Cl
ATOM     26  C   UNL     1      -0.250  16.477  18.531  0.00  0.00    +0.000 A 
ATOM     27  C   UNL     1      -0.312  15.438  19.460  0.00  0.00    +0.000 A 
ENDBRANCH  19  21
ENDBRANCH   1  19
TORSDOF 3
ENDMDL
MODEL 7
REMARK VINA RESULT:      -6.4      9.324     11.480
REMARK  Name = 
REMARK  3 active torsions:
REMARK  status: ('A' for Active; 'I' for Inactive)
REMARK    1  A    between atoms: S_2  and  C_4
REMARK    2  A    between atoms: S_2  and  N_11
REMARK    3  A    between atoms: C_18  and  C_19
REMARK                            x       y       z     vdW  Elec       q    Type
REMARK                         _______ _______ _______ _____ _____    ______ ____
ROOT
ATOM      1  N   UNL     1      -0.349  12.716  20.583  0.00  0.00    +0.000 NA
ATOM      2  C   UNL     1      -0.246  11.779  19.440  0.00  0.00    +0.000 C 
ATOM      3  C   UNL     1       0.043  10.343  20.006  0.00  0.00    +0.000 C 
ATOM      4  C   UNL     1       0.362  10.257  21.545  0.00  0.00    +0.000 C 
ATOM      5  C   UNL     1      -0.525  11.183  22.470  0.00  0.00    +0.000 C 
ATOM      6  C   UNL     1      -1.296  12.140  21.582  0.00  0.00    +0.000 C 
ATOM      7  C   UNL     1      -2.636  12.425  20.978  0.00  0.00    +0.000 A 
ATOM      8  C   UNL     1      -3.923  12.787  21.438  0.00  0.00    +0.000 A 
ATOM      9  N   UNL     1      -4.787  12.860  20.396  0.00  0.00    +0.000 NA
ATOM     10  N   UNL     1      -4.058  12.559  19.303  0.00  0.00    +0.000 N 
ATOM     11  C   UNL     1      -2.766  12.277  19.598  0.00  0.00    +0.000 A 
ATOM     12  C   UNL     1      -1.633  11.905  18.654  0.00  0.00    +0.000 C 
ATOM     13  H   UNL     1      -4.520  12.565  18.398  0.00  0.00    +0.000 HD
ENDROOT
BRANCH   8  14
ATOM     14  C   UNL     1      -4.348  13.044  22.859  0.00  0.00    +0.000 C 
ATOM     15  F   UNL     1      -3.782  12.154  23.722  0.00  0.00    +0.000 F 
ATOM     16  F   UNL     1      -3.996  14.283  23.295  0.00  0.00    +0.000 F 
ATOM     17  F   UNL     1      -5.693  12.930  23.027  0.00  0.00    +0.000 F 
ENDBRANCH   8  14
BRANCH   1  19
ATOM     18  O   UNL     1       2.158  12.869  20.944  0.00  0.00    +0.000 OA
ATOM     19  S   UNL     1       0.942  13.637  21.117  0.00  0.00    +0.000 S 
ATOM     20  O   UNL     1       0.583  14.211  22.397  0.00  0.00    +0.000 OA
BRANCH  19  21
ATOM     21  C   UNL     1       0.988  14.974  19.946  0.00  0.00    +0.000 A 
ATOM     22  C   UNL     1      -0.212  15.472  19.428  0.00  0.00    +0.000 A 
ATOM     23  C   UNL     1      -0.182  16.546  18.536  0.00  0.00    +0.000 A 
ATOM     24  C   UNL     1       1.041  17.117  18.177  0.00  0.00    +0.000 A 
ATOM     25 CL   UNL     1       1.078  18.434  17.070  0.00  0.00    +0.000 Cl
ATOM     26  C   UNL     1       2.236  16.630  18.708  0.00  0.00    +0.000 A 
ATOM     27  C   UNL     1       2.212  15.556  19.599  0.00  0.00    +0.000 A 
ENDBRANCH  19  21
ENDBRANCH   1  19
TORSDOF 3
ENDMDL
MODEL 8
REMARK VINA RESULT:      -6.4      8.989     11.263
REMARK  Name = 
REMARK  3 active torsions:
REMARK  status: ('A' for Active; 'I' for Inactive)
REMARK    1  A    between atoms: S_2  and  C_4
REMARK    2  A    between atoms: S_2  and  N_11
REMARK    3  A    between atoms: C_18  and  C_19
REMARK                            x       y       z     vdW  Elec       q    Type
REMARK                         _______ _______ _______ _____ _____    ______ ____
ROOT
ATOM      1  N   UNL     1      -0.347  12.373  19.969  0.00  0.00    +0.000 NA
ATOM      2  C   UNL     1      -0.688  11.521  18.806  0.00  0.00    +0.000 C 
ATOM      3  C   UNL     1      -0.479  10.020  19.217  0.00  0.00    +0.000 C 
ATOM      4  C   UNL     1       0.216   9.775  20.608  0.00  0.00    +0.000 C 
ATOM      5  C   UNL     1      -0.248  10.737  21.773  0.00  0.00    +0.000 C 
ATOM      6  C   UNL     1      -1.073  11.854  21.165  0.00  0.00    +0.000 C 
ATOM      7  C   UNL     1      -2.467  12.361  20.957  0.00  0.00    +0.000 A 
ATOM      8  C   UNL     1      -3.518  12.856  21.762  0.00  0.00    +0.000 A 
ATOM      9  N   UNL     1      -4.605  13.123  20.997  0.00  0.00    +0.000 NA
ATOM     10  N   UNL     1      -4.242  12.813  19.736  0.00  0.00    +0.000 N 
ATOM     11  C   UNL     1      -2.975  12.339  19.659  0.00  0.00    +0.000 A 
ATOM     12  C   UNL     1      -2.198  11.892  18.430  0.00  0.00    +0.000 C 
ATOM     13  H   UNL     1      -4.919  12.951  18.992  0.00  0.00    +0.000 HD
ENDROOT
BRANCH   8  14
ATOM     14  C   UNL     1      -3.512  13.057  23.254  0.00  0.00    +0.000 C 
ATOM     15  F   UNL     1      -2.453  13.815  23.655  0.00  0.00    +0.000 F 
ATOM     16  F   UNL     1      -4.631  13.688  23.701  0.00  0.00    +0.000 F 
ATOM     17  F   UNL     1      -3.417  11.883  23.936  0.00  0.00    +0.000 F 
ENDBRANCH   8  14
BRANCH   1  19
ATOM     18  O   UNL     1       2.131  12.285  19.431  0.00  0.00    +0.000 OA
ATOM     19  S   UNL     1       1.162  13.069  20.168  0.00  0.00    +0.000 S 
ATOM     20  O   UNL     1       1.337  13.364  21.575  0.00  0.00    +0.000 OA
BRANCH  19  21
ATOM     21  C   UNL     1       0.994  14.629  19.331  0.00  0.00    +0.000 A 
ATOM     22  C   UNL     1      -0.280  15.184  19.167  0.00  0.00    +0.000 A 
ATOM     23  C   UNL     1      -0.411  16.426  18.542  0.00  0.00    +0.000 A 
ATOM     24  C   UNL     1       0.725  17.105  18.096  0.00  0.00    +0.000 A 
ATOM     25 CL   UNL     1       0.560  18.631  17.319  0.00  0.00    +0.000 Cl
ATOM     26  C   UNL     1       1.996  16.557  18.277  0.00  0.00    +0.000 A 
ATOM     27  C   UNL     1       2.134  15.316  18.900  0.00  0.00    +0.000 A 
ENDBRANCH  19  21
ENDBRANCH   1  19
TORSDOF 3
ENDMDL
MODEL 9
REMARK VINA RESULT:      -6.3      8.343      9.811
REMARK  Name = 
REMARK  3 active torsions:
REMARK  status: ('A' for Active; 'I' for Inactive)
REMARK    1  A    between atoms: S_2  and  C_4
REMARK    2  A    between atoms: S_2  and  N_11
REMARK    3  A    between atoms: C_18  and  C_19
REMARK                            x       y       z     vdW  Elec       q    Type
REMARK                         _______ _______ _______ _____ _____    ______ ____
ROOT
ATOM      1  N   UNL     1      -0.055  12.275  20.389  0.00  0.00    +0.000 NA
ATOM      2  C   UNL     1       0.841  11.129  20.675  0.00  0.00    +0.000 C 
ATOM      3  C   UNL     1       0.312  10.402  21.962  0.00  0.00    +0.000 C 
ATOM      4  C   UNL     1      -0.844  11.131  22.743  0.00  0.00    +0.000 C 
ATOM      5  C   UNL     1      -1.955  11.797  21.837  0.00  0.00    +0.000 C 
ATOM      6  C   UNL     1      -1.465  11.788  20.403  0.00  0.00    +0.000 C 
ATOM      7  C   UNL     1      -1.597  11.104  19.077  0.00  0.00    +0.000 A 
ATOM      8  C   UNL     1      -2.596  10.948  18.088  0.00  0.00    +0.000 A 
ATOM      9  N   UNL     1      -2.143  10.151  17.090  0.00  0.00    +0.000 NA
ATOM     10  N   UNL     1      -0.883   9.818  17.439  0.00  0.00    +0.000 N 
ATOM     11  C   UNL     1      -0.512  10.352  18.627  0.00  0.00    +0.000 A 
ATOM     12  C   UNL     1       0.817  10.225  19.356  0.00  0.00    +0.000 C 
ATOM     13  H   UNL     1      -0.350   9.223  16.812  0.00  0.00    +0.000 HD
ENDROOT
BRANCH   8  14
ATOM     14  C   UNL     1      -3.984  11.530  18.089  0.00  0.00    +0.000 C 
ATOM     15  F   UNL     1      -4.926  10.583  18.359  0.00  0.00    +0.000 F 
ATOM     16  F   UNL     1      -4.140  12.508  19.021  0.00  0.00    +0.000 F 
ATOM     17  F   UNL     1      -4.323  12.067  16.886  0.00  0.00    +0.000 F 
ENDBRANCH   8  14
BRANCH   1  19
ATOM     18  O   UNL     1       0.577  13.796  22.319  0.00  0.00    +0.000 OA
ATOM     19  S   UNL     1       0.277  13.832  20.902  0.00  0.00    +0.000 S 
ATOM     20  O   UNL     1      -0.744  14.708  20.366  0.00  0.00    +0.000 OA
BRANCH  19  21
ATOM     21  C   UNL     1       1.789  14.219  20.049  0.00  0.00    +0.000 A 
ATOM     22  C   UNL     1       2.941  14.496  20.791  0.00  0.00    +0.000 A 
ATOM     23  C   UNL     1       4.139  14.765  20.123  0.00  0.00    +0.000 A 
ATOM     24  C   UNL     1       4.176  14.747  18.727  0.00  0.00    +0.000 A 
ATOM     25 CL   UNL     1       5.649  15.088  17.907  0.00  0.00    +0.000 Cl
ATOM     26  C   UNL     1       3.028  14.454  17.989  0.00  0.00    +0.000 A 
ATOM     27  C   UNL     1       1.829  14.185  18.650  0.00  0.00    +0.000 A 
ENDBRANCH  19  21
ENDBRANCH   1  19
TORSDOF 3
ENDMDL
