MODEL 1
REMARK VINA RESULT:      -7.1      0.000      0.000
REMARK  Name = 
REMARK  5 active torsions:
REMARK  status: ('A' for Active; 'I' for Inactive)
REMARK    1  A    between atoms: C_1  and  N_2
REMARK    2  A    between atoms: C_3  and  S_4
REMARK    3  A    between atoms: S_4  and  C_5
REMARK    4  A    between atoms: C_5  and  C_6
REMARK    5  A    between atoms: C_9  and  C_10
REMARK                            x       y       z     vdW  Elec       q    Type
REMARK                         _______ _______ _______ _____ _____    ______ ____
ROOT
ATOM      1  S   UNL     1       3.685   2.141  18.117  0.00  0.00    +0.000 S 
ENDROOT
BRANCH   1   4
ATOM      2  C   UNL     1       4.645   4.098  15.696  0.00  0.00    +0.000 C 
ATOM      3  N   UNL     1       5.125   4.221  17.051  0.00  0.00    +0.000 N 
ATOM      4  C   UNL     1       4.774   3.493  18.162  0.00  0.00    +0.000 A 
ATOM      5  N   UNL     1       5.393   3.919  19.238  0.00  0.00    +0.000 NA
ATOM      6  C   UNL     1       6.231   4.917  18.804  0.00  0.00    +0.000 A 
ATOM      7  C   UNL     1       7.160   5.684  19.524  0.00  0.00    +0.000 A 
ATOM      8  C   UNL     1       7.934   6.631  18.839  0.00  0.00    +0.000 A 
ATOM      9  C   UNL     1       7.776   6.823  17.466  0.00  0.00    +0.000 A 
ATOM     10  C   UNL     1       6.843   6.081  16.733  0.00  0.00    +0.000 A 
ATOM     11  C   UNL     1       6.091   5.129  17.436  0.00  0.00    +0.000 A 
ENDBRANCH   1   4
BRANCH   1  12
ATOM     12  C   UNL     1       2.076   2.975  17.869  0.00  0.00    +0.000 C 
BRANCH  12  13
ATOM     13  C   UNL     1       1.936   4.233  18.715  0.00  0.00    +0.000 A 
ATOM     14  C   UNL     1       2.218   5.485  18.129  0.00  0.00    +0.000 A 
ATOM     15  C   UNL     1       2.110   6.673  18.859  0.00  0.00    +0.000 A 
ATOM     16  C   UNL     1       1.732   6.640  20.201  0.00  0.00    +0.000 A 
ATOM     17  C   UNL     1       1.475   5.409  20.810  0.00  0.00    +0.000 A 
ATOM     18  C   UNL     1       1.580   4.218  20.074  0.00  0.00    +0.000 A 
ATOM     19 CL   UNL     1       1.268   2.750  20.934  0.00  0.00    +0.000 Cl
BRANCH  16  20
ATOM     20  C   UNL     1       1.613   7.859  20.951  0.00  0.00    +0.000 C 
ATOM     21  N   UNL     1       1.519   8.845  21.554  0.00  0.00    +0.000 NA
ENDBRANCH  16  20
ENDBRANCH  12  13
ENDBRANCH   1  12
TORSDOF 4
ENDMDL
MODEL 2
REMARK VINA RESULT:      -7.0      3.047      4.490
REMARK  Name = 
REMARK  5 active torsions:
REMARK  status: ('A' for Active; 'I' for Inactive)
REMARK    1  A    between atoms: C_1  and  N_2
REMARK    2  A    between atoms: C_3  and  S_4
REMARK    3  A    between atoms: S_4  and  C_5
REMARK    4  A    between atoms: C_5  and  C_6
REMARK    5  A    between atoms: C_9  and  C_10
REMARK                            x       y       z     vdW  Elec       q    Type
REMARK                         _______ _______ _______ _____ _____    ______ ____
ROOT
ATOM      1  S   UNL     1       6.801   5.429  17.820  0.00  0.00    +0.000 S 
ENDROOT
BRANCH   1   4
ATOM      2  C   UNL     1       4.836   3.446  16.140  0.00  0.00    +0.000 C 
ATOM      3  N   UNL     1       5.893   4.216  15.531  0.00  0.00    +0.000 N 
ATOM      4  C   UNL     1       6.757   5.111  16.114  0.00  0.00    +0.000 A 
ATOM      5  N   UNL     1       7.564   5.654  15.231  0.00  0.00    +0.000 NA
ATOM      6  C   UNL     1       7.262   5.042  14.039  0.00  0.00    +0.000 A 
ATOM      7  C   UNL     1       7.851   5.203  12.775  0.00  0.00    +0.000 A 
ATOM      8  C   UNL     1       7.383   4.427  11.705  0.00  0.00    +0.000 A 
ATOM      9  C   UNL     1       6.339   3.519  11.886  0.00  0.00    +0.000 A 
ATOM     10  C   UNL     1       5.727   3.357  13.134  0.00  0.00    +0.000 A 
ATOM     11  C   UNL     1       6.221   4.132  14.192  0.00  0.00    +0.000 A 
ENDBRANCH   1   4
BRANCH   1  12
ATOM     12  C   UNL     1       5.177   6.231  18.084  0.00  0.00    +0.000 C 
BRANCH  12  13
ATOM     13  C   UNL     1       4.272   5.426  19.005  0.00  0.00    +0.000 A 
ATOM     14  C   UNL     1       4.642   4.107  19.343  0.00  0.00    +0.000 A 
ATOM     15  C   UNL     1       3.848   3.319  20.183  0.00  0.00    +0.000 A 
ATOM     16  C   UNL     1       2.652   3.823  20.695  0.00  0.00    +0.000 A 
ATOM     17  C   UNL     1       2.253   5.116  20.351  0.00  0.00    +0.000 A 
ATOM     18  C   UNL     1       3.054   5.908  19.511  0.00  0.00    +0.000 A 
ATOM     19 CL   UNL     1       2.449   7.482  19.127  0.00  0.00    +0.000 Cl
BRANCH  16  20
ATOM     20  C   UNL     1       1.839   3.019  21.562  0.00  0.00    +0.000 C 
ATOM     21  N   UNL     1       1.184   2.370  22.265  0.00  0.00    +0.000 NA
ENDBRANCH  16  20
ENDBRANCH  12  13
ENDBRANCH   1  12
TORSDOF 4
ENDMDL
MODEL 3
REMARK VINA RESULT:      -6.8      3.181      7.284
REMARK  Name = 
REMARK  5 active torsions:
REMARK  status: ('A' for Active; 'I' for Inactive)
REMARK    1  A    between atoms: C_1  and  N_2
REMARK    2  A    between atoms: C_3  and  S_4
REMARK    3  A    between atoms: S_4  and  C_5
REMARK    4  A    between atoms: C_5  and  C_6
REMARK    5  A    between atoms: C_9  and  C_10
REMARK                            x       y       z     vdW  Elec       q    Type
REMARK                         _______ _______ _______ _____ _____    ______ ____
ROOT
ATOM      1  S   UNL     1       2.169   8.935  18.120  0.00  0.00    +0.000 S 
ENDROOT
BRANCH   1   4
ATOM      2  C   UNL     1       1.110  11.952  18.746  0.00  0.00    +0.000 C 
ATOM      3  N   UNL     1       0.847  10.825  19.608  0.00  0.00    +0.000 N 
ATOM      4  C   UNL     1       1.198   9.508  19.440  0.00  0.00    +0.000 A 
ATOM      5  N   UNL     1       0.748   8.756  20.418  0.00  0.00    +0.000 NA
ATOM      6  C   UNL     1       0.138   9.623  21.292  0.00  0.00    +0.000 A 
ATOM      7  C   UNL     1      -0.471   9.368  22.531  0.00  0.00    +0.000 A 
ATOM      8  C   UNL     1      -0.998  10.442  23.262  0.00  0.00    +0.000 A 
ATOM      9  C   UNL     1      -0.934  11.744  22.763  0.00  0.00    +0.000 A 
ATOM     10  C   UNL     1      -0.348  12.017  21.522  0.00  0.00    +0.000 A 
ATOM     11  C   UNL     1       0.186  10.930  20.816  0.00  0.00    +0.000 A 
ENDBRANCH   1   4
BRANCH   1  12
ATOM     12  C   UNL     1       2.083   7.123  18.362  0.00  0.00    +0.000 C 
BRANCH  12  13
ATOM     13  C   UNL     1       3.450   6.459  18.279  0.00  0.00    +0.000 A 
ATOM     14  C   UNL     1       4.337   6.847  17.252  0.00  0.00    +0.000 A 
ATOM     15  C   UNL     1       5.604   6.269  17.125  0.00  0.00    +0.000 A 
ATOM     16  C   UNL     1       6.013   5.273  18.012  0.00  0.00    +0.000 A 
ATOM     17  C   UNL     1       5.141   4.853  19.019  0.00  0.00    +0.000 A 
ATOM     18  C   UNL     1       3.870   5.438  19.148  0.00  0.00    +0.000 A 
ATOM     19 CL   UNL     1       2.861   4.822  20.410  0.00  0.00    +0.000 Cl
BRANCH  16  20
ATOM     20  C   UNL     1       7.316   4.682  17.888  0.00  0.00    +0.000 C 
ATOM     21  N   UNL     1       8.368   4.205  17.791  0.00  0.00    +0.000 NA
ENDBRANCH  16  20
ENDBRANCH  12  13
ENDBRANCH   1  12
TORSDOF 4
ENDMDL
MODEL 4
REMARK VINA RESULT:      -6.8      3.050      7.368
REMARK  Name = 
REMARK  5 active torsions:
REMARK  status: ('A' for Active; 'I' for Inactive)
REMARK    1  A    between atoms: C_1  and  N_2
REMARK    2  A    between atoms: C_3  and  S_4
REMARK    3  A    between atoms: S_4  and  C_5
REMARK    4  A    between atoms: C_5  and  C_6
REMARK    5  A    between atoms: C_9  and  C_10
REMARK                            x       y       z     vdW  Elec       q    Type
REMARK                         _______ _______ _______ _____ _____    ______ ____
ROOT
ATOM      1  S   UNL     1       2.192   8.560  18.145  0.00  0.00    +0.000 S 
ENDROOT
BRANCH   1   4
ATOM      2  C   UNL     1       0.173  11.110  18.339  0.00  0.00    +0.000 C 
ATOM      3  N   UNL     1       0.443  10.228  19.448  0.00  0.00    +0.000 N 
ATOM      4  C   UNL     1       1.234   9.105  19.487  0.00  0.00    +0.000 A 
ATOM      5  N   UNL     1       1.206   8.531  20.667  0.00  0.00    +0.000 NA
ATOM      6  C   UNL     1       0.423   9.345  21.449  0.00  0.00    +0.000 A 
ATOM      7  C   UNL     1       0.096   9.238  22.809  0.00  0.00    +0.000 A 
ATOM      8  C   UNL     1      -0.704  10.229  23.396  0.00  0.00    +0.000 A 
ATOM      9  C   UNL     1      -1.182  11.299  22.639  0.00  0.00    +0.000 A 
ATOM     10  C   UNL     1      -0.882  11.416  21.277  0.00  0.00    +0.000 A 
ATOM     11  C   UNL     1      -0.068  10.421  20.716  0.00  0.00    +0.000 A 
ENDBRANCH   1   4
BRANCH   1  12
ATOM     12  C   UNL     1       2.799   6.947  18.760  0.00  0.00    +0.000 C 
BRANCH  12  13
ATOM     13  C   UNL     1       3.619   6.198  17.720  0.00  0.00    +0.000 A 
ATOM     14  C   UNL     1       4.477   6.929  16.871  0.00  0.00    +0.000 A 
ATOM     15  C   UNL     1       5.251   6.294  15.894  0.00  0.00    +0.000 A 
ATOM     16  C   UNL     1       5.175   4.911  15.728  0.00  0.00    +0.000 A 
ATOM     17  C   UNL     1       4.311   4.171  16.538  0.00  0.00    +0.000 A 
ATOM     18  C   UNL     1       3.538   4.810  17.521  0.00  0.00    +0.000 A 
ATOM     19 CL   UNL     1       2.480   3.802  18.447  0.00  0.00    +0.000 Cl
BRANCH  16  20
ATOM     20  C   UNL     1       5.974   4.256  14.731  0.00  0.00    +0.000 C 
ATOM     21  N   UNL     1       6.616   3.726  13.923  0.00  0.00    +0.000 NA
ENDBRANCH  16  20
ENDBRANCH  12  13
ENDBRANCH   1  12
TORSDOF 4
ENDMDL
MODEL 5
REMARK VINA RESULT:      -6.7      2.690      6.334
REMARK  Name = 
REMARK  5 active torsions:
REMARK  status: ('A' for Active; 'I' for Inactive)
REMARK    1  A    between atoms: C_1  and  N_2
REMARK    2  A    between atoms: C_3  and  S_4
REMARK    3  A    between atoms: S_4  and  C_5
REMARK    4  A    between atoms: C_5  and  C_6
REMARK    5  A    between atoms: C_9  and  C_10
REMARK                            x       y       z     vdW  Elec       q    Type
REMARK                         _______ _______ _______ _____ _____    ______ ____
ROOT
ATOM      1  S   UNL     1       3.097   3.877  18.460  0.00  0.00    +0.000 S 
ENDROOT
BRANCH   1   4
ATOM      2  C   UNL     1       1.948   5.344  21.132  0.00  0.00    +0.000 C 
ATOM      3  N   UNL     1       2.186   6.036  19.889  0.00  0.00    +0.000 N 
ATOM      4  C   UNL     1       2.701   5.548  18.713  0.00  0.00    +0.000 A 
ATOM      5  N   UNL     1       2.812   6.489  17.803  0.00  0.00    +0.000 NA
ATOM      6  C   UNL     1       2.287   7.618  18.383  0.00  0.00    +0.000 A 
ATOM      7  C   UNL     1       2.108   8.902  17.844  0.00  0.00    +0.000 A 
ATOM      8  C   UNL     1       1.509   9.892  18.635  0.00  0.00    +0.000 A 
ATOM      9  C   UNL     1       1.108   9.615  19.943  0.00  0.00    +0.000 A 
ATOM     10  C   UNL     1       1.294   8.347  20.505  0.00  0.00    +0.000 A 
ATOM     11  C   UNL     1       1.882   7.368  19.691  0.00  0.00    +0.000 A 
ENDBRANCH   1   4
BRANCH   1  12
ATOM     12  C   UNL     1       4.916   3.899  18.656  0.00  0.00    +0.000 C 
BRANCH  12  13
ATOM     13  C   UNL     1       5.635   4.283  17.371  0.00  0.00    +0.000 A 
ATOM     14  C   UNL     1       5.115   3.837  16.137  0.00  0.00    +0.000 A 
ATOM     15  C   UNL     1       5.736   4.156  14.925  0.00  0.00    +0.000 A 
ATOM     16  C   UNL     1       6.904   4.918  14.914  0.00  0.00    +0.000 A 
ATOM     17  C   UNL     1       7.452   5.347  16.125  0.00  0.00    +0.000 A 
ATOM     18  C   UNL     1       6.825   5.030  17.341  0.00  0.00    +0.000 A 
ATOM     19 CL   UNL     1       7.606   5.586  18.780  0.00  0.00    +0.000 Cl
BRANCH  16  20
ATOM     20  C   UNL     1       7.539   5.254  13.671  0.00  0.00    +0.000 C 
ATOM     21  N   UNL     1       8.055   5.523  12.668  0.00  0.00    +0.000 NA
ENDBRANCH  16  20
ENDBRANCH  12  13
ENDBRANCH   1  12
TORSDOF 4
ENDMDL
MODEL 6
REMARK VINA RESULT:      -6.5      2.920      6.712
REMARK  Name = 
REMARK  5 active torsions:
REMARK  status: ('A' for Active; 'I' for Inactive)
REMARK    1  A    between atoms: C_1  and  N_2
REMARK    2  A    between atoms: C_3  and  S_4
REMARK    3  A    between atoms: S_4  and  C_5
REMARK    4  A    between atoms: C_5  and  C_6
REMARK    5  A    between atoms: C_9  and  C_10
REMARK                            x       y       z     vdW  Elec       q    Type
REMARK                         _______ _______ _______ _____ _____    ______ ____
ROOT
ATOM      1  S   UNL     1       3.945   7.498  17.693  0.00  0.00    +0.000 S 
ENDROOT
BRANCH   1   4
ATOM      2  C   UNL     1       2.070   7.186  20.339  0.00  0.00    +0.000 C 
ATOM      3  N   UNL     1       2.368   6.092  19.446  0.00  0.00    +0.000 N 
ATOM      4  C   UNL     1       3.104   6.100  18.286  0.00  0.00    +0.000 A 
ATOM      5  N   UNL     1       3.125   4.917  17.716  0.00  0.00    +0.000 NA
ATOM      6  C   UNL     1       2.434   4.090  18.569  0.00  0.00    +0.000 A 
ATOM      7  C   UNL     1       2.191   2.711  18.479  0.00  0.00    +0.000 A 
ATOM      8  C   UNL     1       1.480   2.079  19.509  0.00  0.00    +0.000 A 
ATOM      9  C   UNL     1       1.007   2.808  20.601  0.00  0.00    +0.000 A 
ATOM     10  C   UNL     1       1.224   4.187  20.700  0.00  0.00    +0.000 A 
ATOM     11  C   UNL     1       1.950   4.795  19.666  0.00  0.00    +0.000 A 
ENDBRANCH   1   4
BRANCH   1  12
ATOM     12  C   UNL     1       5.666   6.881  17.610  0.00  0.00    +0.000 C 
BRANCH  12  13
ATOM     13  C   UNL     1       5.910   5.996  16.396  0.00  0.00    +0.000 A 
ATOM     14  C   UNL     1       5.154   6.220  15.225  0.00  0.00    +0.000 A 
ATOM     15  C   UNL     1       5.333   5.435  14.081  0.00  0.00    +0.000 A 
ATOM     16  C   UNL     1       6.261   4.394  14.081  0.00  0.00    +0.000 A 
ATOM     17  C   UNL     1       7.000   4.137  15.239  0.00  0.00    +0.000 A 
ATOM     18  C   UNL     1       6.823   4.928  16.385  0.00  0.00    +0.000 A 
ATOM     19 CL   UNL     1       7.768   4.503  17.770  0.00  0.00    +0.000 Cl
BRANCH  16  20
ATOM     20  C   UNL     1       6.451   3.592  12.906  0.00  0.00    +0.000 C 
ATOM     21  N   UNL     1       6.602   2.942  11.958  0.00  0.00    +0.000 NA
ENDBRANCH  16  20
ENDBRANCH  12  13
ENDBRANCH   1  12
TORSDOF 4
ENDMDL
MODEL 7
REMARK VINA RESULT:      -6.5      2.899      5.949
REMARK  Name = 
REMARK  5 active torsions:
REMARK  status: ('A' for Active; 'I' for Inactive)
REMARK    1  A    between atoms: C_1  and  N_2
REMARK    2  A    between atoms: C_3  and  S_4
REMARK    3  A    between atoms: S_4  and  C_5
REMARK    4  A    between atoms: C_5  and  C_6
REMARK    5  A    between atoms: C_9  and  C_10
REMARK                            x       y       z     vdW  Elec       q    Type
REMARK                         _______ _______ _______ _____ _____    ______ ____
ROOT
ATOM      1  S   UNL     1       5.598   4.364  16.332  0.00  0.00    +0.000 S 
ENDROOT
BRANCH   1   4
ATOM      2  C   UNL     1       3.745   6.465  17.996  0.00  0.00    +0.000 C 
ATOM      3  N   UNL     1       3.555   5.035  18.039  0.00  0.00    +0.000 N 
ATOM      4  C   UNL     1       4.234   4.052  17.361  0.00  0.00    +0.000 A 
ATOM      5  N   UNL     1       3.752   2.859  17.623  0.00  0.00    +0.000 NA
ATOM      6  C   UNL     1       2.766   3.063  18.558  0.00  0.00    +0.000 A 
ATOM      7  C   UNL     1       1.958   2.130  19.226  0.00  0.00    +0.000 A 
ATOM      8  C   UNL     1       1.036   2.589  20.177  0.00  0.00    +0.000 A 
ATOM      9  C   UNL     1       0.910   3.952  20.448  0.00  0.00    +0.000 A 
ATOM     10  C   UNL     1       1.694   4.900  19.780  0.00  0.00    +0.000 A 
ATOM     11  C   UNL     1       2.620   4.417  18.845  0.00  0.00    +0.000 A 
ENDBRANCH   1   4
BRANCH   1  12
ATOM     12  C   UNL     1       6.961   4.452  17.549  0.00  0.00    +0.000 C 
BRANCH  12  13
ATOM     13  C   UNL     1       7.426   5.880  17.800  0.00  0.00    +0.000 A 
ATOM     14  C   UNL     1       7.214   6.852  16.799  0.00  0.00    +0.000 A 
ATOM     15  C   UNL     1       7.623   8.178  16.973  0.00  0.00    +0.000 A 
ATOM     16  C   UNL     1       8.272   8.565  18.145  0.00  0.00    +0.000 A 
ATOM     17  C   UNL     1       8.518   7.613  19.137  0.00  0.00    +0.000 A 
ATOM     18  C   UNL     1       8.102   6.282  18.963  0.00  0.00    +0.000 A 
ATOM     19 CL   UNL     1       8.484   5.181  20.241  0.00  0.00    +0.000 Cl
BRANCH  16  20
ATOM     20  C   UNL     1       8.688   9.927  18.329  0.00  0.00    +0.000 C 
ATOM     21  N   UNL     1       9.026  11.026  18.476  0.00  0.00    +0.000 NA
ENDBRANCH  16  20
ENDBRANCH  12  13
ENDBRANCH   1  12
TORSDOF 4
ENDMDL
MODEL 8
REMARK VINA RESULT:      -6.5      2.063      3.256
REMARK  Name = 
REMARK  5 active torsions:
REMARK  status: ('A' for Active; 'I' for Inactive)
REMARK    1  A    between atoms: C_1  and  N_2
REMARK    2  A    between atoms: C_3  and  S_4
REMARK    3  A    between atoms: S_4  and  C_5
REMARK    4  A    between atoms: C_5  and  C_6
REMARK    5  A    between atoms: C_9  and  C_10
REMARK                            x       y       z     vdW  Elec       q    Type
REMARK                         _______ _______ _______ _____ _____    ______ ____
ROOT
ATOM      1  S   UNL     1       5.155   4.448  18.431  0.00  0.00    +0.000 S 
ENDROOT
BRANCH   1   4
ATOM      2  C   UNL     1       7.446   6.295  17.034  0.00  0.00    +0.000 C 
ATOM      3  N   UNL     1       6.731   5.257  16.333  0.00  0.00    +0.000 N 
ATOM      4  C   UNL     1       5.780   4.388  16.812  0.00  0.00    +0.000 A 
ATOM      5  N   UNL     1       5.379   3.548  15.886  0.00  0.00    +0.000 NA
ATOM      6  C   UNL     1       6.041   3.924  14.742  0.00  0.00    +0.000 A 
ATOM      7  C   UNL     1       5.953   3.403  13.442  0.00  0.00    +0.000 A 
ATOM      8  C   UNL     1       6.715   3.989  12.422  0.00  0.00    +0.000 A 
ATOM      9  C   UNL     1       7.561   5.065  12.694  0.00  0.00    +0.000 A 
ATOM     10  C   UNL     1       7.677   5.588  13.986  0.00  0.00    +0.000 A 
ATOM     11  C   UNL     1       6.894   4.996  14.987  0.00  0.00    +0.000 A 
ENDBRANCH   1   4
BRANCH   1  12
ATOM     12  C   UNL     1       3.355   4.569  18.123  0.00  0.00    +0.000 C 
BRANCH  12  13
ATOM     13  C   UNL     1       2.734   5.794  18.780  0.00  0.00    +0.000 A 
ATOM     14  C   UNL     1       2.714   7.013  18.069  0.00  0.00    +0.000 A 
ATOM     15  C   UNL     1       2.159   8.171  18.624  0.00  0.00    +0.000 A 
ATOM     16  C   UNL     1       1.624   8.146  19.912  0.00  0.00    +0.000 A 
ATOM     17  C   UNL     1       1.659   6.957  20.644  0.00  0.00    +0.000 A 
ATOM     18  C   UNL     1       2.212   5.794  20.084  0.00  0.00    +0.000 A 
ATOM     19 CL   UNL     1       2.229   4.387  21.089  0.00  0.00    +0.000 Cl
BRANCH  16  20
ATOM     20  C   UNL     1       1.048   9.332  20.481  0.00  0.00    +0.000 C 
ATOM     21  N   UNL     1       0.585  10.291  20.939  0.00  0.00    +0.000 NA
ENDBRANCH  16  20
ENDBRANCH  12  13
ENDBRANCH   1  12
TORSDOF 4
ENDMDL
MODEL 9
REMARK VINA RESULT:      -6.4      2.660      6.353
REMARK  Name = 
REMARK  5 active torsions:
REMARK  status: ('A' for Active; 'I' for Inactive)
REMARK    1  A    between atoms: C_1  and  N_2
REMARK    2  A    between atoms: C_3  and  S_4
REMARK    3  A    between atoms: S_4  and  C_5
REMARK    4  A    between atoms: C_5  and  C_6
REMARK    5  A    between atoms: C_9  and  C_10
REMARK                            x       y       z     vdW  Elec       q    Type
REMARK                         _______ _______ _______ _____ _____    ______ ____
ROOT
ATOM      1  S   UNL     1       6.671   5.455  19.421  0.00  0.00    +0.000 S 
ENDROOT
BRANCH   1   4
ATOM      2  C   UNL     1       3.601   6.544  19.473  0.00  0.00    +0.000 C 
ATOM      3  N   UNL     1       3.947   5.163  19.237  0.00  0.00    +0.000 N 
ATOM      4  C   UNL     1       5.192   4.587  19.150  0.00  0.00    +0.000 A 
ATOM      5  N   UNL     1       5.116   3.304  18.884  0.00  0.00    +0.000 NA
ATOM      6  C   UNL     1       3.773   3.016  18.863  0.00  0.00    +0.000 A 
ATOM      7  C   UNL     1       3.122   1.787  18.674  0.00  0.00    +0.000 A 
ATOM      8  C   UNL     1       1.722   1.744  18.732  0.00  0.00    +0.000 A 
ATOM      9  C   UNL     1       0.982   2.905  18.959  0.00  0.00    +0.000 A 
ATOM     10  C   UNL     1       1.610   4.143  19.132  0.00  0.00    +0.000 A 
ATOM     11  C   UNL     1       3.012   4.160  19.085  0.00  0.00    +0.000 A 
ENDBRANCH   1   4
BRANCH   1  12
ATOM     12  C   UNL     1       6.729   6.545  17.952  0.00  0.00    +0.000 C 
BRANCH  12  13
ATOM     13  C   UNL     1       6.450   5.793  16.658  0.00  0.00    +0.000 A 
ATOM     14  C   UNL     1       7.362   4.803  16.234  0.00  0.00    +0.000 A 
ATOM     15  C   UNL     1       7.159   4.084  15.051  0.00  0.00    +0.000 A 
ATOM     16  C   UNL     1       6.046   4.346  14.252  0.00  0.00    +0.000 A 
ATOM     17  C   UNL     1       5.146   5.341  14.638  0.00  0.00    +0.000 A 
ATOM     18  C   UNL     1       5.348   6.060  15.828  0.00  0.00    +0.000 A 
ATOM     19 CL   UNL     1       4.188   7.289  16.194  0.00  0.00    +0.000 Cl
BRANCH  16  20
ATOM     20  C   UNL     1       5.832   3.604  13.042  0.00  0.00    +0.000 C 
ATOM     21  N   UNL     1       5.662   3.004  12.064  0.00  0.00    +0.000 NA
ENDBRANCH  16  20
ENDBRANCH  12  13
ENDBRANCH   1  12
TORSDOF 4
ENDMDL
