MODEL 1
REMARK VINA RESULT:      -8.3      0.000      0.000
REMARK  Name = 
REMARK  5 active torsions:
REMARK  status: ('A' for Active; 'I' for Inactive)
REMARK    1  A    between atoms: C_1  and  S_2
REMARK    2  A    between atoms: S_2  and  C_5
REMARK    3  A    between atoms: C_7  and  N_8
REMARK    4  A    between atoms: N_17  and  C_18
REMARK    5  A    between atoms: C_18  and  C_19
REMARK                            x       y       z     vdW  Elec       q    Type
REMARK                         _______ _______ _______ _____ _____    ______ ____
ROOT
ATOM      1  C   UNL     1       4.488   5.435  17.542  0.00  0.00    +0.000 A 
ATOM      2  C   UNL     1       4.042   4.550  18.508  0.00  0.00    +0.000 A 
ATOM      3  C   UNL     1       3.066   4.985  19.415  0.00  0.00    +0.000 A 
ATOM      4  C   UNL     1       2.529   6.292  19.403  0.00  0.00    +0.000 A 
ATOM      5  S   UNL     1       1.439   6.880  20.670  0.00  0.00    +0.000 S 
ATOM      6  C   UNL     1       0.985   8.471  20.116  0.00  0.00    +0.000 A 
ATOM      7  N   UNL     1       0.029   9.161  20.840  0.00  0.00    +0.000 N 
ATOM      8  C   UNL     1      -0.415   8.902  22.219  0.00  0.00    +0.000 C 
ATOM      9  C   UNL     1      -0.507  10.226  23.034  0.00  0.00    +0.000 C 
ATOM     10  N   UNL     1      -1.199  11.318  22.332  0.00  0.00    +0.000 N 
ATOM     11  C   UNL     1      -0.610  11.526  21.066  0.00  0.00    +0.000 C 
ATOM     12  O   UNL     1      -0.119  12.582  20.689  0.00  0.00    +0.000 OA
ATOM     13  C   UNL     1      -0.686  10.279  20.199  0.00  0.00    +0.000 C 
ATOM     14  N   UNL     1       1.485   9.022  19.059  0.00  0.00    +0.000 NA
ATOM     15  C   UNL     1       2.445   8.517  18.242  0.00  0.00    +0.000 A 
ATOM     16  O   UNL     1       2.931   9.200  17.346  0.00  0.00    +0.000 OA
ATOM     17  C   UNL     1       2.957   7.139  18.378  0.00  0.00    +0.000 A 
ATOM     18  C   UNL     1       3.933   6.707  17.448  0.00  0.00    +0.000 A 
ENDROOT
BRANCH   1  20
ATOM     19  C   UNL     1       7.207   4.759  17.423  0.00  0.00    +0.000 C 
ATOM     20  S   UNL     1       5.765   4.952  16.402  0.00  0.00    +0.000 S 
ATOM     21  O   UNL     1       5.966   6.071  15.506  0.00  0.00    +0.000 OA
ATOM     22  O   UNL     1       5.406   3.639  15.902  0.00  0.00    +0.000 OA
ENDBRANCH   1  20
BRANCH   3  23
ATOM     23  N   UNL     1       2.618   4.016  20.399  0.00  0.00    +0.000 N 
ATOM     24  O   UNL     1       2.295   2.901  19.970  0.00  0.00    +0.000 OA
ATOM     25  O   UNL     1       2.552   4.394  21.574  0.00  0.00    +0.000 OA
ENDBRANCH   3  23
BRANCH  10  26
ATOM     26  C   UNL     1      -1.563  12.512  23.116  0.00  0.00    +0.000 C 
BRANCH  26  27
ATOM     27  C   UNL     1      -3.078  12.613  23.471  0.00  0.00    +0.000 C 
ATOM     28  C   UNL     1      -3.458  13.722  24.461  0.00  0.00    +0.000 C 
ATOM     29  C   UNL     1      -3.618  15.121  23.870  0.00  0.00    +0.000 C 
ATOM     30  C   UNL     1      -4.273  15.195  22.494  0.00  0.00    +0.000 C 
ATOM     31  C   UNL     1      -3.928  14.051  21.548  0.00  0.00    +0.000 C 
ATOM     32  C   UNL     1      -3.967  12.693  22.227  0.00  0.00    +0.000 C 
ENDBRANCH  26  27
ENDBRANCH  10  26
TORSDOF 4
ENDMDL
MODEL 2
REMARK VINA RESULT:      -8.2      1.002      1.029
REMARK  Name = 
REMARK  5 active torsions:
REMARK  status: ('A' for Active; 'I' for Inactive)
REMARK    1  A    between atoms: C_1  and  S_2
REMARK    2  A    between atoms: S_2  and  C_5
REMARK    3  A    between atoms: C_7  and  N_8
REMARK    4  A    between atoms: N_17  and  C_18
REMARK    5  A    between atoms: C_18  and  C_19
REMARK                            x       y       z     vdW  Elec       q    Type
REMARK                         _______ _______ _______ _____ _____    ______ ____
ROOT
ATOM      1  C   UNL     1       3.944   5.978  17.783  0.00  0.00    +0.000 A 
ATOM      2  C   UNL     1       3.444   5.154  18.777  0.00  0.00    +0.000 A 
ATOM      3  C   UNL     1       2.488   5.674  19.660  0.00  0.00    +0.000 A 
ATOM      4  C   UNL     1       2.024   7.007  19.599  0.00  0.00    +0.000 A 
ATOM      5  S   UNL     1       0.962   7.698  20.836  0.00  0.00    +0.000 S 
ATOM      6  C   UNL     1       0.598   9.291  20.223  0.00  0.00    +0.000 A 
ATOM      7  N   UNL     1      -0.323  10.057  20.916  0.00  0.00    +0.000 N 
ATOM      8  C   UNL     1      -0.788   9.872  22.299  0.00  0.00    +0.000 C 
ATOM      9  C   UNL     1      -0.812  11.227  23.066  0.00  0.00    +0.000 C 
ATOM     10  N   UNL     1      -1.439  12.329  22.321  0.00  0.00    +0.000 N 
ATOM     11  C   UNL     1      -0.833  12.460  21.053  0.00  0.00    +0.000 C 
ATOM     12  O   UNL     1      -0.282  13.473  20.642  0.00  0.00    +0.000 OA
ATOM     13  C   UNL     1      -0.972  11.189  20.230  0.00  0.00    +0.000 C 
ATOM     14  N   UNL     1       1.133   9.776  19.151  0.00  0.00    +0.000 NA
ATOM     15  C   UNL     1       2.068   9.190  18.359  0.00  0.00    +0.000 A 
ATOM     16  O   UNL     1       2.596   9.813  17.444  0.00  0.00    +0.000 OA
ATOM     17  C   UNL     1       2.504   7.792  18.548  0.00  0.00    +0.000 A 
ATOM     18  C   UNL     1       3.460   7.274  17.641  0.00  0.00    +0.000 A 
ENDROOT
BRANCH   1  20
ATOM     19  C   UNL     1       6.572   5.003  17.732  0.00  0.00    +0.000 C 
ATOM     20  S   UNL     1       5.198   5.386  16.671  0.00  0.00    +0.000 S 
ATOM     21  O   UNL     1       5.555   6.500  15.818  0.00  0.00    +0.000 OA
ATOM     22  O   UNL     1       4.713   4.136  16.119  0.00  0.00    +0.000 OA
ENDBRANCH   1  20
BRANCH   3  23
ATOM     23  N   UNL     1       1.983   4.766  20.675  0.00  0.00    +0.000 N 
ATOM     24  O   UNL     1       0.868   4.269  20.467  0.00  0.00    +0.000 OA
ATOM     25  O   UNL     1       2.682   4.597  21.681  0.00  0.00    +0.000 OA
ENDBRANCH   3  23
BRANCH  10  26
ATOM     26  C   UNL     1      -1.741  13.568  23.060  0.00  0.00    +0.000 C 
BRANCH  26  27
ATOM     27  C   UNL     1      -2.824  13.410  24.171  0.00  0.00    +0.000 C 
ATOM     28  C   UNL     1      -3.081  14.652  25.034  0.00  0.00    +0.000 C 
ATOM     29  C   UNL     1      -4.012  15.703  24.434  0.00  0.00    +0.000 C 
ATOM     30  C   UNL     1      -5.209  15.167  23.652  0.00  0.00    +0.000 C 
ATOM     31  C   UNL     1      -4.946  13.899  22.850  0.00  0.00    +0.000 C 
ATOM     32  C   UNL     1      -4.147  12.866  23.626  0.00  0.00    +0.000 C 
ENDBRANCH  26  27
ENDBRANCH  10  26
TORSDOF 4
ENDMDL
MODEL 3
REMARK VINA RESULT:      -8.1      0.997      1.151
REMARK  Name = 
REMARK  5 active torsions:
REMARK  status: ('A' for Active; 'I' for Inactive)
REMARK    1  A    between atoms: C_1  and  S_2
REMARK    2  A    between atoms: S_2  and  C_5
REMARK    3  A    between atoms: C_7  and  N_8
REMARK    4  A    between atoms: N_17  and  C_18
REMARK    5  A    between atoms: C_18  and  C_19
REMARK                            x       y       z     vdW  Elec       q    Type
REMARK                         _______ _______ _______ _____ _____    ______ ____
ROOT
ATOM      1  C   UNL     1       4.153   6.128  17.512  0.00  0.00    +0.000 A 
ATOM      2  C   UNL     1       3.687   5.221  18.449  0.00  0.00    +0.000 A 
ATOM      3  C   UNL     1       2.715   5.646  19.365  0.00  0.00    +0.000 A 
ATOM      4  C   UNL     1       2.202   6.963  19.392  0.00  0.00    +0.000 A 
ATOM      5  S   UNL     1       1.118   7.531  20.672  0.00  0.00    +0.000 S 
ATOM      6  C   UNL     1       0.694   9.146  20.166  0.00  0.00    +0.000 A 
ATOM      7  N   UNL     1      -0.253   9.830  20.908  0.00  0.00    +0.000 N 
ATOM      8  C   UNL     1      -0.707   9.537  22.276  0.00  0.00    +0.000 C 
ATOM      9  C   UNL     1      -0.778  10.837  23.131  0.00  0.00    +0.000 C 
ATOM     10  N   UNL     1      -1.448  11.963  22.460  0.00  0.00    +0.000 N 
ATOM     11  C   UNL     1      -0.850  12.199  21.203  0.00  0.00    +0.000 C 
ATOM     12  O   UNL     1      -0.339  13.257  20.860  0.00  0.00    +0.000 OA
ATOM     13  C   UNL     1      -0.945  10.980  20.298  0.00  0.00    +0.000 C 
ATOM     14  N   UNL     1       1.208   9.720  19.128  0.00  0.00    +0.000 NA
ATOM     15  C   UNL     1       2.162   9.223  18.299  0.00  0.00    +0.000 A 
ATOM     16  O   UNL     1       2.664   9.924  17.426  0.00  0.00    +0.000 OA
ATOM     17  C   UNL     1       2.649   7.832  18.395  0.00  0.00    +0.000 A 
ATOM     18  C   UNL     1       3.621   7.411  17.455  0.00  0.00    +0.000 A 
ENDROOT
BRANCH   1  20
ATOM     19  C   UNL     1       5.049   3.965  15.968  0.00  0.00    +0.000 C 
ATOM     20  S   UNL     1       5.426   5.656  16.363  0.00  0.00    +0.000 S 
ATOM     21  O   UNL     1       6.678   5.705  17.089  0.00  0.00    +0.000 OA
ATOM     22  O   UNL     1       5.218   6.442  15.162  0.00  0.00    +0.000 OA
ENDBRANCH   1  20
BRANCH   3  23
ATOM     23  N   UNL     1       2.246   4.656  20.318  0.00  0.00    +0.000 N 
ATOM     24  O   UNL     1       2.915   4.520  21.350  0.00  0.00    +0.000 OA
ATOM     25  O   UNL     1       1.245   4.000  20.004  0.00  0.00    +0.000 OA
ENDBRANCH   3  23
BRANCH  10  26
ATOM     26  C   UNL     1      -1.794  13.138  23.279  0.00  0.00    +0.000 C 
BRANCH  26  27
ATOM     27  C   UNL     1      -3.258  13.143  23.815  0.00  0.00    +0.000 C 
ATOM     28  C   UNL     1      -3.682  14.402  24.583  0.00  0.00    +0.000 C 
ATOM     29  C   UNL     1      -4.110  15.594  23.729  0.00  0.00    +0.000 C 
ATOM     30  C   UNL     1      -4.919  15.264  22.477  0.00  0.00    +0.000 C 
ATOM     31  C   UNL     1      -4.519  13.978  21.765  0.00  0.00    +0.000 C 
ATOM     32  C   UNL     1      -4.283  12.823  22.723  0.00  0.00    +0.000 C 
ENDBRANCH  26  27
ENDBRANCH  10  26
TORSDOF 4
ENDMDL
MODEL 4
REMARK VINA RESULT:      -8.0      1.028      1.391
REMARK  Name = 
REMARK  5 active torsions:
REMARK  status: ('A' for Active; 'I' for Inactive)
REMARK    1  A    between atoms: C_1  and  S_2
REMARK    2  A    between atoms: S_2  and  C_5
REMARK    3  A    between atoms: C_7  and  N_8
REMARK    4  A    between atoms: N_17  and  C_18
REMARK    5  A    between atoms: C_18  and  C_19
REMARK                            x       y       z     vdW  Elec       q    Type
REMARK                         _______ _______ _______ _____ _____    ______ ____
ROOT
ATOM      1  C   UNL     1       4.582   4.852  17.482  0.00  0.00    +0.000 A 
ATOM      2  C   UNL     1       4.027   3.979  18.402  0.00  0.00    +0.000 A 
ATOM      3  C   UNL     1       3.049   4.465  19.280  0.00  0.00    +0.000 A 
ATOM      4  C   UNL     1       2.615   5.809  19.287  0.00  0.00    +0.000 A 
ATOM      5  S   UNL     1       1.521   6.447  20.525  0.00  0.00    +0.000 S 
ATOM      6  C   UNL     1       1.214   8.083  20.001  0.00  0.00    +0.000 A 
ATOM      7  N   UNL     1       0.283   8.824  20.706  0.00  0.00    +0.000 N 
ATOM      8  C   UNL     1      -0.238   8.564  22.057  0.00  0.00    +0.000 C 
ATOM      9  C   UNL     1      -0.263   9.869  22.908  0.00  0.00    +0.000 C 
ATOM     10  N   UNL     1      -0.838  11.030  22.211  0.00  0.00    +0.000 N 
ATOM     11  C   UNL     1      -0.181  11.226  20.977  0.00  0.00    +0.000 C 
ATOM     12  O   UNL     1       0.406  12.250  20.652  0.00  0.00    +0.000 OA
ATOM     13  C   UNL     1      -0.315  10.012  20.071  0.00  0.00    +0.000 C 
ATOM     14  N   UNL     1       1.801   8.621  18.983  0.00  0.00    +0.000 NA
ATOM     15  C   UNL     1       2.753   8.065  18.191  0.00  0.00    +0.000 A 
ATOM     16  O   UNL     1       3.328   8.732  17.337  0.00  0.00    +0.000 OA
ATOM     17  C   UNL     1       3.151   6.648  18.306  0.00  0.00    +0.000 A 
ATOM     18  C   UNL     1       4.130   6.166  17.404  0.00  0.00    +0.000 A 
ENDROOT
BRANCH   1  20
ATOM     19  C   UNL     1       5.805   5.457  15.032  0.00  0.00    +0.000 C 
ATOM     20  S   UNL     1       5.865   4.302  16.382  0.00  0.00    +0.000 S 
ATOM     21  O   UNL     1       5.468   2.994  15.903  0.00  0.00    +0.000 OA
ATOM     22  O   UNL     1       7.124   4.503  17.073  0.00  0.00    +0.000 OA
ENDBRANCH   1  20
BRANCH   3  23
ATOM     23  N   UNL     1       2.486   3.507  20.215  0.00  0.00    +0.000 N 
ATOM     24  O   UNL     1       1.411   2.984  19.892  0.00  0.00    +0.000 OA
ATOM     25  O   UNL     1       3.098   3.324  21.274  0.00  0.00    +0.000 OA
ENDBRANCH   3  23
BRANCH  10  26
ATOM     26  C   UNL     1      -1.143  12.227  23.016  0.00  0.00    +0.000 C 
BRANCH  26  27
ATOM     27  C   UNL     1      -2.404  13.015  22.547  0.00  0.00    +0.000 C 
ATOM     28  C   UNL     1      -3.718  12.649  23.250  0.00  0.00    +0.000 C 
ATOM     29  C   UNL     1      -3.954  13.302  24.610  0.00  0.00    +0.000 C 
ATOM     30  C   UNL     1      -3.502  14.753  24.742  0.00  0.00    +0.000 C 
ATOM     31  C   UNL     1      -2.227  15.109  23.987  0.00  0.00    +0.000 C 
ATOM     32  C   UNL     1      -2.194  14.531  22.582  0.00  0.00    +0.000 C 
ENDBRANCH  26  27
ENDBRANCH  10  26
TORSDOF 4
ENDMDL
MODEL 5
REMARK VINA RESULT:      -7.8      0.728      1.235
REMARK  Name = 
REMARK  5 active torsions:
REMARK  status: ('A' for Active; 'I' for Inactive)
REMARK    1  A    between atoms: C_1  and  S_2
REMARK    2  A    between atoms: S_2  and  C_5
REMARK    3  A    between atoms: C_7  and  N_8
REMARK    4  A    between atoms: N_17  and  C_18
REMARK    5  A    between atoms: C_18  and  C_19
REMARK                            x       y       z     vdW  Elec       q    Type
REMARK                         _______ _______ _______ _____ _____    ______ ____
ROOT
ATOM      1  C   UNL     1       4.141   5.599  17.647  0.00  0.00    +0.000 A 
ATOM      2  C   UNL     1       3.632   4.773  18.635  0.00  0.00    +0.000 A 
ATOM      3  C   UNL     1       2.677   5.296  19.518  0.00  0.00    +0.000 A 
ATOM      4  C   UNL     1       2.222   6.632  19.462  0.00  0.00    +0.000 A 
ATOM      5  S   UNL     1       1.160   7.325  20.699  0.00  0.00    +0.000 S 
ATOM      6  C   UNL     1       0.810   8.923  20.092  0.00  0.00    +0.000 A 
ATOM      7  N   UNL     1      -0.108   9.692  20.786  0.00  0.00    +0.000 N 
ATOM      8  C   UNL     1      -0.579   9.503  22.167  0.00  0.00    +0.000 C 
ATOM      9  C   UNL     1      -0.596  10.854  22.941  0.00  0.00    +0.000 C 
ATOM     10  N   UNL     1      -1.213  11.965  22.199  0.00  0.00    +0.000 N 
ATOM     11  C   UNL     1      -0.602  12.098  20.934  0.00  0.00    +0.000 C 
ATOM     12  O   UNL     1      -0.043  13.109  20.530  0.00  0.00    +0.000 OA
ATOM     13  C   UNL     1      -0.747  10.832  20.104  0.00  0.00    +0.000 C 
ATOM     14  N   UNL     1       1.352   9.409  19.025  0.00  0.00    +0.000 NA
ATOM     15  C   UNL     1       2.286   8.821  18.233  0.00  0.00    +0.000 A 
ATOM     16  O   UNL     1       2.821   9.445  17.323  0.00  0.00    +0.000 OA
ATOM     17  C   UNL     1       2.711   7.419  18.416  0.00  0.00    +0.000 A 
ATOM     18  C   UNL     1       3.666   6.899  17.510  0.00  0.00    +0.000 A 
ENDROOT
BRANCH   1  20
ATOM     19  C   UNL     1       6.835   4.826  17.563  0.00  0.00    +0.000 C 
ATOM     20  S   UNL     1       5.395   5.004  16.537  0.00  0.00    +0.000 S 
ATOM     21  O   UNL     1       5.629   6.058  15.572  0.00  0.00    +0.000 OA
ATOM     22  O   UNL     1       4.990   3.675  16.120  0.00  0.00    +0.000 OA
ENDBRANCH   1  20
BRANCH   3  23
ATOM     23  N   UNL     1       2.161   4.386  20.526  0.00  0.00    +0.000 N 
ATOM     24  O   UNL     1       1.157   3.731  20.219  0.00  0.00    +0.000 OA
ATOM     25  O   UNL     1       2.737   4.371  21.621  0.00  0.00    +0.000 OA
ENDBRANCH   3  23
BRANCH  10  26
ATOM     26  C   UNL     1      -1.509  13.203  22.943  0.00  0.00    +0.000 C 
BRANCH  26  27
ATOM     27  C   UNL     1      -2.626  14.086  22.308  0.00  0.00    +0.000 C 
ATOM     28  C   UNL     1      -3.787  13.325  21.655  0.00  0.00    +0.000 C 
ATOM     29  C   UNL     1      -4.877  12.827  22.602  0.00  0.00    +0.000 C 
ATOM     30  C   UNL     1      -5.246  13.765  23.748  0.00  0.00    +0.000 C 
ATOM     31  C   UNL     1      -4.087  14.555  24.341  0.00  0.00    +0.000 C 
ATOM     32  C   UNL     1      -3.167  15.137  23.281  0.00  0.00    +0.000 C 
ENDBRANCH  26  27
ENDBRANCH  10  26
TORSDOF 4
ENDMDL
MODEL 6
REMARK VINA RESULT:      -7.8      0.882      1.114
REMARK  Name = 
REMARK  5 active torsions:
REMARK  status: ('A' for Active; 'I' for Inactive)
REMARK    1  A    between atoms: C_1  and  S_2
REMARK    2  A    between atoms: S_2  and  C_5
REMARK    3  A    between atoms: C_7  and  N_8
REMARK    4  A    between atoms: N_17  and  C_18
REMARK    5  A    between atoms: C_18  and  C_19
REMARK                            x       y       z     vdW  Elec       q    Type
REMARK                         _______ _______ _______ _____ _____    ______ ____
ROOT
ATOM      1  C   UNL     1       4.643   4.960  17.447  0.00  0.00    +0.000 A 
ATOM      2  C   UNL     1       4.098   4.061  18.348  0.00  0.00    +0.000 A 
ATOM      3  C   UNL     1       3.105   4.514  19.227  0.00  0.00    +0.000 A 
ATOM      4  C   UNL     1       2.648   5.850  19.253  0.00  0.00    +0.000 A 
ATOM      5  S   UNL     1       1.533   6.446  20.494  0.00  0.00    +0.000 S 
ATOM      6  C   UNL     1       1.201   8.086  19.996  0.00  0.00    +0.000 A 
ATOM      7  N   UNL     1       0.252   8.799  20.707  0.00  0.00    +0.000 N 
ATOM      8  C   UNL     1      -0.274   8.506  22.049  0.00  0.00    +0.000 C 
ATOM      9  C   UNL     1      -0.329   9.795  22.922  0.00  0.00    +0.000 C 
ATOM     10  N   UNL     1      -0.920  10.957  22.241  0.00  0.00    +0.000 N 
ATOM     11  C   UNL     1      -0.257  11.186  21.016  0.00  0.00    +0.000 C 
ATOM     12  O   UNL     1       0.313  12.226  20.713  0.00  0.00    +0.000 OA
ATOM     13  C   UNL     1      -0.364   9.986  20.088  0.00  0.00    +0.000 C 
ATOM     14  N   UNL     1       1.784   8.652  18.992  0.00  0.00    +0.000 NA
ATOM     15  C   UNL     1       2.752   8.126  18.197  0.00  0.00    +0.000 A 
ATOM     16  O   UNL     1       3.321   8.818  17.359  0.00  0.00    +0.000 OA
ATOM     17  C   UNL     1       3.175   6.715  18.291  0.00  0.00    +0.000 A 
ATOM     18  C   UNL     1       4.169   6.266  17.388  0.00  0.00    +0.000 A 
ENDROOT
BRANCH   1  20
ATOM     19  C   UNL     1       5.782   5.539  14.950  0.00  0.00    +0.000 C 
ATOM     20  S   UNL     1       5.944   4.451  16.347  0.00  0.00    +0.000 S 
ATOM     21  O   UNL     1       5.631   3.099  15.932  0.00  0.00    +0.000 OA
ATOM     22  O   UNL     1       7.197   4.768  17.004  0.00  0.00    +0.000 OA
ENDBRANCH   1  20
BRANCH   3  23
ATOM     23  N   UNL     1       2.553   3.531  20.142  0.00  0.00    +0.000 N 
ATOM     24  O   UNL     1       3.257   3.218  21.110  0.00  0.00    +0.000 OA
ATOM     25  O   UNL     1       1.448   3.053  19.858  0.00  0.00    +0.000 OA
ENDBRANCH   3  23
BRANCH  10  26
ATOM     26  C   UNL     1      -1.251  12.135  23.064  0.00  0.00    +0.000 C 
BRANCH  26  27
ATOM     27  C   UNL     1      -2.778  12.428  23.185  0.00  0.00    +0.000 C 
ATOM     28  C   UNL     1      -3.172  13.496  24.213  0.00  0.00    +0.000 C 
ATOM     29  C   UNL     1      -3.045  14.947  23.753  0.00  0.00    +0.000 C 
ATOM     30  C   UNL     1      -3.441  15.226  22.306  0.00  0.00    +0.000 C 
ATOM     31  C   UNL     1      -3.094  14.125  21.313  0.00  0.00    +0.000 C 
ATOM     32  C   UNL     1      -3.425  12.736  21.832  0.00  0.00    +0.000 C 
ENDBRANCH  26  27
ENDBRANCH  10  26
TORSDOF 4
ENDMDL
MODEL 7
REMARK VINA RESULT:      -7.7      1.044      1.516
REMARK  Name = 
REMARK  5 active torsions:
REMARK  status: ('A' for Active; 'I' for Inactive)
REMARK    1  A    between atoms: C_1  and  S_2
REMARK    2  A    between atoms: S_2  and  C_5
REMARK    3  A    between atoms: C_7  and  N_8
REMARK    4  A    between atoms: N_17  and  C_18
REMARK    5  A    between atoms: C_18  and  C_19
REMARK                            x       y       z     vdW  Elec       q    Type
REMARK                         _______ _______ _______ _____ _____    ______ ____
ROOT
ATOM      1  C   UNL     1       4.010   5.322  17.932  0.00  0.00    +0.000 A 
ATOM      2  C   UNL     1       3.450   4.528  18.919  0.00  0.00    +0.000 A 
ATOM      3  C   UNL     1       2.497   5.097  19.774  0.00  0.00    +0.000 A 
ATOM      4  C   UNL     1       2.093   6.448  19.691  0.00  0.00    +0.000 A 
ATOM      5  S   UNL     1       1.031   7.196  20.895  0.00  0.00    +0.000 S 
ATOM      6  C   UNL     1       0.753   8.798  20.261  0.00  0.00    +0.000 A 
ATOM      7  N   UNL     1      -0.151   9.609  20.925  0.00  0.00    +0.000 N 
ATOM      8  C   UNL     1      -0.658   9.456  22.297  0.00  0.00    +0.000 C 
ATOM      9  C   UNL     1      -0.642  10.817  23.053  0.00  0.00    +0.000 C 
ATOM     10  N   UNL     1      -1.201  11.940  22.284  0.00  0.00    +0.000 N 
ATOM     11  C   UNL     1      -0.558  12.033  21.031  0.00  0.00    +0.000 C 
ATOM     12  O   UNL     1       0.046  13.018  20.627  0.00  0.00    +0.000 OA
ATOM     13  C   UNL     1      -0.733  10.762  20.214  0.00  0.00    +0.000 C 
ATOM     14  N   UNL     1       1.336   9.249  19.200  0.00  0.00    +0.000 NA
ATOM     15  C   UNL     1       2.263   8.617  18.436  0.00  0.00    +0.000 A 
ATOM     16  O   UNL     1       2.841   9.209  17.530  0.00  0.00    +0.000 OA
ATOM     17  C   UNL     1       2.632   7.203  18.646  0.00  0.00    +0.000 A 
ATOM     18  C   UNL     1       3.587   6.636  17.767  0.00  0.00    +0.000 A 
ENDROOT
BRANCH   1  20
ATOM     19  C   UNL     1       5.435   5.897  15.586  0.00  0.00    +0.000 C 
ATOM     20  S   UNL     1       5.265   4.666  16.857  0.00  0.00    +0.000 S 
ATOM     21  O   UNL     1       4.721   3.457  16.274  0.00  0.00    +0.000 OA
ATOM     22  O   UNL     1       6.501   4.648  17.615  0.00  0.00    +0.000 OA
ENDBRANCH   1  20
BRANCH   3  23
ATOM     23  N   UNL     1       1.926   4.221  20.782  0.00  0.00    +0.000 N 
ATOM     24  O   UNL     1       2.557   4.111  21.841  0.00  0.00    +0.000 OA
ATOM     25  O   UNL     1       0.885   3.623  20.486  0.00  0.00    +0.000 OA
ENDBRANCH   3  23
BRANCH  10  26
ATOM     26  C   UNL     1      -1.468  13.197  23.006  0.00  0.00    +0.000 C 
BRANCH  26  27
ATOM     27  C   UNL     1      -2.575  14.087  22.365  0.00  0.00    +0.000 C 
ATOM     28  C   UNL     1      -4.020  13.713  22.722  0.00  0.00    +0.000 C 
ATOM     29  C   UNL     1      -4.535  14.235  24.061  0.00  0.00    +0.000 C 
ATOM     30  C   UNL     1      -4.089  15.643  24.446  0.00  0.00    +0.000 C 
ATOM     31  C   UNL     1      -2.672  16.013  24.028  0.00  0.00    +0.000 C 
ATOM     32  C   UNL     1      -2.343  15.580  22.610  0.00  0.00    +0.000 C 
ENDBRANCH  26  27
ENDBRANCH  10  26
TORSDOF 4
ENDMDL
MODEL 8
REMARK VINA RESULT:      -7.7      1.449      1.711
REMARK  Name = 
REMARK  5 active torsions:
REMARK  status: ('A' for Active; 'I' for Inactive)
REMARK    1  A    between atoms: C_1  and  S_2
REMARK    2  A    between atoms: S_2  and  C_5
REMARK    3  A    between atoms: C_7  and  N_8
REMARK    4  A    between atoms: N_17  and  C_18
REMARK    5  A    between atoms: C_18  and  C_19
REMARK                            x       y       z     vdW  Elec       q    Type
REMARK                         _______ _______ _______ _____ _____    ______ ____
ROOT
ATOM      1  C   UNL     1       3.951   6.275  17.747  0.00  0.00    +0.000 A 
ATOM      2  C   UNL     1       3.435   5.500  18.772  0.00  0.00    +0.000 A 
ATOM      3  C   UNL     1       2.467   6.062  19.614  0.00  0.00    +0.000 A 
ATOM      4  C   UNL     1       2.005   7.390  19.481  0.00  0.00    +0.000 A 
ATOM      5  S   UNL     1       0.924   8.141  20.667  0.00  0.00    +0.000 S 
ATOM      6  C   UNL     1       0.571   9.702  19.973  0.00  0.00    +0.000 A 
ATOM      7  N   UNL     1      -0.360  10.500  20.613  0.00  0.00    +0.000 N 
ATOM      8  C   UNL     1      -0.847  10.382  21.996  0.00  0.00    +0.000 C 
ATOM      9  C   UNL     1      -0.881  11.772  22.698  0.00  0.00    +0.000 C 
ATOM     10  N   UNL     1      -1.496  12.838  21.891  0.00  0.00    +0.000 N 
ATOM     11  C   UNL     1      -0.869  12.908  20.627  0.00  0.00    +0.000 C 
ATOM     12  O   UNL     1      -0.312  13.900  20.177  0.00  0.00    +0.000 OA
ATOM     13  C   UNL     1      -0.997  11.598  19.864  0.00  0.00    +0.000 C 
ATOM     14  N   UNL     1       1.124  10.135  18.887  0.00  0.00    +0.000 NA
ATOM     15  C   UNL     1       2.070   9.512  18.139  0.00  0.00    +0.000 A 
ATOM     16  O   UNL     1       2.613  10.090  17.203  0.00  0.00    +0.000 OA
ATOM     17  C   UNL     1       2.501   8.124  18.402  0.00  0.00    +0.000 A 
ATOM     18  C   UNL     1       3.471   7.563  17.535  0.00  0.00    +0.000 A 
ENDROOT
BRANCH   1  20
ATOM     19  C   UNL     1       4.667   3.989  16.291  0.00  0.00    +0.000 C 
ATOM     20  S   UNL     1       5.223   5.630  16.685  0.00  0.00    +0.000 S 
ATOM     21  O   UNL     1       6.426   5.542  17.485  0.00  0.00    +0.000 OA
ATOM     22  O   UNL     1       5.183   6.409  15.463  0.00  0.00    +0.000 OA
ENDBRANCH   1  20
BRANCH   3  23
ATOM     23  N   UNL     1       1.944   5.204  20.663  0.00  0.00    +0.000 N 
ATOM     24  O   UNL     1       0.835   4.694  20.459  0.00  0.00    +0.000 OA
ATOM     25  O   UNL     1       2.625   5.087  21.688  0.00  0.00    +0.000 OA
ENDBRANCH   3  23
BRANCH  10  26
ATOM     26  C   UNL     1      -1.808  14.111  22.564  0.00  0.00    +0.000 C 
BRANCH  26  27
ATOM     27  C   UNL     1      -2.266  13.961  24.047  0.00  0.00    +0.000 C 
ATOM     28  C   UNL     1      -1.767  15.045  25.012  0.00  0.00    +0.000 C 
ATOM     29  C   UNL     1      -2.558  16.351  25.018  0.00  0.00    +0.000 C 
ATOM     30  C   UNL     1      -4.072  16.216  24.882  0.00  0.00    +0.000 C 
ATOM     31  C   UNL     1      -4.545  15.096  23.966  0.00  0.00    +0.000 C 
ATOM     32  C   UNL     1      -3.783  13.799  24.179  0.00  0.00    +0.000 C 
ENDBRANCH  26  27
ENDBRANCH  10  26
TORSDOF 4
ENDMDL
MODEL 9
REMARK VINA RESULT:      -7.6      2.929     10.035
REMARK  Name = 
REMARK  5 active torsions:
REMARK  status: ('A' for Active; 'I' for Inactive)
REMARK    1  A    between atoms: C_1  and  S_2
REMARK    2  A    between atoms: S_2  and  C_5
REMARK    3  A    between atoms: C_7  and  N_8
REMARK    4  A    between atoms: N_17  and  C_18
REMARK    5  A    between atoms: C_18  and  C_19
REMARK                            x       y       z     vdW  Elec       q    Type
REMARK                         _______ _______ _______ _____ _____    ______ ____
ROOT
ATOM      1  C   UNL     1      -1.111  13.121  22.330  0.00  0.00    +0.000 A 
ATOM      2  C   UNL     1      -0.821  13.572  21.054  0.00  0.00    +0.000 A 
ATOM      3  C   UNL     1      -0.217  12.686  20.152  0.00  0.00    +0.000 A 
ATOM      4  C   UNL     1       0.129  11.358  20.488  0.00  0.00    +0.000 A 
ATOM      5  S   UNL     1       1.060  10.317  19.399  0.00  0.00    +0.000 S 
ATOM      6  C   UNL     1       1.097   8.782  20.228  0.00  0.00    +0.000 A 
ATOM      7  N   UNL     1       1.660   7.703  19.569  0.00  0.00    +0.000 N 
ATOM      8  C   UNL     1       2.557   7.729  18.404  0.00  0.00    +0.000 C 
ATOM      9  C   UNL     1       3.760   6.761  18.603  0.00  0.00    +0.000 C 
ATOM     10  N   UNL     1       3.383   5.425  19.092  0.00  0.00    +0.000 N 
ATOM     11  C   UNL     1       2.609   5.543  20.267  0.00  0.00    +0.000 C 
ATOM     12  O   UNL     1       2.901   5.049  21.348  0.00  0.00    +0.000 OA
ATOM     13  C   UNL     1       1.336   6.339  20.024  0.00  0.00    +0.000 C 
ATOM     14  N   UNL     1       0.610   8.606  21.412  0.00  0.00    +0.000 NA
ATOM     15  C   UNL     1       0.047   9.541  22.219  0.00  0.00    +0.000 A 
ATOM     16  O   UNL     1      -0.254   9.273  23.378  0.00  0.00    +0.000 OA
ATOM     17  C   UNL     1      -0.233  10.917  21.763  0.00  0.00    +0.000 A 
ATOM     18  C   UNL     1      -0.855  11.799  22.679  0.00  0.00    +0.000 A 
ENDROOT
BRANCH   1  20
ATOM     19  C   UNL     1      -2.484  15.555  22.559  0.00  0.00    +0.000 C 
ATOM     20  S   UNL     1      -1.826  14.220  23.531  0.00  0.00    +0.000 S 
ATOM     21  O   UNL     1      -0.733  14.718  24.340  0.00  0.00    +0.000 OA
ATOM     22  O   UNL     1      -2.948  13.520  24.125  0.00  0.00    +0.000 OA
ENDBRANCH   1  20
BRANCH   3  23
ATOM     23  N   UNL     1       0.052  13.201  18.821  0.00  0.00    +0.000 N 
ATOM     24  O   UNL     1       1.144  13.760  18.654  0.00  0.00    +0.000 OA
ATOM     25  O   UNL     1      -0.843  13.080  17.976  0.00  0.00    +0.000 OA
ENDBRANCH   3  23
BRANCH  10  26
ATOM     26  C   UNL     1       4.411   4.370  19.059  0.00  0.00    +0.000 C 
BRANCH  26  27
ATOM     27  C   UNL     1       3.973   3.064  18.329  0.00  0.00    +0.000 C 
ATOM     28  C   UNL     1       3.406   1.957  19.228  0.00  0.00    +0.000 C 
ATOM     29  C   UNL     1       1.936   2.098  19.618  0.00  0.00    +0.000 C 
ATOM     30  C   UNL     1       1.004   2.627  18.531  0.00  0.00    +0.000 C 
ATOM     31  C   UNL     1       1.608   3.682  17.613  0.00  0.00    +0.000 C 
ATOM     32  C   UNL     1       3.017   3.336  17.164  0.00  0.00    +0.000 C 
ENDBRANCH  26  27
ENDBRANCH  10  26
TORSDOF 4
ENDMDL
