MODEL 1
REMARK VINA RESULT:      -8.0      0.000      0.000
REMARK  Name = 
REMARK  7 active torsions:
REMARK  status: ('A' for Active; 'I' for Inactive)
REMARK    1  A    between atoms: C_1  and  C_2
REMARK    2  A    between atoms: C_5  and  C_6
REMARK    3  A    between atoms: C_7  and  C_8
REMARK    4  A    between atoms: N_10  and  C_11
REMARK    5  A    between atoms: C_16  and  O_17
REMARK    6  A    between atoms: O_17  and  C_18
REMARK    7  A    between atoms: C_18  and  C_19
REMARK                            x       y       z     vdW  Elec       q    Type
REMARK                         _______ _______ _______ _____ _____    ______ ____
ROOT
ATOM      1  C   UNL     1       2.629   5.626  18.857  0.00  0.00    +0.000 C 
ATOM      2  C   UNL     1       1.479   4.816  18.247  0.00  0.00    +0.000 C 
ATOM      3  C   UNL     1       1.216   3.526  19.013  0.00  0.00    +0.000 C 
ATOM      4  O   UNL     1       1.049   3.760  20.407  0.00  0.00    +0.000 OA
ATOM      5  C   UNL     1       2.188   4.394  20.994  0.00  0.00    +0.000 C 
ATOM      6  C   UNL     1       2.420   5.791  20.393  0.00  0.00    +0.000 C 
ENDROOT
BRANCH   1   9
ATOM      7  C   UNL     1       4.793   5.694  17.613  0.00  0.00    +0.000 C 
ATOM      8  O   UNL     1       4.479   6.798  17.167  0.00  0.00    +0.000 OA
ATOM      9  N   UNL     1       3.946   5.039  18.488  0.00  0.00    +0.000 N 
ATOM     10  H   UNL     1       4.237   4.168  18.904  0.00  0.00    +0.000 HD
BRANCH   7  17
ATOM     11  C   UNL     1       7.423   5.592  19.420  0.00  0.00    +0.000 C 
ATOM     12  C   UNL     1       7.226   5.026  18.063  0.00  0.00    +0.000 A 
ATOM     13  N   UNL     1       8.241   4.388  17.475  0.00  0.00    +0.000 NA
ATOM     14  O   UNL     1       7.781   4.024  16.238  0.00  0.00    +0.000 OA
ATOM     15  C   UNL     1       6.489   4.433  16.069  0.00  0.00    +0.000 A 
ATOM     16  C   UNL     1       5.962   4.107  14.735  0.00  0.00    +0.000 C 
ATOM     17  C   UNL     1       6.058   5.072  17.226  0.00  0.00    +0.000 A 
ENDBRANCH   7  17
ENDBRANCH   1   9
BRANCH   6  18
ATOM     18  O   UNL     1       1.285   6.669  20.633  0.00  0.00    +0.000 OA
BRANCH  18  19
ATOM     19  C   UNL     1       1.583   8.054  20.399  0.00  0.00    +0.000 C 
BRANCH  19  20
ATOM     20  C   UNL     1       0.672   9.029  21.119  0.00  0.00    +0.000 A 
ATOM     21  C   UNL     1       0.314   8.876  22.464  0.00  0.00    +0.000 A 
ATOM     22  C   UNL     1      -0.438   9.860  23.118  0.00  0.00    +0.000 A 
ATOM     23  C   UNL     1      -0.842  11.007  22.439  0.00  0.00    +0.000 A 
ATOM     24  C   UNL     1      -0.487  11.180  21.104  0.00  0.00    +0.000 A 
ATOM     25  C   UNL     1       0.267  10.201  20.452  0.00  0.00    +0.000 A 
ENDBRANCH  19  20
ENDBRANCH  18  19
ENDBRANCH   6  18
TORSDOF 5
ENDMDL
MODEL 2
REMARK VINA RESULT:      -7.9      1.011      1.680
REMARK  Name = 
REMARK  7 active torsions:
REMARK  status: ('A' for Active; 'I' for Inactive)
REMARK    1  A    between atoms: C_1  and  C_2
REMARK    2  A    between atoms: C_5  and  C_6
REMARK    3  A    between atoms: C_7  and  C_8
REMARK    4  A    between atoms: N_10  and  C_11
REMARK    5  A    between atoms: C_16  and  O_17
REMARK    6  A    between atoms: O_17  and  C_18
REMARK    7  A    between atoms: C_18  and  C_19
REMARK                            x       y       z     vdW  Elec       q    Type
REMARK                         _______ _______ _______ _____ _____    ______ ____
ROOT
ATOM      1  C   UNL     1       2.496   5.116  18.829  0.00  0.00    +0.000 C 
ATOM      2  C   UNL     1       1.390   4.172  18.342  0.00  0.00    +0.000 C 
ATOM      3  C   UNL     1       1.293   2.914  19.194  0.00  0.00    +0.000 C 
ATOM      4  O   UNL     1       1.190   3.217  20.580  0.00  0.00    +0.000 OA
ATOM      5  C   UNL     1       2.300   3.983  21.056  0.00  0.00    +0.000 C 
ATOM      6  C   UNL     1       2.367   5.356  20.364  0.00  0.00    +0.000 C 
ENDROOT
BRANCH   1   9
ATOM      7  C   UNL     1       4.719   5.456  17.743  0.00  0.00    +0.000 C 
ATOM      8  O   UNL     1       4.416   6.631  17.537  0.00  0.00    +0.000 OA
ATOM      9  N   UNL     1       3.837   4.624  18.407  0.00  0.00    +0.000 N 
ATOM     10  H   UNL     1       4.116   3.683  18.635  0.00  0.00    +0.000 HD
BRANCH   7  17
ATOM     11  C   UNL     1       7.424   5.525  19.438  0.00  0.00    +0.000 C 
ATOM     12  C   UNL     1       7.212   4.964  18.081  0.00  0.00    +0.000 A 
ATOM     13  N   UNL     1       8.245   4.411  17.442  0.00  0.00    +0.000 NA
ATOM     14  O   UNL     1       7.761   4.030  16.219  0.00  0.00    +0.000 OA
ATOM     15  C   UNL     1       6.436   4.345  16.110  0.00  0.00    +0.000 A 
ATOM     16  C   UNL     1       5.878   3.999  14.793  0.00  0.00    +0.000 C 
ATOM     17  C   UNL     1       6.010   4.935  17.294  0.00  0.00    +0.000 A 
ENDBRANCH   7  17
ENDBRANCH   1   9
BRANCH   6  18
ATOM     18  O   UNL     1       1.173   6.144  20.628  0.00  0.00    +0.000 OA
BRANCH  18  19
ATOM     19  C   UNL     1       1.463   7.452  21.142  0.00  0.00    +0.000 C 
BRANCH  19  20
ATOM     20  C   UNL     1       1.111   8.594  20.208  0.00  0.00    +0.000 A 
ATOM     21  C   UNL     1       1.678   8.729  18.934  0.00  0.00    +0.000 A 
ATOM     22  C   UNL     1       1.242   9.735  18.063  0.00  0.00    +0.000 A 
ATOM     23  C   UNL     1       0.234  10.615  18.450  0.00  0.00    +0.000 A 
ATOM     24  C   UNL     1      -0.348  10.489  19.709  0.00  0.00    +0.000 A 
ATOM     25  C   UNL     1       0.085   9.483  20.577  0.00  0.00    +0.000 A 
ENDBRANCH  19  20
ENDBRANCH  18  19
ENDBRANCH   6  18
TORSDOF 5
ENDMDL
MODEL 3
REMARK VINA RESULT:      -7.9      0.940      1.481
REMARK  Name = 
REMARK  7 active torsions:
REMARK  status: ('A' for Active; 'I' for Inactive)
REMARK    1  A    between atoms: C_1  and  C_2
REMARK    2  A    between atoms: C_5  and  C_6
REMARK    3  A    between atoms: C_7  and  C_8
REMARK    4  A    between atoms: N_10  and  C_11
REMARK    5  A    between atoms: C_16  and  O_17
REMARK    6  A    between atoms: O_17  and  C_18
REMARK    7  A    between atoms: C_18  and  C_19
REMARK                            x       y       z     vdW  Elec       q    Type
REMARK                         _______ _______ _______ _____ _____    ______ ____
ROOT
ATOM      1  C   UNL     1       2.575   5.332  18.880  0.00  0.00    +0.000 C 
ATOM      2  C   UNL     1       1.459   4.511  18.223  0.00  0.00    +0.000 C 
ATOM      3  C   UNL     1       1.242   3.175  18.922  0.00  0.00    +0.000 C 
ATOM      4  O   UNL     1       1.061   3.333  20.325  0.00  0.00    +0.000 OA
ATOM      5  C   UNL     1       2.171   3.980  20.951  0.00  0.00    +0.000 C 
ATOM      6  C   UNL     1       2.354   5.413  20.421  0.00  0.00    +0.000 C 
ENDROOT
BRANCH   1   9
ATOM      7  C   UNL     1       4.738   5.541  17.650  0.00  0.00    +0.000 C 
ATOM      8  O   UNL     1       4.383   6.651  17.254  0.00  0.00    +0.000 OA
ATOM      9  N   UNL     1       3.915   4.814  18.490  0.00  0.00    +0.000 N 
ATOM     10  H   UNL     1       4.238   3.936  18.867  0.00  0.00    +0.000 HD
BRANCH   7  17
ATOM     11  C   UNL     1       7.382   5.515  19.440  0.00  0.00    +0.000 C 
ATOM     12  C   UNL     1       7.203   4.973  18.070  0.00  0.00    +0.000 A 
ATOM     13  N   UNL     1       8.241   4.397  17.461  0.00  0.00    +0.000 NA
ATOM     14  O   UNL     1       7.790   4.042  16.218  0.00  0.00    +0.000 OA
ATOM     15  C   UNL     1       6.479   4.397  16.067  0.00  0.00    +0.000 A 
ATOM     16  C   UNL     1       5.959   4.080  14.727  0.00  0.00    +0.000 C 
ATOM     17  C   UNL     1       6.028   4.986  17.241  0.00  0.00    +0.000 A 
ENDBRANCH   7  17
ENDBRANCH   1   9
BRANCH   6  18
ATOM     18  O   UNL     1       1.185   6.234  20.696  0.00  0.00    +0.000 OA
BRANCH  18  19
ATOM     19  C   UNL     1       1.518   7.563  21.126  0.00  0.00    +0.000 C 
BRANCH  19  20
ATOM     20  C   UNL     1       0.984   8.669  20.236  0.00  0.00    +0.000 A 
ATOM     21  C   UNL     1       0.015   9.584  20.668  0.00  0.00    +0.000 A 
ATOM     22  C   UNL     1      -0.367  10.655  19.852  0.00  0.00    +0.000 A 
ATOM     23  C   UNL     1       0.213  10.829  18.598  0.00  0.00    +0.000 A 
ATOM     24  C   UNL     1       1.186   9.935  18.157  0.00  0.00    +0.000 A 
ATOM     25  C   UNL     1       1.569   8.868  18.972  0.00  0.00    +0.000 A 
ENDBRANCH  19  20
ENDBRANCH  18  19
ENDBRANCH   6  18
TORSDOF 5
ENDMDL
MODEL 4
REMARK VINA RESULT:      -7.9      0.514      1.676
REMARK  Name = 
REMARK  7 active torsions:
REMARK  status: ('A' for Active; 'I' for Inactive)
REMARK    1  A    between atoms: C_1  and  C_2
REMARK    2  A    between atoms: C_5  and  C_6
REMARK    3  A    between atoms: C_7  and  C_8
REMARK    4  A    between atoms: N_10  and  C_11
REMARK    5  A    between atoms: C_16  and  O_17
REMARK    6  A    between atoms: O_17  and  C_18
REMARK    7  A    between atoms: C_18  and  C_19
REMARK                            x       y       z     vdW  Elec       q    Type
REMARK                         _______ _______ _______ _____ _____    ______ ____
ROOT
ATOM      1  C   UNL     1       2.670   5.834  19.015  0.00  0.00    +0.000 C 
ATOM      2  C   UNL     1       1.557   5.031  18.331  0.00  0.00    +0.000 C 
ATOM      3  C   UNL     1       1.299   3.701  19.027  0.00  0.00    +0.000 C 
ATOM      4  O   UNL     1       1.085   3.865  20.425  0.00  0.00    +0.000 OA
ATOM      5  C   UNL     1       2.191   4.494  21.077  0.00  0.00    +0.000 C 
ATOM      6  C   UNL     1       2.412   5.922  20.549  0.00  0.00    +0.000 C 
ENDROOT
BRANCH   1   9
ATOM      7  C   UNL     1       4.804   5.923  17.721  0.00  0.00    +0.000 C 
ATOM      8  O   UNL     1       4.423   6.973  17.203  0.00  0.00    +0.000 OA
ATOM      9  N   UNL     1       4.011   5.291  18.660  0.00  0.00    +0.000 N 
ATOM     10  H   UNL     1       4.355   4.470  19.132  0.00  0.00    +0.000 HD
BRANCH   7  17
ATOM     11  C   UNL     1       5.440   4.448  14.961  0.00  0.00    +0.000 C 
ATOM     12  C   UNL     1       6.362   4.694  16.097  0.00  0.00    +0.000 A 
ATOM     13  N   UNL     1       7.623   4.264  16.012  0.00  0.00    +0.000 NA
ATOM     14  O   UNL     1       8.206   4.590  17.207  0.00  0.00    +0.000 OA
ATOM     15  C   UNL     1       7.307   5.221  18.020  0.00  0.00    +0.000 A 
ATOM     16  C   UNL     1       7.872   5.551  19.339  0.00  0.00    +0.000 C 
ATOM     17  C   UNL     1       6.095   5.341  17.353  0.00  0.00    +0.000 A 
ENDBRANCH   7  17
ENDBRANCH   1   9
BRANCH   6  18
ATOM     18  O   UNL     1       1.252   6.765  20.794  0.00  0.00    +0.000 OA
BRANCH  18  19
ATOM     19  C   UNL     1       1.443   8.124  20.374  0.00  0.00    +0.000 C 
BRANCH  19  20
ATOM     20  C   UNL     1       0.629   9.146  21.144  0.00  0.00    +0.000 A 
ATOM     21  C   UNL     1      -0.028   8.841  22.343  0.00  0.00    +0.000 A 
ATOM     22  C   UNL     1      -0.674   9.843  23.077  0.00  0.00    +0.000 A 
ATOM     23  C   UNL     1      -0.671  11.161  22.626  0.00  0.00    +0.000 A 
ATOM     24  C   UNL     1      -0.014  11.484  21.441  0.00  0.00    +0.000 A 
ATOM     25  C   UNL     1       0.633  10.485  20.710  0.00  0.00    +0.000 A 
ENDBRANCH  19  20
ENDBRANCH  18  19
ENDBRANCH   6  18
TORSDOF 5
ENDMDL
MODEL 5
REMARK VINA RESULT:      -7.8      1.049      2.306
REMARK  Name = 
REMARK  7 active torsions:
REMARK  status: ('A' for Active; 'I' for Inactive)
REMARK    1  A    between atoms: C_1  and  C_2
REMARK    2  A    between atoms: C_5  and  C_6
REMARK    3  A    between atoms: C_7  and  C_8
REMARK    4  A    between atoms: N_10  and  C_11
REMARK    5  A    between atoms: C_16  and  O_17
REMARK    6  A    between atoms: O_17  and  C_18
REMARK    7  A    between atoms: C_18  and  C_19
REMARK                            x       y       z     vdW  Elec       q    Type
REMARK                         _______ _______ _______ _____ _____    ______ ____
ROOT
ATOM      1  C   UNL     1       2.480   5.298  18.875  0.00  0.00    +0.000 C 
ATOM      2  C   UNL     1       1.417   4.303  18.392  0.00  0.00    +0.000 C 
ATOM      3  C   UNL     1       1.363   3.054  19.261  0.00  0.00    +0.000 C 
ATOM      4  O   UNL     1       1.235   3.373  20.642  0.00  0.00    +0.000 OA
ATOM      5  C   UNL     1       2.308   4.190  21.116  0.00  0.00    +0.000 C 
ATOM      6  C   UNL     1       2.327   5.554  20.404  0.00  0.00    +0.000 C 
ENDROOT
BRANCH   1   9
ATOM      7  C   UNL     1       4.707   5.722  17.829  0.00  0.00    +0.000 C 
ATOM      8  O   UNL     1       4.368   6.888  17.627  0.00  0.00    +0.000 OA
ATOM      9  N   UNL     1       3.843   4.855  18.471  0.00  0.00    +0.000 N 
ATOM     10  H   UNL     1       4.149   3.921  18.696  0.00  0.00    +0.000 HD
BRANCH   7  17
ATOM     11  C   UNL     1       5.330   4.308  15.034  0.00  0.00    +0.000 C 
ATOM     12  C   UNL     1       6.281   4.625  16.128  0.00  0.00    +0.000 A 
ATOM     13  N   UNL     1       7.567   4.299  15.981  0.00  0.00    +0.000 NA
ATOM     14  O   UNL     1       8.177   4.670  17.149  0.00  0.00    +0.000 OA
ATOM     15  C   UNL     1       7.270   5.225  18.007  0.00  0.00    +0.000 A 
ATOM     16  C   UNL     1       7.868   5.597  19.299  0.00  0.00    +0.000 C 
ATOM     17  C   UNL     1       6.022   5.247  17.398  0.00  0.00    +0.000 A 
ENDBRANCH   7  17
ENDBRANCH   1   9
BRANCH   6  18
ATOM     18  O   UNL     1       1.100   6.297  20.647  0.00  0.00    +0.000 OA
BRANCH  18  19
ATOM     19  C   UNL     1       1.328   7.594  21.219  0.00  0.00    +0.000 C 
BRANCH  19  20
ATOM     20  C   UNL     1       0.992   8.758  20.308  0.00  0.00    +0.000 A 
ATOM     21  C   UNL     1       1.591   8.933  19.053  0.00  0.00    +0.000 A 
ATOM     22  C   UNL     1       1.169   9.959  18.199  0.00  0.00    +0.000 A 
ATOM     23  C   UNL     1       0.145  10.822  18.584  0.00  0.00    +0.000 A 
ATOM     24  C   UNL     1      -0.467  10.657  19.824  0.00  0.00    +0.000 A 
ATOM     25  C   UNL     1      -0.049   9.631  20.675  0.00  0.00    +0.000 A 
ENDBRANCH  19  20
ENDBRANCH  18  19
ENDBRANCH   6  18
TORSDOF 5
ENDMDL
MODEL 6
REMARK VINA RESULT:      -7.8      3.310      8.597
REMARK  Name = 
REMARK  7 active torsions:
REMARK  status: ('A' for Active; 'I' for Inactive)
REMARK    1  A    between atoms: C_1  and  C_2
REMARK    2  A    between atoms: C_5  and  C_6
REMARK    3  A    between atoms: C_7  and  C_8
REMARK    4  A    between atoms: N_10  and  C_11
REMARK    5  A    between atoms: C_16  and  O_17
REMARK    6  A    between atoms: O_17  and  C_18
REMARK    7  A    between atoms: C_18  and  C_19
REMARK                            x       y       z     vdW  Elec       q    Type
REMARK                         _______ _______ _______ _____ _____    ______ ____
ROOT
ATOM      1  C   UNL     1       4.796   5.449  16.949  0.00  0.00    +0.000 C 
ATOM      2  C   UNL     1       5.253   6.908  17.061  0.00  0.00    +0.000 C 
ATOM      3  C   UNL     1       6.712   7.022  17.482  0.00  0.00    +0.000 C 
ATOM      4  O   UNL     1       7.566   6.236  16.658  0.00  0.00    +0.000 OA
ATOM      5  C   UNL     1       7.213   4.851  16.669  0.00  0.00    +0.000 C 
ATOM      6  C   UNL     1       5.805   4.629  16.090  0.00  0.00    +0.000 C 
ENDROOT
BRANCH   1   9
ATOM      7  C   UNL     1       3.464   4.028  18.513  0.00  0.00    +0.000 C 
ATOM      8  O   UNL     1       2.732   3.716  17.573  0.00  0.00    +0.000 OA
ATOM      9  N   UNL     1       4.541   4.868  18.297  0.00  0.00    +0.000 N 
ATOM     10  H   UNL     1       5.178   5.066  19.052  0.00  0.00    +0.000 HD
BRANCH   7  17
ATOM     11  C   UNL     1       1.357   5.244  20.581  0.00  0.00    +0.000 C 
ATOM     12  C   UNL     1       2.242   4.067  20.766  0.00  0.00    +0.000 A 
ATOM     13  N   UNL     1       2.196   3.399  21.920  0.00  0.00    +0.000 NA
ATOM     14  O   UNL     1       3.138   2.412  21.813  0.00  0.00    +0.000 OA
ATOM     15  C   UNL     1       3.757   2.472  20.596  0.00  0.00    +0.000 A 
ATOM     16  C   UNL     1       4.814   1.459  20.448  0.00  0.00    +0.000 C 
ATOM     17  C   UNL     1       3.206   3.511  19.856  0.00  0.00    +0.000 A 
ENDBRANCH   7  17
ENDBRANCH   1   9
BRANCH   6  18
ATOM     18  O   UNL     1       5.724   5.067  14.705  0.00  0.00    +0.000 OA
BRANCH  18  19
ATOM     19  C   UNL     1       6.699   4.443  13.858  0.00  0.00    +0.000 C 
BRANCH  19  20
ATOM     20  C   UNL     1       6.120   3.614  12.727  0.00  0.00    +0.000 A 
ATOM     21  C   UNL     1       6.816   2.553  12.135  0.00  0.00    +0.000 A 
ATOM     22  C   UNL     1       6.199   1.746  11.171  0.00  0.00    +0.000 A 
ATOM     23  C   UNL     1       4.881   1.986  10.788  0.00  0.00    +0.000 A 
ATOM     24  C   UNL     1       4.171   3.031  11.373  0.00  0.00    +0.000 A 
ATOM     25  C   UNL     1       4.785   3.835  12.337  0.00  0.00    +0.000 A 
ENDBRANCH  19  20
ENDBRANCH  18  19
ENDBRANCH   6  18
TORSDOF 5
ENDMDL
MODEL 7
REMARK VINA RESULT:      -7.7      0.934      2.136
REMARK  Name = 
REMARK  7 active torsions:
REMARK  status: ('A' for Active; 'I' for Inactive)
REMARK    1  A    between atoms: C_1  and  C_2
REMARK    2  A    between atoms: C_5  and  C_6
REMARK    3  A    between atoms: C_7  and  C_8
REMARK    4  A    between atoms: N_10  and  C_11
REMARK    5  A    between atoms: C_16  and  O_17
REMARK    6  A    between atoms: O_17  and  C_18
REMARK    7  A    between atoms: C_18  and  C_19
REMARK                            x       y       z     vdW  Elec       q    Type
REMARK                         _______ _______ _______ _____ _____    ______ ____
ROOT
ATOM      1  C   UNL     1       2.582   5.759  18.943  0.00  0.00    +0.000 C 
ATOM      2  C   UNL     1       1.503   4.940  18.224  0.00  0.00    +0.000 C 
ATOM      3  C   UNL     1       1.271   3.589  18.888  0.00  0.00    +0.000 C 
ATOM      4  O   UNL     1       1.029   3.718  20.285  0.00  0.00    +0.000 OA
ATOM      5  C   UNL     1       2.106   4.363  20.969  0.00  0.00    +0.000 C 
ATOM      6  C   UNL     1       2.296   5.808  20.474  0.00  0.00    +0.000 C 
ENDROOT
BRANCH   1   9
ATOM      7  C   UNL     1       4.707   5.894  17.638  0.00  0.00    +0.000 C 
ATOM      8  O   UNL     1       4.281   6.910  17.088  0.00  0.00    +0.000 OA
ATOM      9  N   UNL     1       3.943   5.260  18.600  0.00  0.00    +0.000 N 
ATOM     10  H   UNL     1       4.323   4.470  19.097  0.00  0.00    +0.000 HD
BRANCH   7  17
ATOM     11  C   UNL     1       5.421   4.447  14.882  0.00  0.00    +0.000 C 
ATOM     12  C   UNL     1       6.322   4.719  16.030  0.00  0.00    +0.000 A 
ATOM     13  N   UNL     1       7.596   4.330  15.958  0.00  0.00    +0.000 NA
ATOM     14  O   UNL     1       8.155   4.671  17.160  0.00  0.00    +0.000 OA
ATOM     15  C   UNL     1       7.227   5.271  17.965  0.00  0.00    +0.000 A 
ATOM     16  C   UNL     1       7.766   5.615  19.290  0.00  0.00    +0.000 C 
ATOM     17  C   UNL     1       6.019   5.355  17.283  0.00  0.00    +0.000 A 
ENDBRANCH   7  17
ENDBRANCH   1   9
BRANCH   6  18
ATOM     18  O   UNL     1       1.109   6.613  20.715  0.00  0.00    +0.000 OA
BRANCH  18  19
ATOM     19  C   UNL     1       1.409   7.939  21.174  0.00  0.00    +0.000 C 
BRANCH  19  20
ATOM     20  C   UNL     1       0.783   9.051  20.354  0.00  0.00    +0.000 A 
ATOM     21  C   UNL     1      -0.190   9.915  20.872  0.00  0.00    +0.000 A 
ATOM     22  C   UNL     1      -0.659  10.996  20.115  0.00  0.00    +0.000 A 
ATOM     23  C   UNL     1      -0.162  11.229  18.834  0.00  0.00    +0.000 A 
ATOM     24  C   UNL     1       0.812  10.386  18.307  0.00  0.00    +0.000 A 
ATOM     25  C   UNL     1       1.283   9.309  19.063  0.00  0.00    +0.000 A 
ENDBRANCH  19  20
ENDBRANCH  18  19
ENDBRANCH   6  18
TORSDOF 5
ENDMDL
MODEL 8
REMARK VINA RESULT:      -7.5      2.998      8.649
REMARK  Name = 
REMARK  7 active torsions:
REMARK  status: ('A' for Active; 'I' for Inactive)
REMARK    1  A    between atoms: C_1  and  C_2
REMARK    2  A    between atoms: C_5  and  C_6
REMARK    3  A    between atoms: C_7  and  C_8
REMARK    4  A    between atoms: N_10  and  C_11
REMARK    5  A    between atoms: C_16  and  O_17
REMARK    6  A    between atoms: O_17  and  C_18
REMARK    7  A    between atoms: C_18  and  C_19
REMARK                            x       y       z     vdW  Elec       q    Type
REMARK                         _______ _______ _______ _____ _____    ______ ____
ROOT
ATOM      1  C   UNL     1       4.798   5.661  16.776  0.00  0.00    +0.000 C 
ATOM      2  C   UNL     1       5.372   7.082  16.837  0.00  0.00    +0.000 C 
ATOM      3  C   UNL     1       6.824   7.095  17.296  0.00  0.00    +0.000 C 
ATOM      4  O   UNL     1       7.631   6.205  16.531  0.00  0.00    +0.000 OA
ATOM      5  C   UNL     1       7.164   4.855  16.592  0.00  0.00    +0.000 C 
ATOM      6  C   UNL     1       5.757   4.723  15.983  0.00  0.00    +0.000 C 
ENDROOT
BRANCH   1   9
ATOM      7  C   UNL     1       3.325   4.409  18.356  0.00  0.00    +0.000 C 
ATOM      8  O   UNL     1       2.604   4.100  17.407  0.00  0.00    +0.000 OA
ATOM      9  N   UNL     1       4.462   5.165  18.139  0.00  0.00    +0.000 N 
ATOM     10  H   UNL     1       5.086   5.357  18.907  0.00  0.00    +0.000 HD
BRANCH   7  17
ATOM     11  C   UNL     1       4.225   1.649  19.686  0.00  0.00    +0.000 C 
ATOM     12  C   UNL     1       3.418   2.735  20.296  0.00  0.00    +0.000 A 
ATOM     13  N   UNL     1       2.986   2.593  21.550  0.00  0.00    +0.000 NA
ATOM     14  O   UNL     1       2.246   3.714  21.815  0.00  0.00    +0.000 OA
ATOM     15  C   UNL     1       2.228   4.542  20.729  0.00  0.00    +0.000 A 
ATOM     16  C   UNL     1       1.405   5.742  20.945  0.00  0.00    +0.000 C 
ATOM     17  C   UNL     1       2.990   3.977  19.713  0.00  0.00    +0.000 A 
ENDBRANCH   7  17
ENDBRANCH   1   9
BRANCH   6  18
ATOM     18  O   UNL     1       5.749   5.103  14.579  0.00  0.00    +0.000 OA
BRANCH  18  19
ATOM     19  C   UNL     1       6.705   4.378  13.791  0.00  0.00    +0.000 C 
BRANCH  19  20
ATOM     20  C   UNL     1       6.109   3.561  12.661  0.00  0.00    +0.000 A 
ATOM     21  C   UNL     1       6.783   2.486  12.068  0.00  0.00    +0.000 A 
ATOM     22  C   UNL     1       6.150   1.692  11.105  0.00  0.00    +0.000 A 
ATOM     23  C   UNL     1       4.837   1.957  10.723  0.00  0.00    +0.000 A 
ATOM     24  C   UNL     1       4.148   3.015  11.310  0.00  0.00    +0.000 A 
ATOM     25  C   UNL     1       4.778   3.807  12.273  0.00  0.00    +0.000 A 
ENDBRANCH  19  20
ENDBRANCH  18  19
ENDBRANCH   6  18
TORSDOF 5
ENDMDL
MODEL 9
REMARK VINA RESULT:      -7.4      1.400      1.943
REMARK  Name = 
REMARK  7 active torsions:
REMARK  status: ('A' for Active; 'I' for Inactive)
REMARK    1  A    between atoms: C_1  and  C_2
REMARK    2  A    between atoms: C_5  and  C_6
REMARK    3  A    between atoms: C_7  and  C_8
REMARK    4  A    between atoms: N_10  and  C_11
REMARK    5  A    between atoms: C_16  and  O_17
REMARK    6  A    between atoms: O_17  and  C_18
REMARK    7  A    between atoms: C_18  and  C_19
REMARK                            x       y       z     vdW  Elec       q    Type
REMARK                         _______ _______ _______ _____ _____    ______ ____
ROOT
ATOM      1  C   UNL     1       2.505   5.221  18.219  0.00  0.00    +0.000 C 
ATOM      2  C   UNL     1       1.440   4.170  17.889  0.00  0.00    +0.000 C 
ATOM      3  C   UNL     1       1.669   2.865  18.639  0.00  0.00    +0.000 C 
ATOM      4  O   UNL     1       1.822   3.076  20.039  0.00  0.00    +0.000 OA
ATOM      5  C   UNL     1       2.909   3.953  20.343  0.00  0.00    +0.000 C 
ATOM      6  C   UNL     1       2.671   5.358  19.763  0.00  0.00    +0.000 C 
ENDROOT
BRANCH   1   9
ATOM      7  C   UNL     1       4.510   5.951  16.921  0.00  0.00    +0.000 C 
ATOM      8  O   UNL     1       4.135   7.118  17.037  0.00  0.00    +0.000 OA
ATOM      9  N   UNL     1       3.777   4.932  17.501  0.00  0.00    +0.000 N 
ATOM     10  H   UNL     1       4.123   3.986  17.462  0.00  0.00    +0.000 HD
BRANCH   7  17
ATOM     11  C   UNL     1       7.434   7.011  17.640  0.00  0.00    +0.000 C 
ATOM     12  C   UNL     1       7.038   6.113  16.528  0.00  0.00    +0.000 A 
ATOM     13  N   UNL     1       7.977   5.666  15.692  0.00  0.00    +0.000 NA
ATOM     14  O   UNL     1       7.314   4.911  14.762  0.00  0.00    +0.000 OA
ATOM     15  C   UNL     1       5.974   4.892  15.029  0.00  0.00    +0.000 A 
ATOM     16  C   UNL     1       5.209   4.131  14.029  0.00  0.00    +0.000 C 
ATOM     17  C   UNL     1       5.728   5.635  16.177  0.00  0.00    +0.000 A 
ENDBRANCH   7  17
ENDBRANCH   1   9
BRANCH   6  18
ATOM     18  O   UNL     1       1.475   5.969  20.322  0.00  0.00    +0.000 OA
BRANCH  18  19
ATOM     19  C   UNL     1       1.730   7.229  20.960  0.00  0.00    +0.000 C 
BRANCH  19  20
ATOM     20  C   UNL     1       1.256   8.442  20.181  0.00  0.00    +0.000 A 
ATOM     21  C   UNL     1       1.655   8.695  18.863  0.00  0.00    +0.000 A 
ATOM     22  C   UNL     1       1.106   9.766  18.146  0.00  0.00    +0.000 A 
ATOM     23  C   UNL     1       0.153  10.594  18.734  0.00  0.00    +0.000 A 
ATOM     24  C   UNL     1      -0.262  10.350  20.040  0.00  0.00    +0.000 A 
ATOM     25  C   UNL     1       0.282   9.281  20.755  0.00  0.00    +0.000 A 
ENDBRANCH  19  20
ENDBRANCH  18  19
ENDBRANCH   6  18
TORSDOF 5
ENDMDL
