MODEL 1
REMARK VINA RESULT:      -7.3      0.000      0.000
REMARK  Name = 
REMARK  6 active torsions:
REMARK  status: ('A' for Active; 'I' for Inactive)
REMARK    1  A    between atoms: C_1  and  C_2
REMARK    2  A    between atoms: C_4  and  O_5
REMARK    3  A    between atoms: C_4  and  C_6
REMARK    4  A    between atoms: C_6  and  C_7
REMARK    5  A    between atoms: C_7  and  O_9
REMARK    6  A    between atoms: C_12  and  C_13
REMARK                            x       y       z     vdW  Elec       q    Type
REMARK                         _______ _______ _______ _____ _____    ______ ____
ROOT
ATOM      1  C   UNL     1       5.894   4.415  13.956  0.00  0.00    +0.000 C 
ATOM      2  C   UNL     1       5.461   4.627  15.401  0.00  0.00    +0.000 C 
ATOM      3  C   UNL     1       6.619   4.373  16.359  0.00  0.00    +0.000 C 
ATOM      4  C   UNL     1       6.191   4.770  17.779  0.00  0.00    +0.000 C 
ATOM      5  C   UNL     1       4.843   4.126  18.068  0.00  0.00    +0.000 A 
ATOM      6  C   UNL     1       4.392   3.972  19.396  0.00  0.00    +0.000 A 
ATOM      7  C   UNL     1       3.169   3.351  19.671  0.00  0.00    +0.000 A 
ATOM      8  C   UNL     1       2.396   2.878  18.616  0.00  0.00    +0.000 A 
ATOM      9  F   UNL     1       1.224   2.272  18.849  0.00  0.00    +0.000 F 
ATOM     10  C   UNL     1       2.821   3.025  17.296  0.00  0.00    +0.000 A 
ATOM     11  C   UNL     1       4.033   3.658  17.021  0.00  0.00    +0.000 A 
ATOM     12  O   UNL     1       4.368   3.748  15.693  0.00  0.00    +0.000 OA
ENDROOT
BRANCH   4  13
ATOM     13  O   UNL     1       7.130   4.217  18.706  0.00  0.00    +0.000 OA
ATOM     14  H   UNL     1       6.654   3.540  19.235  0.00  0.00    +0.000 HD
ENDBRANCH   4  13
BRANCH   7  15
ATOM     15  C   UNL     1       2.718   3.202  21.024  0.00  0.00    +0.000 C 
ATOM     16  N   UNL     1       2.339   3.116  22.116  0.00  0.00    +0.000 NA
ENDBRANCH   7  15
BRANCH   4  17
ATOM     17  C   UNL     1       6.087   6.297  17.997  0.00  0.00    +0.000 C 
BRANCH  17  18
ATOM     18  C   UNL     1       7.428   6.974  17.860  0.00  0.00    +0.000 C 
ATOM     19  O   UNL     1       7.767   7.622  16.880  0.00  0.00    +0.000 OA
BRANCH  18  20
ATOM     20  O   UNL     1       8.243   6.784  18.917  0.00  0.00    +0.000 OA
ATOM     21  H   UNL     1       8.087   5.965  19.426  0.00  0.00    +0.000 HD
ENDBRANCH  18  20
ENDBRANCH  17  18
ENDBRANCH   4  17
TORSDOF 5
ENDMDL
MODEL 2
REMARK VINA RESULT:      -6.9      3.738      5.878
REMARK  Name = 
REMARK  6 active torsions:
REMARK  status: ('A' for Active; 'I' for Inactive)
REMARK    1  A    between atoms: C_1  and  C_2
REMARK    2  A    between atoms: C_4  and  O_5
REMARK    3  A    between atoms: C_4  and  C_6
REMARK    4  A    between atoms: C_6  and  C_7
REMARK    5  A    between atoms: C_7  and  O_9
REMARK    6  A    between atoms: C_12  and  C_13
REMARK                            x       y       z     vdW  Elec       q    Type
REMARK                         _______ _______ _______ _____ _____    ______ ____
ROOT
ATOM      1  C   UNL     1       7.775   5.948  19.240  0.00  0.00    +0.000 C 
ATOM      2  C   UNL     1       6.822   5.622  18.098  0.00  0.00    +0.000 C 
ATOM      3  C   UNL     1       6.044   4.343  18.387  0.00  0.00    +0.000 C 
ATOM      4  C   UNL     1       4.974   4.152  17.303  0.00  0.00    +0.000 C 
ATOM      5  C   UNL     1       5.638   4.319  15.944  0.00  0.00    +0.000 A 
ATOM      6  C   UNL     1       5.022   3.813  14.779  0.00  0.00    +0.000 A 
ATOM      7  C   UNL     1       5.642   3.932  13.530  0.00  0.00    +0.000 A 
ATOM      8  C   UNL     1       6.882   4.556  13.446  0.00  0.00    +0.000 A 
ATOM      9  F   UNL     1       7.503   4.678  12.265  0.00  0.00    +0.000 F 
ATOM     10  C   UNL     1       7.505   5.067  14.583  0.00  0.00    +0.000 A 
ATOM     11  C   UNL     1       6.880   4.962  15.826  0.00  0.00    +0.000 A 
ATOM     12  O   UNL     1       7.575   5.488  16.886  0.00  0.00    +0.000 OA
ENDROOT
BRANCH   4  13
ATOM     13  O   UNL     1       4.492   2.807  17.374  0.00  0.00    +0.000 OA
ATOM     14  H   UNL     1       5.249   2.238  17.631  0.00  0.00    +0.000 HD
ENDBRANCH   4  13
BRANCH   7  15
ATOM     15  C   UNL     1       5.008   3.418  12.352  0.00  0.00    +0.000 C 
ATOM     16  N   UNL     1       4.524   2.979  11.394  0.00  0.00    +0.000 NA
ENDBRANCH   7  15
BRANCH   4  17
ATOM     17  C   UNL     1       3.786   5.134  17.417  0.00  0.00    +0.000 C 
BRANCH  17  18
ATOM     18  C   UNL     1       2.551   4.457  17.956  0.00  0.00    +0.000 C 
ATOM     19  O   UNL     1       1.628   4.065  17.257  0.00  0.00    +0.000 OA
BRANCH  18  20
ATOM     20  O   UNL     1       2.541   4.334  19.300  0.00  0.00    +0.000 OA
ATOM     21  H   UNL     1       1.667   4.158  19.698  0.00  0.00    +0.000 HD
ENDBRANCH  18  20
ENDBRANCH  17  18
ENDBRANCH   4  17
TORSDOF 5
ENDMDL
MODEL 3
REMARK VINA RESULT:      -6.6      0.842      1.124
REMARK  Name = 
REMARK  6 active torsions:
REMARK  status: ('A' for Active; 'I' for Inactive)
REMARK    1  A    between atoms: C_1  and  C_2
REMARK    2  A    between atoms: C_4  and  O_5
REMARK    3  A    between atoms: C_4  and  C_6
REMARK    4  A    between atoms: C_6  and  C_7
REMARK    5  A    between atoms: C_7  and  O_9
REMARK    6  A    between atoms: C_12  and  C_13
REMARK                            x       y       z     vdW  Elec       q    Type
REMARK                         _______ _______ _______ _____ _____    ______ ____
ROOT
ATOM      1  C   UNL     1       6.214   4.902  13.664  0.00  0.00    +0.000 C 
ATOM      2  C   UNL     1       5.873   4.927  15.149  0.00  0.00    +0.000 C 
ATOM      3  C   UNL     1       7.039   4.409  15.983  0.00  0.00    +0.000 C 
ATOM      4  C   UNL     1       6.723   4.620  17.471  0.00  0.00    +0.000 C 
ATOM      5  C   UNL     1       5.326   4.081  17.742  0.00  0.00    +0.000 A 
ATOM      6  C   UNL     1       4.922   3.767  19.058  0.00  0.00    +0.000 A 
ATOM      7  C   UNL     1       3.651   3.240  19.312  0.00  0.00    +0.000 A 
ATOM      8  C   UNL     1       2.783   3.021  18.247  0.00  0.00    +0.000 A 
ATOM      9  F   UNL     1       1.563   2.509  18.459  0.00  0.00    +0.000 F 
ATOM     10  C   UNL     1       3.161   3.328  16.941  0.00  0.00    +0.000 A 
ATOM     11  C   UNL     1       4.422   3.869  16.690  0.00  0.00    +0.000 A 
ATOM     12  O   UNL     1       4.703   4.130  15.372  0.00  0.00    +0.000 OA
ENDROOT
BRANCH   4  13
ATOM     13  O   UNL     1       7.635   3.834  18.244  0.00  0.00    +0.000 OA
ATOM     14  H   UNL     1       7.100   3.229  18.802  0.00  0.00    +0.000 HD
ENDBRANCH   4  13
BRANCH   7  15
ATOM     15  C   UNL     1       3.249   2.928  20.652  0.00  0.00    +0.000 C 
ATOM     16  N   UNL     1       2.888   2.683  21.725  0.00  0.00    +0.000 NA
ENDBRANCH   7  15
BRANCH   4  17
ATOM     17  C   UNL     1       6.800   6.096  17.923  0.00  0.00    +0.000 C 
BRANCH  17  18
ATOM     18  C   UNL     1       7.675   6.262  19.140  0.00  0.00    +0.000 C 
ATOM     19  O   UNL     1       7.564   5.591  20.156  0.00  0.00    +0.000 OA
BRANCH  18  20
ATOM     20  O   UNL     1       8.591   7.244  19.020  0.00  0.00    +0.000 OA
ATOM     21  H   UNL     1       9.292   7.250  19.701  0.00  0.00    +0.000 HD
ENDBRANCH  18  20
ENDBRANCH  17  18
ENDBRANCH   4  17
TORSDOF 5
ENDMDL
MODEL 4
REMARK VINA RESULT:      -6.4      3.410      4.496
REMARK  Name = 
REMARK  6 active torsions:
REMARK  status: ('A' for Active; 'I' for Inactive)
REMARK    1  A    between atoms: C_1  and  C_2
REMARK    2  A    between atoms: C_4  and  O_5
REMARK    3  A    between atoms: C_4  and  C_6
REMARK    4  A    between atoms: C_6  and  C_7
REMARK    5  A    between atoms: C_7  and  O_9
REMARK    6  A    between atoms: C_12  and  C_13
REMARK                            x       y       z     vdW  Elec       q    Type
REMARK                         _______ _______ _______ _____ _____    ______ ____
ROOT
ATOM      1  C   UNL     1       5.795   4.147  15.064  0.00  0.00    +0.000 C 
ATOM      2  C   UNL     1       5.206   4.567  16.405  0.00  0.00    +0.000 C 
ATOM      3  C   UNL     1       4.149   3.573  16.871  0.00  0.00    +0.000 C 
ATOM      4  C   UNL     1       3.716   3.934  18.298  0.00  0.00    +0.000 C 
ATOM      5  C   UNL     1       3.396   5.422  18.337  0.00  0.00    +0.000 A 
ATOM      6  C   UNL     1       2.602   5.957  19.374  0.00  0.00    +0.000 A 
ATOM      7  C   UNL     1       2.275   7.318  19.397  0.00  0.00    +0.000 A 
ATOM      8  C   UNL     1       2.739   8.144  18.379  0.00  0.00    +0.000 A 
ATOM      9  F   UNL     1       2.435   9.449  18.372  0.00  0.00    +0.000 F 
ATOM     10  C   UNL     1       3.528   7.636  17.349  0.00  0.00    +0.000 A 
ATOM     11  C   UNL     1       3.867   6.283  17.333  0.00  0.00    +0.000 A 
ATOM     12  O   UNL     1       4.640   5.877  16.275  0.00  0.00    +0.000 OA
ENDROOT
BRANCH   4  13
ATOM     13  O   UNL     1       2.504   3.235  18.595  0.00  0.00    +0.000 OA
ATOM     14  H   UNL     1       1.792   3.905  18.680  0.00  0.00    +0.000 HD
ENDBRANCH   4  13
BRANCH   7  15
ATOM     15  C   UNL     1       1.472   7.853  20.457  0.00  0.00    +0.000 C 
ATOM     16  N   UNL     1       0.852   8.305  21.326  0.00  0.00    +0.000 NA
ENDBRANCH   7  15
BRANCH   4  17
ATOM     17  C   UNL     1       4.777   3.611  19.375  0.00  0.00    +0.000 C 
BRANCH  17  18
ATOM     18  C   UNL     1       4.381   2.418  20.209  0.00  0.00    +0.000 C 
ATOM     19  O   UNL     1       3.461   2.425  21.014  0.00  0.00    +0.000 OA
BRANCH  18  20
ATOM     20  O   UNL     1       5.153   1.331  20.003  0.00  0.00    +0.000 OA
ATOM     21  H   UNL     1       5.000   0.586  20.616  0.00  0.00    +0.000 HD
ENDBRANCH  18  20
ENDBRANCH  17  18
ENDBRANCH   4  17
TORSDOF 5
ENDMDL
MODEL 5
REMARK VINA RESULT:      -6.3      2.471      3.205
REMARK  Name = 
REMARK  6 active torsions:
REMARK  status: ('A' for Active; 'I' for Inactive)
REMARK    1  A    between atoms: C_1  and  C_2
REMARK    2  A    between atoms: C_4  and  O_5
REMARK    3  A    between atoms: C_4  and  C_6
REMARK    4  A    between atoms: C_6  and  C_7
REMARK    5  A    between atoms: C_7  and  O_9
REMARK    6  A    between atoms: C_12  and  C_13
REMARK                            x       y       z     vdW  Elec       q    Type
REMARK                         _______ _______ _______ _____ _____    ______ ____
ROOT
ATOM      1  C   UNL     1       2.105   8.650  17.812  0.00  0.00    +0.000 C 
ATOM      2  C   UNL     1       3.053   7.539  18.245  0.00  0.00    +0.000 C 
ATOM      3  C   UNL     1       3.615   6.802  17.035  0.00  0.00    +0.000 C 
ATOM      4  C   UNL     1       4.696   5.819  17.505  0.00  0.00    +0.000 C 
ATOM      5  C   UNL     1       4.132   5.009  18.664  0.00  0.00    +0.000 A 
ATOM      6  C   UNL     1       4.720   3.781  19.033  0.00  0.00    +0.000 A 
ATOM      7  C   UNL     1       4.187   3.014  20.075  0.00  0.00    +0.000 A 
ATOM      8  C   UNL     1       3.060   3.475  20.747  0.00  0.00    +0.000 A 
ATOM      9  F   UNL     1       2.522   2.758  21.744  0.00  0.00    +0.000 F 
ATOM     10  C   UNL     1       2.466   4.687  20.401  0.00  0.00    +0.000 A 
ATOM     11  C   UNL     1       3.007   5.459  19.373  0.00  0.00    +0.000 A 
ATOM     12  O   UNL     1       2.348   6.632  19.101  0.00  0.00    +0.000 OA
ENDROOT
BRANCH   4  13
ATOM     13  O   UNL     1       4.967   4.901  16.442  0.00  0.00    +0.000 OA
ATOM     14  H   UNL     1       5.925   4.965  16.237  0.00  0.00    +0.000 HD
ENDBRANCH   4  13
BRANCH   7  15
ATOM     15  C   UNL     1       4.794   1.769  20.445  0.00  0.00    +0.000 C 
ATOM     16  N   UNL     1       5.305   0.781  20.770  0.00  0.00    +0.000 NA
ENDBRANCH   7  15
BRANCH   4  17
ATOM     17  C   UNL     1       6.011   6.499  17.948  0.00  0.00    +0.000 C 
BRANCH  17  18
ATOM     18  C   UNL     1       7.198   5.979  17.176  0.00  0.00    +0.000 C 
ATOM     19  O   UNL     1       7.574   6.443  16.110  0.00  0.00    +0.000 OA
BRANCH  18  20
ATOM     20  O   UNL     1       7.807   4.927  17.761  0.00  0.00    +0.000 OA
ATOM     21  H   UNL     1       7.226   4.170  17.972  0.00  0.00    +0.000 HD
ENDBRANCH  18  20
ENDBRANCH  17  18
ENDBRANCH   4  17
TORSDOF 5
ENDMDL
MODEL 6
REMARK VINA RESULT:      -6.2      8.000      8.765
REMARK  Name = 
REMARK  6 active torsions:
REMARK  status: ('A' for Active; 'I' for Inactive)
REMARK    1  A    between atoms: C_1  and  C_2
REMARK    2  A    between atoms: C_4  and  O_5
REMARK    3  A    between atoms: C_4  and  C_6
REMARK    4  A    between atoms: C_6  and  C_7
REMARK    5  A    between atoms: C_7  and  O_9
REMARK    6  A    between atoms: C_12  and  C_13
REMARK                            x       y       z     vdW  Elec       q    Type
REMARK                         _______ _______ _______ _____ _____    ______ ____
ROOT
ATOM      1  C   UNL     1       2.859   7.807  17.741  0.00  0.00    +0.000 C 
ATOM      2  C   UNL     1       1.665   8.486  18.399  0.00  0.00    +0.000 C 
ATOM      3  C   UNL     1       1.544   9.936  17.942  0.00  0.00    +0.000 C 
ATOM      4  C   UNL     1       0.234  10.524  18.484  0.00  0.00    +0.000 C 
ATOM      5  C   UNL     1       0.150  10.211  19.971  0.00  0.00    +0.000 A 
ATOM      6  C   UNL     1      -0.711  10.948  20.811  0.00  0.00    +0.000 A 
ATOM      7  C   UNL     1      -0.769  10.689  22.185  0.00  0.00    +0.000 A 
ATOM      8  C   UNL     1       0.040   9.692  22.721  0.00  0.00    +0.000 A 
ATOM      9  F   UNL     1       0.012   9.427  24.035  0.00  0.00    +0.000 F 
ATOM     10  C   UNL     1       0.894   8.949  21.908  0.00  0.00    +0.000 A 
ATOM     11  C   UNL     1       0.940   9.197  20.536  0.00  0.00    +0.000 A 
ATOM     12  O   UNL     1       1.817   8.420  19.822  0.00  0.00    +0.000 OA
ENDROOT
BRANCH   4  13
ATOM     13  O   UNL     1       0.289  11.948  18.356  0.00  0.00    +0.000 OA
ATOM     14  H   UNL     1       0.903  12.280  19.046  0.00  0.00    +0.000 HD
ENDBRANCH   4  13
BRANCH   7  15
ATOM     15  C   UNL     1      -1.649  11.441  23.030  0.00  0.00    +0.000 C 
ATOM     16  N   UNL     1      -2.377  12.017  23.724  0.00  0.00    +0.000 NA
ENDBRANCH   7  15
BRANCH   4  17
ATOM     17  C   UNL     1      -1.032   9.989  17.776  0.00  0.00    +0.000 C 
BRANCH  17  18
ATOM     18  C   UNL     1      -2.028  11.089  17.508  0.00  0.00    +0.000 C 
ATOM     19  O   UNL     1      -2.835  11.493  18.333  0.00  0.00    +0.000 OA
BRANCH  18  20
ATOM     20  O   UNL     1      -1.967  11.584  16.255  0.00  0.00    +0.000 OA
ATOM     21  H   UNL     1      -1.434  12.396  16.150  0.00  0.00    +0.000 HD
ENDBRANCH  18  20
ENDBRANCH  17  18
ENDBRANCH   4  17
TORSDOF 5
ENDMDL
MODEL 7
REMARK VINA RESULT:      -6.2      3.837      6.055
REMARK  Name = 
REMARK  6 active torsions:
REMARK  status: ('A' for Active; 'I' for Inactive)
REMARK    1  A    between atoms: C_1  and  C_2
REMARK    2  A    between atoms: C_4  and  O_5
REMARK    3  A    between atoms: C_4  and  C_6
REMARK    4  A    between atoms: C_6  and  C_7
REMARK    5  A    between atoms: C_7  and  O_9
REMARK    6  A    between atoms: C_12  and  C_13
REMARK                            x       y       z     vdW  Elec       q    Type
REMARK                         _______ _______ _______ _____ _____    ______ ____
ROOT
ATOM      1  C   UNL     1       1.470   7.739  20.910  0.00  0.00    +0.000 C 
ATOM      2  C   UNL     1       1.903   6.761  19.825  0.00  0.00    +0.000 C 
ATOM      3  C   UNL     1       2.475   5.488  20.437  0.00  0.00    +0.000 C 
ATOM      4  C   UNL     1       2.728   4.466  19.320  0.00  0.00    +0.000 C 
ATOM      5  C   UNL     1       3.500   5.158  18.206  0.00  0.00    +0.000 A 
ATOM      6  C   UNL     1       4.217   4.403  17.254  0.00  0.00    +0.000 A 
ATOM      7  C   UNL     1       4.957   5.033  16.247  0.00  0.00    +0.000 A 
ATOM      8  C   UNL     1       4.983   6.422  16.195  0.00  0.00    +0.000 A 
ATOM      9  F   UNL     1       5.690   7.054  15.247  0.00  0.00    +0.000 F 
ATOM     10  C   UNL     1       4.279   7.187  17.123  0.00  0.00    +0.000 A 
ATOM     11  C   UNL     1       3.529   6.559  18.117  0.00  0.00    +0.000 A 
ATOM     12  O   UNL     1       2.877   7.396  18.988  0.00  0.00    +0.000 OA
ENDROOT
BRANCH   4  13
ATOM     13  O   UNL     1       3.570   3.430  19.836  0.00  0.00    +0.000 OA
ATOM     14  H   UNL     1       3.535   3.485  20.815  0.00  0.00    +0.000 HD
ENDBRANCH   4  13
BRANCH   7  15
ATOM     15  C   UNL     1       5.679   4.257  15.282  0.00  0.00    +0.000 C 
ATOM     16  N   UNL     1       6.274   3.661  14.486  0.00  0.00    +0.000 NA
ENDBRANCH   7  15
BRANCH   4  17
ATOM     17  C   UNL     1       1.439   3.842  18.739  0.00  0.00    +0.000 C 
BRANCH  17  18
ATOM     18  C   UNL     1       1.512   2.336  18.707  0.00  0.00    +0.000 C 
ATOM     19  O   UNL     1       1.217   1.619  19.652  0.00  0.00    +0.000 OA
BRANCH  18  20
ATOM     20  O   UNL     1       1.956   1.838  17.534  0.00  0.00    +0.000 OA
ATOM     21  H   UNL     1       1.713   2.354  16.741  0.00  0.00    +0.000 HD
ENDBRANCH  18  20
ENDBRANCH  17  18
ENDBRANCH   4  17
TORSDOF 5
ENDMDL
MODEL 8
REMARK VINA RESULT:      -6.2      1.861      3.559
REMARK  Name = 
REMARK  6 active torsions:
REMARK  status: ('A' for Active; 'I' for Inactive)
REMARK    1  A    between atoms: C_1  and  C_2
REMARK    2  A    between atoms: C_4  and  O_5
REMARK    3  A    between atoms: C_4  and  C_6
REMARK    4  A    between atoms: C_6  and  C_7
REMARK    5  A    between atoms: C_7  and  O_9
REMARK    6  A    between atoms: C_12  and  C_13
REMARK                            x       y       z     vdW  Elec       q    Type
REMARK                         _______ _______ _______ _____ _____    ______ ____
ROOT
ATOM      1  C   UNL     1       8.202   6.630  18.973  0.00  0.00    +0.000 C 
ATOM      2  C   UNL     1       7.121   5.670  18.494  0.00  0.00    +0.000 C 
ATOM      3  C   UNL     1       6.418   6.215  17.257  0.00  0.00    +0.000 C 
ATOM      4  C   UNL     1       5.468   5.142  16.707  0.00  0.00    +0.000 C 
ATOM      5  C   UNL     1       4.626   4.614  17.860  0.00  0.00    +0.000 A 
ATOM      6  C   UNL     1       3.416   3.933  17.610  0.00  0.00    +0.000 A 
ATOM      7  C   UNL     1       2.619   3.474  18.665  0.00  0.00    +0.000 A 
ATOM      8  C   UNL     1       3.033   3.700  19.973  0.00  0.00    +0.000 A 
ATOM      9  F   UNL     1       2.287   3.279  21.004  0.00  0.00    +0.000 F 
ATOM     10  C   UNL     1       4.227   4.366  20.242  0.00  0.00    +0.000 A 
ATOM     11  C   UNL     1       5.029   4.810  19.190  0.00  0.00    +0.000 A 
ATOM     12  O   UNL     1       6.180   5.461  19.555  0.00  0.00    +0.000 OA
ENDROOT
BRANCH   4  13
ATOM     13  O   UNL     1       4.572   5.762  15.780  0.00  0.00    +0.000 OA
ATOM     14  H   UNL     1       4.550   6.720  15.990  0.00  0.00    +0.000 HD
ENDBRANCH   4  13
BRANCH   7  15
ATOM     15  C   UNL     1       1.393   2.780  18.401  0.00  0.00    +0.000 C 
ATOM     16  N   UNL     1       0.392   2.223  18.224  0.00  0.00    +0.000 NA
ENDBRANCH   7  15
BRANCH   4  17
ATOM     17  C   UNL     1       6.190   3.962  16.017  0.00  0.00    +0.000 C 
BRANCH  17  18
ATOM     18  C   UNL     1       6.564   4.291  14.593  0.00  0.00    +0.000 C 
ATOM     19  O   UNL     1       7.074   5.347  14.249  0.00  0.00    +0.000 OA
BRANCH  18  20
ATOM     20  O   UNL     1       6.265   3.313  13.714  0.00  0.00    +0.000 OA
ATOM     21  H   UNL     1       6.052   3.614  12.809  0.00  0.00    +0.000 HD
ENDBRANCH  18  20
ENDBRANCH  17  18
ENDBRANCH   4  17
TORSDOF 5
ENDMDL
MODEL 9
REMARK VINA RESULT:      -6.2      2.034      3.767
REMARK  Name = 
REMARK  6 active torsions:
REMARK  status: ('A' for Active; 'I' for Inactive)
REMARK    1  A    between atoms: C_1  and  C_2
REMARK    2  A    between atoms: C_4  and  O_5
REMARK    3  A    between atoms: C_4  and  C_6
REMARK    4  A    between atoms: C_6  and  C_7
REMARK    5  A    between atoms: C_7  and  O_9
REMARK    6  A    between atoms: C_12  and  C_13
REMARK                            x       y       z     vdW  Elec       q    Type
REMARK                         _______ _______ _______ _____ _____    ______ ____
ROOT
ATOM      1  C   UNL     1       8.351   7.787  18.436  0.00  0.00    +0.000 C 
ATOM      2  C   UNL     1       7.513   6.600  17.981  0.00  0.00    +0.000 C 
ATOM      3  C   UNL     1       6.778   6.918  16.684  0.00  0.00    +0.000 C 
ATOM      4  C   UNL     1       6.096   5.643  16.169  0.00  0.00    +0.000 C 
ATOM      5  C   UNL     1       5.320   5.020  17.321  0.00  0.00    +0.000 A 
ATOM      6  C   UNL     1       4.287   4.092  17.070  0.00  0.00    +0.000 A 
ATOM      7  C   UNL     1       3.546   3.540  18.122  0.00  0.00    +0.000 A 
ATOM      8  C   UNL     1       3.837   3.921  19.427  0.00  0.00    +0.000 A 
ATOM      9  F   UNL     1       3.140   3.415  20.454  0.00  0.00    +0.000 F 
ATOM     10  C   UNL     1       4.857   4.832  19.697  0.00  0.00    +0.000 A 
ATOM     11  C   UNL     1       5.605   5.370  18.650  0.00  0.00    +0.000 A 
ATOM     12  O   UNL     1       6.580   6.263  19.016  0.00  0.00    +0.000 OA
ENDROOT
BRANCH   4  13
ATOM     13  O   UNL     1       5.141   6.011  15.169  0.00  0.00    +0.000 OA
ATOM     14  H   UNL     1       5.169   6.989  15.084  0.00  0.00    +0.000 HD
ENDBRANCH   4  13
BRANCH   7  15
ATOM     15  C   UNL     1       2.501   2.595  17.857  0.00  0.00    +0.000 C 
ATOM     16  N   UNL     1       1.640   1.857  17.620  0.00  0.00    +0.000 NA
ENDBRANCH   7  15
BRANCH   4  17
ATOM     17  C   UNL     1       7.076   4.599  15.588  0.00  0.00    +0.000 C 
BRANCH  17  18
ATOM     18  C   UNL     1       7.000   4.538  14.083  0.00  0.00    +0.000 C 
ATOM     19  O   UNL     1       7.527   5.354  13.340  0.00  0.00    +0.000 OA
BRANCH  18  20
ATOM     20  O   UNL     1       6.274   3.502  13.617  0.00  0.00    +0.000 OA
ATOM     21  H   UNL     1       5.526   3.226  14.182  0.00  0.00    +0.000 HD
ENDBRANCH  18  20
ENDBRANCH  17  18
ENDBRANCH   4  17
TORSDOF 5
ENDMDL
