MODEL 1
REMARK VINA RESULT:      -7.9      0.000      0.000
REMARK  Name = 
REMARK  8 active torsions:
REMARK  status: ('A' for Active; 'I' for Inactive)
REMARK    1  A    between atoms: C_1  and  N_2
REMARK    2  A    between atoms: N_5  and  C_6
REMARK    3  A    between atoms: C_6  and  C_7
REMARK    4  A    between atoms: C_7  and  N_8
REMARK    5  A    between atoms: N_8  and  C_9
REMARK    6  A    between atoms: C_9  and  C_10
REMARK    7  A    between atoms: N_18  and  C_19
REMARK    8  A    between atoms: C_22  and  C_24
REMARK                            x       y       z     vdW  Elec       q    Type
REMARK                         _______ _______ _______ _____ _____    ______ ____
ROOT
ATOM      1  N   UNL     1       3.724   5.970  19.277  0.00  0.00    +0.000 N 
ATOM      2  C   UNL     1       3.067   4.773  19.678  0.00  0.00    +0.000 C 
ATOM      3  O   UNL     1       3.711   3.837  20.162  0.00  0.00    +0.000 OA
ENDROOT
BRANCH   2   4
ATOM      4  C   UNL     1       1.545   4.544  19.435  0.00  0.00    +0.000 C 
ATOM      5  C   UNL     1       1.290   3.932  18.024  0.00  0.00    +0.000 C 
ATOM      6  C   UNL     1       1.646   2.441  17.916  0.00  0.00    +0.000 C 
ATOM      7  C   UNL     1       1.068   1.600  19.050  0.00  0.00    +0.000 C 
ATOM      8  C   UNL     1       1.323   2.225  20.412  0.00  0.00    +0.000 C 
ATOM      9  C   UNL     1       0.809   3.656  20.443  0.00  0.00    +0.000 C 
ENDBRANCH   2   4
BRANCH   1  10
ATOM     10  C   UNL     1       5.177   5.992  19.562  0.00  0.00    +0.000 C 
BRANCH  10  11
ATOM     11  C   UNL     1       6.331   5.961  18.458  0.00  0.00    +0.000 C 
ATOM     12  C   UNL     1       7.698   6.467  19.035  0.00  0.00    +0.000 C 
ATOM     13  C   UNL     1       8.455   7.556  18.291  0.00  0.00    +0.000 C 
ATOM     14  C   UNL     1       7.592   8.681  17.784  0.00  0.00    +0.000 C 
ATOM     15  C   UNL     1       6.358   8.234  17.029  0.00  0.00    +0.000 C 
ATOM     16  C   UNL     1       5.856   6.807  17.240  0.00  0.00    +0.000 C 
BRANCH  11  21
ATOM     17  C   UNL     1       5.369   4.702  13.999  0.00  0.00    +0.000 C 
ATOM     18  N   UNL     1       5.934   3.945  15.118  0.00  0.00    +0.000 NA
ATOM     19  C   UNL     1       4.931   3.778  16.183  0.00  0.00    +0.000 C 
ATOM     20  C   UNL     1       5.453   3.668  17.640  0.00  0.00    +0.000 C 
ATOM     21  N   UNL     1       6.618   4.521  18.003  0.00  0.00    +0.000 NA
ATOM     22  C   UNL     1       7.644   4.244  16.985  0.00  0.00    +0.000 C 
ATOM     23  C   UNL     1       7.217   4.527  15.539  0.00  0.00    +0.000 C 
ENDBRANCH  11  21
ENDBRANCH  10  11
ENDBRANCH   1  10
BRANCH   1  24
ATOM     24  C   UNL     1       2.972   7.145  18.764  0.00  0.00    +0.000 C 
BRANCH  24  25
ATOM     25  C   UNL     1       1.992   8.044  19.519  0.00  0.00    +0.000 A 
ATOM     26  C   UNL     1       1.416   7.976  20.730  0.00  0.00    +0.000 A 
ATOM     27  C   UNL     1       0.610   9.090  21.276  0.00  0.00    +0.000 A 
ATOM     28  C   UNL     1       0.015   8.990  22.544  0.00  0.00    +0.000 A 
ATOM     29  C   UNL     1      -0.650  10.077  23.124  0.00  0.00    +0.000 A 
ATOM     30  C   UNL     1      -0.726  11.285  22.445  0.00  0.00    +0.000 A 
ATOM     31  C   UNL     1      -0.181  11.388  21.170  0.00  0.00    +0.000 A 
ATOM     32  C   UNL     1       0.480  10.294  20.569  0.00  0.00    +0.000 A 
ATOM     33  N   UNL     1       1.021  10.364  19.257  0.00  0.00    +0.000 N 
ATOM     34  C   UNL     1       0.719  11.531  18.427  0.00  0.00    +0.000 C 
ATOM     35  C   UNL     1       1.686   9.295  18.683  0.00  0.00    +0.000 A 
ATOM     36  O   UNL     1       2.075   9.312  17.502  0.00  0.00    +0.000 OA
ENDBRANCH  24  25
ENDBRANCH   1  24
TORSDOF 6
ENDMDL
MODEL 2
REMARK VINA RESULT:      -7.9      3.550      9.130
REMARK  Name = 
REMARK  8 active torsions:
REMARK  status: ('A' for Active; 'I' for Inactive)
REMARK    1  A    between atoms: C_1  and  N_2
REMARK    2  A    between atoms: N_5  and  C_6
REMARK    3  A    between atoms: C_6  and  C_7
REMARK    4  A    between atoms: C_7  and  N_8
REMARK    5  A    between atoms: N_8  and  C_9
REMARK    6  A    between atoms: C_9  and  C_10
REMARK    7  A    between atoms: N_18  and  C_19
REMARK    8  A    between atoms: C_22  and  C_24
REMARK                            x       y       z     vdW  Elec       q    Type
REMARK                         _______ _______ _______ _____ _____    ______ ____
ROOT
ATOM      1  N   UNL     1       0.384  11.604  19.022  0.00  0.00    +0.000 N 
ATOM      2  C   UNL     1      -0.819  11.642  18.264  0.00  0.00    +0.000 C 
ATOM      3  O   UNL     1      -1.110  12.643  17.600  0.00  0.00    +0.000 OA
ENDROOT
BRANCH   2   4
ATOM      4  C   UNL     1      -1.864  10.487  18.312  0.00  0.00    +0.000 C 
ATOM      5  C   UNL     1      -3.274  11.026  18.702  0.00  0.00    +0.000 C 
ATOM      6  C   UNL     1      -3.990  11.779  17.570  0.00  0.00    +0.000 C 
ATOM      7  C   UNL     1      -3.980  11.023  16.244  0.00  0.00    +0.000 C 
ATOM      8  C   UNL     1      -2.596  10.502  15.894  0.00  0.00    +0.000 C 
ATOM      9  C   UNL     1      -2.043   9.661  17.035  0.00  0.00    +0.000 C 
ENDBRANCH   2   4
BRANCH   1  10
ATOM     10  C   UNL     1       1.238  12.805  18.872  0.00  0.00    +0.000 C 
BRANCH  10  11
ATOM     11  C   UNL     1       1.297  14.025  19.902  0.00  0.00    +0.000 C 
ATOM     12  C   UNL     1       1.050  13.551  21.375  0.00  0.00    +0.000 C 
ATOM     13  C   UNL     1      -0.005  14.259  22.211  0.00  0.00    +0.000 C 
ATOM     14  C   UNL     1      -1.287  14.554  21.478  0.00  0.00    +0.000 C 
ATOM     15  C   UNL     1      -1.100  15.213  20.128  0.00  0.00    +0.000 C 
ATOM     16  C   UNL     1       0.261  15.094  19.445  0.00  0.00    +0.000 C 
BRANCH  11  21
ATOM     17  C   UNL     1       2.352  17.507  16.876  0.00  0.00    +0.000 C 
ATOM     18  N   UNL     1       3.148  16.859  17.921  0.00  0.00    +0.000 NA
ATOM     19  C   UNL     1       3.403  15.451  17.570  0.00  0.00    +0.000 C 
ATOM     20  C   UNL     1       3.572  14.447  18.742  0.00  0.00    +0.000 C 
ATOM     21  N   UNL     1       2.702  14.651  19.933  0.00  0.00    +0.000 NA
ATOM     22  C   UNL     1       2.890  16.056  20.327  0.00  0.00    +0.000 C 
ATOM     23  C   UNL     1       2.547  17.086  19.243  0.00  0.00    +0.000 C 
ENDBRANCH  11  21
ENDBRANCH  10  11
ENDBRANCH   1  10
BRANCH   1  24
ATOM     24  C   UNL     1       0.804  10.389  19.769  0.00  0.00    +0.000 C 
BRANCH  24  25
ATOM     25  C   UNL     1       1.532   9.156  19.234  0.00  0.00    +0.000 A 
ATOM     26  C   UNL     1       2.308   8.928  18.162  0.00  0.00    +0.000 A 
ATOM     27  C   UNL     1       3.023   7.647  17.970  0.00  0.00    +0.000 A 
ATOM     28  C   UNL     1       3.824   7.436  16.836  0.00  0.00    +0.000 A 
ATOM     29  C   UNL     1       4.599   6.278  16.699  0.00  0.00    +0.000 A 
ATOM     30  C   UNL     1       4.588   5.314  17.697  0.00  0.00    +0.000 A 
ATOM     31  C   UNL     1       3.766   5.487  18.806  0.00  0.00    +0.000 A 
ATOM     32  C   UNL     1       2.970   6.644  18.949  0.00  0.00    +0.000 A 
ATOM     33  N   UNL     1       2.101   6.833  20.057  0.00  0.00    +0.000 N 
ATOM     34  C   UNL     1       1.874   5.718  20.978  0.00  0.00    +0.000 C 
ATOM     35  C   UNL     1       1.340   7.979  20.202  0.00  0.00    +0.000 A 
ATOM     36  O   UNL     1       0.504   8.111  21.114  0.00  0.00    +0.000 OA
ENDBRANCH  24  25
ENDBRANCH   1  24
TORSDOF 6
ENDMDL
MODEL 3
REMARK VINA RESULT:      -7.8      3.251      8.993
REMARK  Name = 
REMARK  8 active torsions:
REMARK  status: ('A' for Active; 'I' for Inactive)
REMARK    1  A    between atoms: C_1  and  N_2
REMARK    2  A    between atoms: N_5  and  C_6
REMARK    3  A    between atoms: C_6  and  C_7
REMARK    4  A    between atoms: C_7  and  N_8
REMARK    5  A    between atoms: N_8  and  C_9
REMARK    6  A    between atoms: C_9  and  C_10
REMARK    7  A    between atoms: N_18  and  C_19
REMARK    8  A    between atoms: C_22  and  C_24
REMARK                            x       y       z     vdW  Elec       q    Type
REMARK                         _______ _______ _______ _____ _____    ______ ____
ROOT
ATOM      1  N   UNL     1      -0.681  11.772  19.073  0.00  0.00    +0.000 N 
ATOM      2  C   UNL     1      -2.036  11.400  18.850  0.00  0.00    +0.000 C 
ATOM      3  O   UNL     1      -2.956  12.074  19.324  0.00  0.00    +0.000 OA
ENDROOT
BRANCH   2   4
ATOM      4  C   UNL     1      -2.422  10.091  18.098  0.00  0.00    +0.000 C 
ATOM      5  C   UNL     1      -3.968   9.894  18.075  0.00  0.00    +0.000 C 
ATOM      6  C   UNL     1      -4.700  10.813  17.084  0.00  0.00    +0.000 C 
ATOM      7  C   UNL     1      -4.074  10.820  15.693  0.00  0.00    +0.000 C 
ATOM      8  C   UNL     1      -2.566  11.003  15.746  0.00  0.00    +0.000 C 
ATOM      9  C   UNL     1      -1.936   9.956  16.651  0.00  0.00    +0.000 C 
ENDBRANCH   2   4
BRANCH   1  10
ATOM     10  C   UNL     1      -0.512  13.032  19.833  0.00  0.00    +0.000 C 
BRANCH  10  11
ATOM     11  C   UNL     1      -0.326  13.132  21.416  0.00  0.00    +0.000 C 
ATOM     12  C   UNL     1      -0.373  11.720  22.095  0.00  0.00    +0.000 C 
ATOM     13  C   UNL     1      -1.314  11.496  23.269  0.00  0.00    +0.000 C 
ATOM     14  C   UNL     1      -2.683  12.098  23.094  0.00  0.00    +0.000 C 
ATOM     15  C   UNL     1      -2.681  13.541  22.639  0.00  0.00    +0.000 C 
ATOM     16  C   UNL     1      -1.422  14.090  21.972  0.00  0.00    +0.000 C 
BRANCH  11  21
ATOM     17  C   UNL     1       1.781  16.194  18.488  0.00  0.00    +0.000 C 
ATOM     18  N   UNL     1       2.213  15.624  19.766  0.00  0.00    +0.000 NA
ATOM     19  C   UNL     1       2.436  14.175  19.631  0.00  0.00    +0.000 C 
ATOM     20  C   UNL     1       2.203  13.300  20.892  0.00  0.00    +0.000 C 
ATOM     21  N   UNL     1       1.066  13.681  21.773  0.00  0.00    +0.000 NA
ATOM     22  C   UNL     1       1.257  15.109  22.073  0.00  0.00    +0.000 C 
ATOM     23  C   UNL     1       1.301  16.029  20.845  0.00  0.00    +0.000 C 
ENDBRANCH  11  21
ENDBRANCH  10  11
ENDBRANCH   1  10
BRANCH   1  24
ATOM     24  C   UNL     1       0.449  11.031  18.454  0.00  0.00    +0.000 C 
BRANCH  24  25
ATOM     25  C   UNL     1       1.086   9.720  18.915  0.00  0.00    +0.000 A 
ATOM     26  C   UNL     1       0.814   8.854  19.905  0.00  0.00    +0.000 A 
ATOM     27  C   UNL     1       1.517   7.558  20.027  0.00  0.00    +0.000 A 
ATOM     28  C   UNL     1       1.215   6.674  21.075  0.00  0.00    +0.000 A 
ATOM     29  C   UNL     1       1.784   5.397  21.137  0.00  0.00    +0.000 A 
ATOM     30  C   UNL     1       2.664   4.981  20.147  0.00  0.00    +0.000 A 
ATOM     31  C   UNL     1       3.009   5.861  19.125  0.00  0.00    +0.000 A 
ATOM     32  C   UNL     1       2.451   7.156  19.060  0.00  0.00    +0.000 A 
ATOM     33  N   UNL     1       2.806   8.083  18.044  0.00  0.00    +0.000 N 
ATOM     34  C   UNL     1       3.923   7.764  17.153  0.00  0.00    +0.000 C 
ATOM     35  C   UNL     1       2.240   9.344  17.974  0.00  0.00    +0.000 A 
ATOM     36  O   UNL     1       2.616  10.196  17.150  0.00  0.00    +0.000 OA
ENDBRANCH  24  25
ENDBRANCH   1  24
TORSDOF 6
ENDMDL
MODEL 4
REMARK VINA RESULT:      -7.7      3.328      9.232
REMARK  Name = 
REMARK  8 active torsions:
REMARK  status: ('A' for Active; 'I' for Inactive)
REMARK    1  A    between atoms: C_1  and  N_2
REMARK    2  A    between atoms: N_5  and  C_6
REMARK    3  A    between atoms: C_6  and  C_7
REMARK    4  A    between atoms: C_7  and  N_8
REMARK    5  A    between atoms: N_8  and  C_9
REMARK    6  A    between atoms: C_9  and  C_10
REMARK    7  A    between atoms: N_18  and  C_19
REMARK    8  A    between atoms: C_22  and  C_24
REMARK                            x       y       z     vdW  Elec       q    Type
REMARK                         _______ _______ _______ _____ _____    ______ ____
ROOT
ATOM      1  N   UNL     1      -0.038  11.171  19.405  0.00  0.00    +0.000 N 
ATOM      2  C   UNL     1      -1.024  11.293  18.385  0.00  0.00    +0.000 C 
ATOM      3  O   UNL     1      -1.262  12.392  17.873  0.00  0.00    +0.000 OA
ENDROOT
BRANCH   2   4
ATOM      4  C   UNL     1      -1.910  10.090  17.944  0.00  0.00    +0.000 C 
ATOM      5  C   UNL     1      -3.361  10.234  18.494  0.00  0.00    +0.000 C 
ATOM      6  C   UNL     1      -4.210  11.278  17.751  0.00  0.00    +0.000 C 
ATOM      7  C   UNL     1      -4.153  11.131  16.233  0.00  0.00    +0.000 C 
ATOM      8  C   UNL     1      -2.728  10.983  15.726  0.00  0.00    +0.000 C 
ATOM      9  C   UNL     1      -2.030   9.834  16.438  0.00  0.00    +0.000 C 
ENDBRANCH   2   4
BRANCH   1  10
ATOM     10  C   UNL     1       0.682  12.428  19.710  0.00  0.00    +0.000 C 
BRANCH  10  11
ATOM     11  C   UNL     1       0.360  13.397  20.938  0.00  0.00    +0.000 C 
ATOM     12  C   UNL     1      -0.311  12.624  22.125  0.00  0.00    +0.000 C 
ATOM     13  C   UNL     1      -1.606  13.158  22.716  0.00  0.00    +0.000 C 
ATOM     14  C   UNL     1      -2.608  13.630  21.697  0.00  0.00    +0.000 C 
ATOM     15  C   UNL     1      -2.043  14.559  20.644  0.00  0.00    +0.000 C 
ATOM     16  C   UNL     1      -0.533  14.561  20.414  0.00  0.00    +0.000 C 
BRANCH  11  21
ATOM     17  C   UNL     1       2.711  16.767  18.590  0.00  0.00    +0.000 C 
ATOM     18  N   UNL     1       2.980  16.115  19.874  0.00  0.00    +0.000 NA
ATOM     19  C   UNL     1       3.296  14.691  19.669  0.00  0.00    +0.000 C 
ATOM     20  C   UNL     1       2.926  13.710  20.813  0.00  0.00    +0.000 C 
ATOM     21  N   UNL     1       1.653  13.973  21.539  0.00  0.00    +0.000 NA
ATOM     22  C   UNL     1       1.723  15.379  21.967  0.00  0.00    +0.000 C 
ATOM     23  C   UNL     1       1.899  16.395  20.830  0.00  0.00    +0.000 C 
ENDBRANCH  11  21
ENDBRANCH  10  11
ENDBRANCH   1  10
BRANCH   1  24
ATOM     24  C   UNL     1       0.330   9.854  19.988  0.00  0.00    +0.000 C 
BRANCH  24  25
ATOM     25  C   UNL     1       1.246   8.781  19.398  0.00  0.00    +0.000 A 
ATOM     26  C   UNL     1       2.043   8.734  18.318  0.00  0.00    +0.000 A 
ATOM     27  C   UNL     1       2.956   7.596  18.068  0.00  0.00    +0.000 A 
ATOM     28  C   UNL     1       3.775   7.572  16.928  0.00  0.00    +0.000 A 
ATOM     29  C   UNL     1       4.727   6.563  16.738  0.00  0.00    +0.000 A 
ATOM     30  C   UNL     1       4.878   5.564  17.689  0.00  0.00    +0.000 A 
ATOM     31  C   UNL     1       4.043   5.548  18.803  0.00  0.00    +0.000 A 
ATOM     32  C   UNL     1       3.071   6.553  18.999  0.00  0.00    +0.000 A 
ATOM     33  N   UNL     1       2.188   6.546  20.112  0.00  0.00    +0.000 N 
ATOM     34  C   UNL     1       2.150   5.366  20.978  0.00  0.00    +0.000 C 
ATOM     35  C   UNL     1       1.251   7.545  20.309  0.00  0.00    +0.000 A 
ATOM     36  O   UNL     1       0.410   7.496  21.223  0.00  0.00    +0.000 OA
ENDBRANCH  24  25
ENDBRANCH   1  24
TORSDOF 6
ENDMDL
MODEL 5
REMARK VINA RESULT:      -7.7      7.625     10.182
REMARK  Name = 
REMARK  8 active torsions:
REMARK  status: ('A' for Active; 'I' for Inactive)
REMARK    1  A    between atoms: C_1  and  N_2
REMARK    2  A    between atoms: N_5  and  C_6
REMARK    3  A    between atoms: C_6  and  C_7
REMARK    4  A    between atoms: C_7  and  N_8
REMARK    5  A    between atoms: N_8  and  C_9
REMARK    6  A    between atoms: C_9  and  C_10
REMARK    7  A    between atoms: N_18  and  C_19
REMARK    8  A    between atoms: C_22  and  C_24
REMARK                            x       y       z     vdW  Elec       q    Type
REMARK                         _______ _______ _______ _____ _____    ______ ____
ROOT
ATOM      1  N   UNL     1       8.214  15.495  19.801  0.00  0.00    +0.000 N 
ATOM      2  C   UNL     1       9.125  14.489  19.375  0.00  0.00    +0.000 C 
ATOM      3  O   UNL     1       9.929  13.995  20.171  0.00  0.00    +0.000 OA
ENDROOT
BRANCH   2   4
ATOM      4  C   UNL     1       9.224  14.040  17.886  0.00  0.00    +0.000 C 
ATOM      5  C   UNL     1      10.702  13.744  17.489  0.00  0.00    +0.000 C 
ATOM      6  C   UNL     1      11.243  12.416  18.043  0.00  0.00    +0.000 C 
ATOM      7  C   UNL     1      10.308  11.236  17.801  0.00  0.00    +0.000 C 
ATOM      8  C   UNL     1       8.873  11.556  18.188  0.00  0.00    +0.000 C 
ATOM      9  C   UNL     1       8.401  12.814  17.476  0.00  0.00    +0.000 C 
ENDBRANCH   2   4
BRANCH   1  10
ATOM     10  C   UNL     1       8.286  15.810  21.247  0.00  0.00    +0.000 C 
BRANCH  10  11
ATOM     11  C   UNL     1       7.553  14.988  22.403  0.00  0.00    +0.000 C 
ATOM     12  C   UNL     1       6.540  13.944  21.819  0.00  0.00    +0.000 C 
ATOM     13  C   UNL     1       5.111  13.930  22.339  0.00  0.00    +0.000 C 
ATOM     14  C   UNL     1       4.497  15.294  22.511  0.00  0.00    +0.000 C 
ATOM     15  C   UNL     1       5.362  16.281  23.264  0.00  0.00    +0.000 C 
ATOM     16  C   UNL     1       6.862  16.008  23.357  0.00  0.00    +0.000 C 
BRANCH  11  21
ATOM     17  C   UNL     1       5.990  11.330  24.966  0.00  0.00    +0.000 C 
ATOM     18  N   UNL     1       7.340  11.856  24.754  0.00  0.00    +0.000 NA
ATOM     19  C   UNL     1       7.467  13.196  25.350  0.00  0.00    +0.000 C 
ATOM     20  C   UNL     1       8.468  14.178  24.685  0.00  0.00    +0.000 C 
ATOM     21  N   UNL     1       8.559  14.141  23.199  0.00  0.00    +0.000 NA
ATOM     22  C   UNL     1       8.795  12.731  22.852  0.00  0.00    +0.000 C 
ATOM     23  C   UNL     1       7.717  11.753  23.337  0.00  0.00    +0.000 C 
ENDBRANCH  11  21
ENDBRANCH  10  11
ENDBRANCH   1  10
BRANCH   1  24
ATOM     24  C   UNL     1       7.180  16.056  18.892  0.00  0.00    +0.000 C 
BRANCH  24  25
ATOM     25  C   UNL     1       5.701  15.681  18.796  0.00  0.00    +0.000 A 
ATOM     26  C   UNL     1       5.048  14.572  18.412  0.00  0.00    +0.000 A 
ATOM     27  C   UNL     1       3.584  14.431  18.571  0.00  0.00    +0.000 A 
ATOM     28  C   UNL     1       2.927  13.261  18.156  0.00  0.00    +0.000 A 
ATOM     29  C   UNL     1       1.564  13.065  18.407  0.00  0.00    +0.000 A 
ATOM     30  C   UNL     1       0.836  14.034  19.082  0.00  0.00    +0.000 A 
ATOM     31  C   UNL     1       1.461  15.218  19.460  0.00  0.00    +0.000 A 
ATOM     32  C   UNL     1       2.832  15.434  19.201  0.00  0.00    +0.000 A 
ATOM     33  N   UNL     1       3.488  16.644  19.552  0.00  0.00    +0.000 N 
ATOM     34  C   UNL     1       2.685  17.776  20.017  0.00  0.00    +0.000 C 
ATOM     35  C   UNL     1       4.837  16.840  19.313  0.00  0.00    +0.000 A 
ATOM     36  O   UNL     1       5.398  17.930  19.525  0.00  0.00    +0.000 OA
ENDBRANCH  24  25
ENDBRANCH   1  24
TORSDOF 6
ENDMDL
MODEL 6
REMARK VINA RESULT:      -7.6      6.095      9.538
REMARK  Name = 
REMARK  8 active torsions:
REMARK  status: ('A' for Active; 'I' for Inactive)
REMARK    1  A    between atoms: C_1  and  N_2
REMARK    2  A    between atoms: N_5  and  C_6
REMARK    3  A    between atoms: C_6  and  C_7
REMARK    4  A    between atoms: C_7  and  N_8
REMARK    5  A    between atoms: N_8  and  C_9
REMARK    6  A    between atoms: C_9  and  C_10
REMARK    7  A    between atoms: N_18  and  C_19
REMARK    8  A    between atoms: C_22  and  C_24
REMARK                            x       y       z     vdW  Elec       q    Type
REMARK                         _______ _______ _______ _____ _____    ______ ____
ROOT
ATOM      1  N   UNL     1      -0.283  13.132  20.316  0.00  0.00    +0.000 N 
ATOM      2  C   UNL     1       0.213  11.997  21.017  0.00  0.00    +0.000 C 
ATOM      3  O   UNL     1       1.358  11.999  21.480  0.00  0.00    +0.000 OA
ENDROOT
BRANCH   2   4
ATOM      4  C   UNL     1      -0.608  10.679  21.143  0.00  0.00    +0.000 C 
ATOM      5  C   UNL     1      -0.352   9.742  19.924  0.00  0.00    +0.000 C 
ATOM      6  C   UNL     1       1.010   9.030  19.959  0.00  0.00    +0.000 C 
ATOM      7  C   UNL     1       1.309   8.368  21.300  0.00  0.00    +0.000 C 
ATOM      8  C   UNL     1       1.041   9.300  22.470  0.00  0.00    +0.000 C 
ATOM      9  C   UNL     1      -0.380   9.839  22.404  0.00  0.00    +0.000 C 
ENDBRANCH   2   4
BRANCH   1  10
ATOM     10  C   UNL     1       0.652  14.280  20.276  0.00  0.00    +0.000 C 
BRANCH  10  11
ATOM     11  C   UNL     1       0.477  15.637  21.100  0.00  0.00    +0.000 C 
ATOM     12  C   UNL     1      -0.305  15.404  22.439  0.00  0.00    +0.000 C 
ATOM     13  C   UNL     1      -1.506  16.282  22.755  0.00  0.00    +0.000 C 
ATOM     14  C   UNL     1      -2.423  16.527  21.587  0.00  0.00    +0.000 C 
ATOM     15  C   UNL     1      -1.723  16.963  20.318  0.00  0.00    +0.000 C 
ATOM     16  C   UNL     1      -0.230  16.675  20.179  0.00  0.00    +0.000 C 
BRANCH  11  21
ATOM     17  C   UNL     1       4.320  14.699  18.503  0.00  0.00    +0.000 C 
ATOM     18  N   UNL     1       4.150  15.473  19.734  0.00  0.00    +0.000 NA
ATOM     19  C   UNL     1       3.754  14.589  20.844  0.00  0.00    +0.000 C 
ATOM     20  C   UNL     1       2.878  15.207  21.966  0.00  0.00    +0.000 C 
ATOM     21  N   UNL     1       1.841  16.189  21.546  0.00  0.00    +0.000 NA
ATOM     22  C   UNL     1       2.550  17.190  20.732  0.00  0.00    +0.000 C 
ATOM     23  C   UNL     1       3.273  16.629  19.500  0.00  0.00    +0.000 C 
ENDBRANCH  11  21
ENDBRANCH  10  11
ENDBRANCH   1  10
BRANCH   1  24
ATOM     24  C   UNL     1      -1.681  13.196  19.814  0.00  0.00    +0.000 C 
BRANCH  24  25
ATOM     25  C   UNL     1      -2.974  12.901  20.575  0.00  0.00    +0.000 A 
ATOM     26  C   UNL     1      -3.376  13.116  21.838  0.00  0.00    +0.000 A 
ATOM     27  C   UNL     1      -4.769  12.862  22.270  0.00  0.00    +0.000 A 
ATOM     28  C   UNL     1      -5.160  13.092  23.598  0.00  0.00    +0.000 A 
ATOM     29  C   UNL     1      -6.498  12.969  23.994  0.00  0.00    +0.000 A 
ATOM     30  C   UNL     1      -7.466  12.619  23.064  0.00  0.00    +0.000 A 
ATOM     31  C   UNL     1      -7.089  12.344  21.754  0.00  0.00    +0.000 A 
ATOM     32  C   UNL     1      -5.741  12.451  21.346  0.00  0.00    +0.000 A 
ATOM     33  N   UNL     1      -5.324  12.149  20.022  0.00  0.00    +0.000 N 
ATOM     34  C   UNL     1      -6.278  11.525  19.104  0.00  0.00    +0.000 C 
ATOM     35  C   UNL     1      -4.005  12.277  19.624  0.00  0.00    +0.000 A 
ATOM     36  O   UNL     1      -3.614  11.921  18.498  0.00  0.00    +0.000 OA
ENDBRANCH  24  25
ENDBRANCH   1  24
TORSDOF 6
ENDMDL
MODEL 7
REMARK VINA RESULT:      -7.6      5.720      9.637
REMARK  Name = 
REMARK  8 active torsions:
REMARK  status: ('A' for Active; 'I' for Inactive)
REMARK    1  A    between atoms: C_1  and  N_2
REMARK    2  A    between atoms: N_5  and  C_6
REMARK    3  A    between atoms: C_6  and  C_7
REMARK    4  A    between atoms: C_7  and  N_8
REMARK    5  A    between atoms: N_8  and  C_9
REMARK    6  A    between atoms: C_9  and  C_10
REMARK    7  A    between atoms: N_18  and  C_19
REMARK    8  A    between atoms: C_22  and  C_24
REMARK                            x       y       z     vdW  Elec       q    Type
REMARK                         _______ _______ _______ _____ _____    ______ ____
ROOT
ATOM      1  N   UNL     1      -0.625  12.926  20.672  0.00  0.00    +0.000 N 
ATOM      2  C   UNL     1       0.031  11.667  20.782  0.00  0.00    +0.000 C 
ATOM      3  O   UNL     1       1.146  11.586  21.307  0.00  0.00    +0.000 OA
ENDROOT
BRANCH   2   4
ATOM      4  C   UNL     1      -0.566  10.367  20.163  0.00  0.00    +0.000 C 
ATOM      5  C   UNL     1      -0.170  10.230  18.662  0.00  0.00    +0.000 C 
ATOM      6  C   UNL     1       1.289   9.803  18.437  0.00  0.00    +0.000 C 
ATOM      7  C   UNL     1       1.701   8.600  19.280  0.00  0.00    +0.000 C 
ATOM      8  C   UNL     1       1.294   8.756  20.736  0.00  0.00    +0.000 C 
ATOM      9  C   UNL     1      -0.196   9.045  20.842  0.00  0.00    +0.000 C 
ENDBRANCH   2   4
BRANCH   1  10
ATOM     10  C   UNL     1       0.109  14.051  21.295  0.00  0.00    +0.000 C 
BRANCH  10  11
ATOM     11  C   UNL     1       0.852  15.218  20.495  0.00  0.00    +0.000 C 
ATOM     12  C   UNL     1       1.011  14.867  18.975  0.00  0.00    +0.000 C 
ATOM     13  C   UNL     1       2.385  14.976  18.333  0.00  0.00    +0.000 C 
ATOM     14  C   UNL     1       3.511  14.430  19.171  0.00  0.00    +0.000 C 
ATOM     15  C   UNL     1       3.517  14.915  20.605  0.00  0.00    +0.000 C 
ATOM     16  C   UNL     1       2.223  15.480  21.186  0.00  0.00    +0.000 C 
BRANCH  11  21
ATOM     17  C   UNL     1       1.211  18.236  16.868  0.00  0.00    +0.000 C 
ATOM     18  N   UNL     1       0.399  18.280  18.087  0.00  0.00    +0.000 NA
ATOM     19  C   UNL     1       1.263  18.417  19.272  0.00  0.00    +0.000 C 
ATOM     20  C   UNL     1       0.749  17.802  20.601  0.00  0.00    +0.000 C 
ATOM     21  N   UNL     1       0.017  16.509  20.504  0.00  0.00    +0.000 NA
ATOM     22  C   UNL     1      -1.042  16.726  19.505  0.00  0.00    +0.000 C 
ATOM     23  C   UNL     1      -0.547  17.155  18.117  0.00  0.00    +0.000 C 
ENDBRANCH  11  21
ENDBRANCH  10  11
ENDBRANCH   1  10
BRANCH   1  24
ATOM     24  C   UNL     1      -1.999  13.050  20.119  0.00  0.00    +0.000 C 
BRANCH  24  25
ATOM     25  C   UNL     1      -3.331  12.801  20.828  0.00  0.00    +0.000 A 
ATOM     26  C   UNL     1      -3.767  13.006  22.081  0.00  0.00    +0.000 A 
ATOM     27  C   UNL     1      -5.184  12.810  22.459  0.00  0.00    +0.000 A 
ATOM     28  C   UNL     1      -5.610  13.028  23.779  0.00  0.00    +0.000 A 
ATOM     29  C   UNL     1      -6.965  12.962  24.126  0.00  0.00    +0.000 A 
ATOM     30  C   UNL     1      -7.916  12.681  23.155  0.00  0.00    +0.000 A 
ATOM     31  C   UNL     1      -7.506  12.419  21.852  0.00  0.00    +0.000 A 
ATOM     32  C   UNL     1      -6.142  12.469  21.493  0.00  0.00    +0.000 A 
ATOM     33  N   UNL     1      -5.694  12.179  20.176  0.00  0.00    +0.000 N 
ATOM     34  C   UNL     1      -6.644  11.624  19.211  0.00  0.00    +0.000 C 
ATOM     35  C   UNL     1      -4.357  12.251  19.826  0.00  0.00    +0.000 A 
ATOM     36  O   UNL     1      -3.944  11.903  18.706  0.00  0.00    +0.000 OA
ENDBRANCH  24  25
ENDBRANCH   1  24
TORSDOF 6
ENDMDL
MODEL 8
REMARK VINA RESULT:      -7.5      5.983     10.365
REMARK  Name = 
REMARK  8 active torsions:
REMARK  status: ('A' for Active; 'I' for Inactive)
REMARK    1  A    between atoms: C_1  and  N_2
REMARK    2  A    between atoms: N_5  and  C_6
REMARK    3  A    between atoms: C_6  and  C_7
REMARK    4  A    between atoms: C_7  and  N_8
REMARK    5  A    between atoms: N_8  and  C_9
REMARK    6  A    between atoms: C_9  and  C_10
REMARK    7  A    between atoms: N_18  and  C_19
REMARK    8  A    between atoms: C_22  and  C_24
REMARK                            x       y       z     vdW  Elec       q    Type
REMARK                         _______ _______ _______ _____ _____    ______ ____
ROOT
ATOM      1  N   UNL     1      -0.550  14.551  22.567  0.00  0.00    +0.000 N 
ATOM      2  C   UNL     1      -1.635  15.226  23.192  0.00  0.00    +0.000 C 
ATOM      3  O   UNL     1      -1.644  16.459  23.269  0.00  0.00    +0.000 OA
ENDROOT
BRANCH   2   4
ATOM      4  C   UNL     1      -2.796  14.457  23.891  0.00  0.00    +0.000 C 
ATOM      5  C   UNL     1      -3.282  15.215  25.163  0.00  0.00    +0.000 C 
ATOM      6  C   UNL     1      -4.135  16.457  24.863  0.00  0.00    +0.000 C 
ATOM      7  C   UNL     1      -5.251  16.193  23.858  0.00  0.00    +0.000 C 
ATOM      8  C   UNL     1      -4.751  15.445  22.632  0.00  0.00    +0.000 C 
ATOM      9  C   UNL     1      -4.041  14.166  23.046  0.00  0.00    +0.000 C 
ENDBRANCH   2   4
BRANCH   1  10
ATOM     10  C   UNL     1       0.473  15.449  21.985  0.00  0.00    +0.000 C 
BRANCH  10  11
ATOM     11  C   UNL     1       0.878  15.502  20.441  0.00  0.00    +0.000 C 
ATOM     12  C   UNL     1       1.827  16.711  20.131  0.00  0.00    +0.000 C 
ATOM     13  C   UNL     1       1.471  17.657  18.995  0.00  0.00    +0.000 C 
ATOM     14  C   UNL     1       0.016  18.036  18.932  0.00  0.00    +0.000 C 
ATOM     15  C   UNL     1      -0.942  16.867  19.014  0.00  0.00    +0.000 C 
ATOM     16  C   UNL     1      -0.432  15.552  19.599  0.00  0.00    +0.000 C 
BRANCH  11  21
ATOM     17  C   UNL     1       5.191  16.070  18.580  0.00  0.00    +0.000 C 
ATOM     18  N   UNL     1       4.421  14.863  18.885  0.00  0.00    +0.000 NA
ATOM     19  C   UNL     1       3.231  14.783  18.022  0.00  0.00    +0.000 C 
ATOM     20  C   UNL     1       1.983  14.061  18.597  0.00  0.00    +0.000 C 
ATOM     21  N   UNL     1       1.697  14.263  20.044  0.00  0.00    +0.000 NA
ATOM     22  C   UNL     1       2.947  13.931  20.745  0.00  0.00    +0.000 C 
ATOM     23  C   UNL     1       4.166  14.765  20.329  0.00  0.00    +0.000 C 
ENDBRANCH  11  21
ENDBRANCH  10  11
ENDBRANCH   1  10
BRANCH   1  24
ATOM     24  C   UNL     1      -0.542  13.075  22.387  0.00  0.00    +0.000 C 
BRANCH  24  25
ATOM     25  C   UNL     1      -1.012  12.268  21.176  0.00  0.00    +0.000 A 
ATOM     26  C   UNL     1      -2.097  12.326  20.387  0.00  0.00    +0.000 A 
ATOM     27  C   UNL     1      -2.221  11.502  19.164  0.00  0.00    +0.000 A 
ATOM     28  C   UNL     1      -3.369  11.580  18.360  0.00  0.00    +0.000 A 
ATOM     29  C   UNL     1      -3.451  10.897  17.141  0.00  0.00    +0.000 A 
ATOM     30  C   UNL     1      -2.383  10.127  16.704  0.00  0.00    +0.000 A 
ATOM     31  C   UNL     1      -1.255  10.003  17.510  0.00  0.00    +0.000 A 
ATOM     32  C   UNL     1      -1.166  10.676  18.748  0.00  0.00    +0.000 A 
ATOM     33  N   UNL     1      -0.039  10.545  19.602  0.00  0.00    +0.000 N 
ATOM     34  C   UNL     1       0.974   9.536  19.288  0.00  0.00    +0.000 C 
ATOM     35  C   UNL     1       0.051  11.225  20.804  0.00  0.00    +0.000 A 
ATOM     36  O   UNL     1       0.986  11.040  21.603  0.00  0.00    +0.000 OA
ENDBRANCH  24  25
ENDBRANCH   1  24
TORSDOF 6
ENDMDL
MODEL 9
REMARK VINA RESULT:      -7.4      3.541      9.488
REMARK  Name = 
REMARK  8 active torsions:
REMARK  status: ('A' for Active; 'I' for Inactive)
REMARK    1  A    between atoms: C_1  and  N_2
REMARK    2  A    between atoms: N_5  and  C_6
REMARK    3  A    between atoms: C_6  and  C_7
REMARK    4  A    between atoms: C_7  and  N_8
REMARK    5  A    between atoms: N_8  and  C_9
REMARK    6  A    between atoms: C_9  and  C_10
REMARK    7  A    between atoms: N_18  and  C_19
REMARK    8  A    between atoms: C_22  and  C_24
REMARK                            x       y       z     vdW  Elec       q    Type
REMARK                         _______ _______ _______ _____ _____    ______ ____
ROOT
ATOM      1  N   UNL     1       0.270  11.391  19.004  0.00  0.00    +0.000 N 
ATOM      2  C   UNL     1      -0.883  11.462  18.173  0.00  0.00    +0.000 C 
ATOM      3  O   UNL     1      -1.134  12.491  17.537  0.00  0.00    +0.000 OA
ENDROOT
BRANCH   2   4
ATOM      4  C   UNL     1      -1.925  10.306  18.104  0.00  0.00    +0.000 C 
ATOM      5  C   UNL     1      -3.341  10.804  18.527  0.00  0.00    +0.000 C 
ATOM      6  C   UNL     1      -4.047  11.656  17.460  0.00  0.00    +0.000 C 
ATOM      7  C   UNL     1      -4.021  11.025  16.071  0.00  0.00    +0.000 C 
ATOM      8  C   UNL     1      -2.632  10.541  15.690  0.00  0.00    +0.000 C 
ATOM      9  C   UNL     1      -2.088   9.600  16.754  0.00  0.00    +0.000 C 
ENDBRANCH   2   4
BRANCH   1  10
ATOM     10  C   UNL     1       1.128  12.598  18.961  0.00  0.00    +0.000 C 
BRANCH  10  11
ATOM     11  C   UNL     1       1.003  13.849  19.946  0.00  0.00    +0.000 C 
ATOM     12  C   UNL     1       0.771  15.185  19.159  0.00  0.00    +0.000 C 
ATOM     13  C   UNL     1       1.671  16.377  19.446  0.00  0.00    +0.000 C 
ATOM     14  C   UNL     1       3.131  16.036  19.585  0.00  0.00    +0.000 C 
ATOM     15  C   UNL     1       3.419  14.874  20.512  0.00  0.00    +0.000 C 
ATOM     16  C   UNL     1       2.286  13.900  20.827  0.00  0.00    +0.000 C 
BRANCH  11  21
ATOM     17  C   UNL     1      -0.876  17.735  21.886  0.00  0.00    +0.000 C 
ATOM     18  N   UNL     1      -1.267  16.326  21.970  0.00  0.00    +0.000 NA
ATOM     19  C   UNL     1      -0.236  15.550  22.680  0.00  0.00    +0.000 C 
ATOM     20  C   UNL     1      -0.076  14.056  22.289  0.00  0.00    +0.000 C 
ATOM     21  N   UNL     1      -0.235  13.718  20.848  0.00  0.00    +0.000 NA
ATOM     22  C   UNL     1      -1.525  14.299  20.444  0.00  0.00    +0.000 C 
ATOM     23  C   UNL     1      -1.645  15.816  20.644  0.00  0.00    +0.000 C 
ENDBRANCH  11  21
ENDBRANCH  10  11
ENDBRANCH   1  10
BRANCH   1  24
ATOM     24  C   UNL     1       0.646  10.145  19.722  0.00  0.00    +0.000 C 
BRANCH  24  25
ATOM     25  C   UNL     1       1.463   8.963  19.200  0.00  0.00    +0.000 A 
ATOM     26  C   UNL     1       2.254   8.783  18.130  0.00  0.00    +0.000 A 
ATOM     27  C   UNL     1       3.062   7.556  17.951  0.00  0.00    +0.000 A 
ATOM     28  C   UNL     1       3.877   7.393  16.820  0.00  0.00    +0.000 A 
ATOM     29  C   UNL     1       4.735   6.294  16.694  0.00  0.00    +0.000 A 
ATOM     30  C   UNL     1       4.794   5.341  17.701  0.00  0.00    +0.000 A 
ATOM     31  C   UNL     1       3.960   5.464  18.808  0.00  0.00    +0.000 A 
ATOM     32  C   UNL     1       3.081   6.561  18.940  0.00  0.00    +0.000 A 
ATOM     33  N   UNL     1       2.200   6.696  20.045  0.00  0.00    +0.000 N 
ATOM     34  C   UNL     1       2.054   5.576  20.977  0.00  0.00    +0.000 C 
ATOM     35  C   UNL     1       1.356   7.785  20.179  0.00  0.00    +0.000 A 
ATOM     36  O   UNL     1       0.512   7.864  21.089  0.00  0.00    +0.000 OA
ENDBRANCH  24  25
ENDBRANCH   1  24
TORSDOF 6
ENDMDL
