MODEL 1
REMARK VINA RESULT:      -6.2      0.000      0.000
REMARK  Name = 
REMARK  19 active torsions:
REMARK  status: ('A' for Active; 'I' for Inactive)
REMARK    1  A    between atoms: C_1  and  C_2
REMARK    2  A    between atoms: C_2  and  N_3
REMARK    3  A    between atoms: N_3  and  C_4
REMARK    4  A    between atoms: N_3  and  C_6
REMARK    5  A    between atoms: C_4  and  C_5
REMARK    6  A    between atoms: C_6  and  C_7
REMARK    7  A    between atoms: C_7  and  O_8
REMARK    8  A    between atoms: O_8  and  C_9
REMARK    9  A    between atoms: C_9  and  C_11
REMARK   10  A    between atoms: C_11  and  C_21
REMARK   11  A    between atoms: C_12  and  C_13
REMARK   12  A    between atoms: C_16  and  O_17
REMARK   13  A    between atoms: O_17  and  C_18
REMARK   14  A    between atoms: C_23  and  O_24
REMARK   15  A    between atoms: O_24  and  C_25
REMARK   16  A    between atoms: C_26  and  O_27
REMARK   17  A    between atoms: O_27  and  C_28
REMARK   18  A    between atoms: C_29  and  O_30
REMARK   19  A    between atoms: O_30  and  C_31
REMARK                            x       y       z     vdW  Elec       q    Type
REMARK                         _______ _______ _______ _____ _____    ______ ____
ROOT
ATOM      1  C   UNL     1       0.109   9.989  18.101  0.00  0.00    +0.000 C 
ATOM      2  C   UNL     1      -0.856   9.621  17.230  0.00  0.00    +0.000 C 
ENDROOT
BRANCH   2   3
ATOM      3  C   UNL     1      -2.243  10.113  17.215  0.00  0.00    +0.000 A 
ATOM      4  C   UNL     1      -3.149   9.686  18.193  0.00  0.00    +0.000 A 
ATOM      5  C   UNL     1      -4.447  10.209  18.229  0.00  0.00    +0.000 A 
ATOM      6  C   UNL     1      -4.845  11.176  17.306  0.00  0.00    +0.000 A 
ATOM      7  C   UNL     1      -3.963  11.566  16.299  0.00  0.00    +0.000 A 
ATOM      8  C   UNL     1      -2.666  11.037  16.254  0.00  0.00    +0.000 A 
BRANCH   6   9
ATOM      9  O   UNL     1      -6.123  11.642  17.454  0.00  0.00    +0.000 OA
ATOM     10  C   UNL     1      -6.874  11.020  18.494  0.00  0.00    +0.000 C 
ENDBRANCH   6   9
ENDBRANCH   2   3
BRANCH   1  11
ATOM     11  C   UNL     1      -0.184  10.916  19.209  0.00  0.00    +0.000 A 
ATOM     12  C   UNL     1      -0.440  12.262  18.948  0.00  0.00    +0.000 A 
ATOM     13  C   UNL     1      -0.640  13.155  20.003  0.00  0.00    +0.000 A 
ATOM     14  C   UNL     1      -0.574  12.700  21.342  0.00  0.00    +0.000 A 
ATOM     15  C   UNL     1      -0.350  11.332  21.606  0.00  0.00    +0.000 A 
ATOM     16  C   UNL     1      -0.169  10.454  20.530  0.00  0.00    +0.000 A 
BRANCH  13  17
ATOM     17  O   UNL     1      -0.871  14.499  19.814  0.00  0.00    +0.000 OA
ATOM     18  C   UNL     1      -0.085  15.145  18.819  0.00  0.00    +0.000 C 
ENDBRANCH  13  17
BRANCH  14  19
ATOM     19  O   UNL     1      -0.679  13.700  22.283  0.00  0.00    +0.000 OA
ATOM     20  C   UNL     1      -1.898  13.825  22.996  0.00  0.00    +0.000 C 
ENDBRANCH  14  19
BRANCH  15  21
ATOM     21  O   UNL     1      -0.279  10.920  22.911  0.00  0.00    +0.000 OA
ATOM     22  C   UNL     1      -0.089   9.535  23.173  0.00  0.00    +0.000 C 
ENDBRANCH  15  21
ENDBRANCH   1  11
BRANCH   1  23
ATOM     23  C   UNL     1       1.517   9.498  17.958  0.00  0.00    +0.000 C 
ATOM     24  O   UNL     1       2.456  10.232  17.687  0.00  0.00    +0.000 OA
BRANCH  23  25
ATOM     25  O   UNL     1       1.576   8.142  18.022  0.00  0.00    +0.000 OA
BRANCH  25  26
ATOM     26  C   UNL     1       2.168   7.606  19.223  0.00  0.00    +0.000 C 
BRANCH  26  27
ATOM     27  C   UNL     1       3.157   6.455  18.967  0.00  0.00    +0.000 C 
BRANCH  27  28
ATOM     28  N   UNL     1       2.593   5.100  19.164  0.00  0.00    +0.000 NA
BRANCH  28  30
ATOM     29  C   UNL     1       2.006   3.837  21.279  0.00  0.00    +0.000 C 
ATOM     30  C   UNL     1       1.790   5.068  20.402  0.00  0.00    +0.000 C 
ENDBRANCH  28  30
BRANCH  28  31
ATOM     31  C   UNL     1       1.910   4.547  17.989  0.00  0.00    +0.000 C 
ATOM     32  C   UNL     1       2.410   3.192  17.500  0.00  0.00    +0.000 C 
ENDBRANCH  28  31
ENDBRANCH  27  28
ENDBRANCH  26  27
ENDBRANCH  25  26
ENDBRANCH  23  25
ENDBRANCH   1  23
TORSDOF 13
ENDMDL
MODEL 2
REMARK VINA RESULT:      -6.1      0.596      2.344
REMARK  Name = 
REMARK  19 active torsions:
REMARK  status: ('A' for Active; 'I' for Inactive)
REMARK    1  A    between atoms: C_1  and  C_2
REMARK    2  A    between atoms: C_2  and  N_3
REMARK    3  A    between atoms: N_3  and  C_4
REMARK    4  A    between atoms: N_3  and  C_6
REMARK    5  A    between atoms: C_4  and  C_5
REMARK    6  A    between atoms: C_6  and  C_7
REMARK    7  A    between atoms: C_7  and  O_8
REMARK    8  A    between atoms: O_8  and  C_9
REMARK    9  A    between atoms: C_9  and  C_11
REMARK   10  A    between atoms: C_11  and  C_21
REMARK   11  A    between atoms: C_12  and  C_13
REMARK   12  A    between atoms: C_16  and  O_17
REMARK   13  A    between atoms: O_17  and  C_18
REMARK   14  A    between atoms: C_23  and  O_24
REMARK   15  A    between atoms: O_24  and  C_25
REMARK   16  A    between atoms: C_26  and  O_27
REMARK   17  A    between atoms: O_27  and  C_28
REMARK   18  A    between atoms: C_29  and  O_30
REMARK   19  A    between atoms: O_30  and  C_31
REMARK                            x       y       z     vdW  Elec       q    Type
REMARK                         _______ _______ _______ _____ _____    ______ ____
ROOT
ATOM      1  C   UNL     1       0.083  10.010  18.176  0.00  0.00    +0.000 C 
ATOM      2  C   UNL     1      -0.856   9.581  17.304  0.00  0.00    +0.000 C 
ENDROOT
BRANCH   2   3
ATOM      3  C   UNL     1      -2.230  10.096  17.188  0.00  0.00    +0.000 A 
ATOM      4  C   UNL     1      -3.209   9.697  18.105  0.00  0.00    +0.000 A 
ATOM      5  C   UNL     1      -4.496  10.242  18.046  0.00  0.00    +0.000 A 
ATOM      6  C   UNL     1      -4.813  11.204  17.087  0.00  0.00    +0.000 A 
ATOM      7  C   UNL     1      -3.856  11.568  16.139  0.00  0.00    +0.000 A 
ATOM      8  C   UNL     1      -2.569  11.016  16.190  0.00  0.00    +0.000 A 
BRANCH   6   9
ATOM      9  O   UNL     1      -6.089  11.694  17.141  0.00  0.00    +0.000 OA
ATOM     10  C   UNL     1      -6.750  11.515  18.391  0.00  0.00    +0.000 C 
ENDBRANCH   6   9
ENDBRANCH   2   3
BRANCH   1  11
ATOM     11  C   UNL     1      -0.230  11.042  19.180  0.00  0.00    +0.000 A 
ATOM     12  C   UNL     1      -0.524  10.676  20.493  0.00  0.00    +0.000 A 
ATOM     13  C   UNL     1      -0.897  11.647  21.425  0.00  0.00    +0.000 A 
ATOM     14  C   UNL     1      -0.988  13.006  21.038  0.00  0.00    +0.000 A 
ATOM     15  C   UNL     1      -0.656  13.381  19.718  0.00  0.00    +0.000 A 
ATOM     16  C   UNL     1      -0.269  12.390  18.808  0.00  0.00    +0.000 A 
BRANCH  13  17
ATOM     17  O   UNL     1      -1.224  11.349  22.729  0.00  0.00    +0.000 OA
ATOM     18  C   UNL     1      -0.753  10.105  23.233  0.00  0.00    +0.000 C 
ENDBRANCH  13  17
BRANCH  14  19
ATOM     19  O   UNL     1      -1.472  13.841  22.020  0.00  0.00    +0.000 OA
ATOM     20  C   UNL     1      -2.841  14.209  21.972  0.00  0.00    +0.000 C 
ENDBRANCH  14  19
BRANCH  15  21
ATOM     21  O   UNL     1      -0.765  14.701  19.367  0.00  0.00    +0.000 OA
ATOM     22  C   UNL     1       0.385  15.359  18.849  0.00  0.00    +0.000 C 
ENDBRANCH  15  21
ENDBRANCH   1  11
BRANCH   1  23
ATOM     23  C   UNL     1       1.484   9.480  18.136  0.00  0.00    +0.000 C 
ATOM     24  O   UNL     1       2.356   9.952  17.421  0.00  0.00    +0.000 OA
BRANCH  23  25
ATOM     25  O   UNL     1       1.603   8.344  18.870  0.00  0.00    +0.000 OA
BRANCH  25  26
ATOM     26  C   UNL     1       2.318   7.267  18.230  0.00  0.00    +0.000 C 
BRANCH  26  27
ATOM     27  C   UNL     1       3.167   6.424  19.198  0.00  0.00    +0.000 C 
BRANCH  27  28
ATOM     28  N   UNL     1       2.739   5.012  19.327  0.00  0.00    +0.000 NA
BRANCH  28  30
ATOM     29  C   UNL     1       1.043   3.600  20.568  0.00  0.00    +0.000 C 
ATOM     30  C   UNL     1       1.924   4.846  20.546  0.00  0.00    +0.000 C 
ENDBRANCH  28  30
BRANCH  28  31
ATOM     31  C   UNL     1       2.134   4.446  18.116  0.00  0.00    +0.000 C 
ATOM     32  C   UNL     1       3.043   3.571  17.260  0.00  0.00    +0.000 C 
ENDBRANCH  28  31
ENDBRANCH  27  28
ENDBRANCH  26  27
ENDBRANCH  25  26
ENDBRANCH  23  25
ENDBRANCH   1  23
TORSDOF 13
ENDMDL
MODEL 3
REMARK VINA RESULT:      -6.1      0.778      1.028
REMARK  Name = 
REMARK  19 active torsions:
REMARK  status: ('A' for Active; 'I' for Inactive)
REMARK    1  A    between atoms: C_1  and  C_2
REMARK    2  A    between atoms: C_2  and  N_3
REMARK    3  A    between atoms: N_3  and  C_4
REMARK    4  A    between atoms: N_3  and  C_6
REMARK    5  A    between atoms: C_4  and  C_5
REMARK    6  A    between atoms: C_6  and  C_7
REMARK    7  A    between atoms: C_7  and  O_8
REMARK    8  A    between atoms: O_8  and  C_9
REMARK    9  A    between atoms: C_9  and  C_11
REMARK   10  A    between atoms: C_11  and  C_21
REMARK   11  A    between atoms: C_12  and  C_13
REMARK   12  A    between atoms: C_16  and  O_17
REMARK   13  A    between atoms: O_17  and  C_18
REMARK   14  A    between atoms: C_23  and  O_24
REMARK   15  A    between atoms: O_24  and  C_25
REMARK   16  A    between atoms: C_26  and  O_27
REMARK   17  A    between atoms: O_27  and  C_28
REMARK   18  A    between atoms: C_29  and  O_30
REMARK   19  A    between atoms: O_30  and  C_31
REMARK                            x       y       z     vdW  Elec       q    Type
REMARK                         _______ _______ _______ _____ _____    ______ ____
ROOT
ATOM      1  C   UNL     1       0.138   9.923  18.288  0.00  0.00    +0.000 C 
ATOM      2  C   UNL     1      -0.788   9.569  17.370  0.00  0.00    +0.000 C 
ENDROOT
BRANCH   2   3
ATOM      3  C   UNL     1      -2.170  10.071  17.295  0.00  0.00    +0.000 A 
ATOM      4  C   UNL     1      -3.151   9.555  18.151  0.00  0.00    +0.000 A 
ATOM      5  C   UNL     1      -4.448  10.082  18.137  0.00  0.00    +0.000 A 
ATOM      6  C   UNL     1      -4.771  11.139  17.287  0.00  0.00    +0.000 A 
ATOM      7  C   UNL     1      -3.812  11.622  16.397  0.00  0.00    +0.000 A 
ATOM      8  C   UNL     1      -2.516  11.090  16.402  0.00  0.00    +0.000 A 
BRANCH   6   9
ATOM      9  O   UNL     1      -6.057  11.599  17.380  0.00  0.00    +0.000 OA
ATOM     10  C   UNL     1      -6.805  11.077  18.476  0.00  0.00    +0.000 C 
ENDBRANCH   6   9
ENDBRANCH   2   3
BRANCH   1  11
ATOM     11  C   UNL     1      -0.200  10.843  19.389  0.00  0.00    +0.000 A 
ATOM     12  C   UNL     1      -0.309  12.212  19.150  0.00  0.00    +0.000 A 
ATOM     13  C   UNL     1      -0.552  13.091  20.209  0.00  0.00    +0.000 A 
ATOM     14  C   UNL     1      -0.679  12.596  21.529  0.00  0.00    +0.000 A 
ATOM     15  C   UNL     1      -0.604  11.207  21.766  0.00  0.00    +0.000 A 
ATOM     16  C   UNL     1      -0.377  10.346  20.686  0.00  0.00    +0.000 A 
BRANCH  13  17
ATOM     17  O   UNL     1      -0.645  14.455  20.044  0.00  0.00    +0.000 OA
ATOM     18  C   UNL     1      -0.133  14.984  18.826  0.00  0.00    +0.000 C 
ENDBRANCH  13  17
BRANCH  14  19
ATOM     19  O   UNL     1      -0.805  13.576  22.488  0.00  0.00    +0.000 OA
ATOM     20  C   UNL     1      -2.084  13.792  23.062  0.00  0.00    +0.000 C 
ENDBRANCH  14  19
BRANCH  15  21
ATOM     21  O   UNL     1      -0.718  10.757  23.055  0.00  0.00    +0.000 OA
ATOM     22  C   UNL     1      -0.072   9.538  23.405  0.00  0.00    +0.000 C 
ENDBRANCH  15  21
ENDBRANCH   1  11
BRANCH   1  23
ATOM     23  C   UNL     1       1.547   9.423  18.206  0.00  0.00    +0.000 C 
ATOM     24  O   UNL     1       2.374   9.880  17.430  0.00  0.00    +0.000 OA
BRANCH  23  25
ATOM     25  O   UNL     1       1.727   8.325  18.986  0.00  0.00    +0.000 OA
BRANCH  25  26
ATOM     26  C   UNL     1       2.406   7.222  18.350  0.00  0.00    +0.000 C 
BRANCH  26  27
ATOM     27  C   UNL     1       3.028   6.222  19.342  0.00  0.00    +0.000 C 
BRANCH  27  28
ATOM     28  N   UNL     1       3.262   4.868  18.788  0.00  0.00    +0.000 NA
BRANCH  28  30
ATOM     29  C   UNL     1       1.310   3.308  18.381  0.00  0.00    +0.000 C 
ATOM     30  C   UNL     1       2.146   4.491  17.900  0.00  0.00    +0.000 C 
ENDBRANCH  28  30
BRANCH  28  31
ATOM     31  C   UNL     1       4.593   4.672  18.200  0.00  0.00    +0.000 C 
ATOM     32  C   UNL     1       4.622   4.177  16.759  0.00  0.00    +0.000 C 
ENDBRANCH  28  31
ENDBRANCH  27  28
ENDBRANCH  26  27
ENDBRANCH  25  26
ENDBRANCH  23  25
ENDBRANCH   1  23
TORSDOF 13
ENDMDL
MODEL 4
REMARK VINA RESULT:      -6.0      0.929      2.666
REMARK  Name = 
REMARK  19 active torsions:
REMARK  status: ('A' for Active; 'I' for Inactive)
REMARK    1  A    between atoms: C_1  and  C_2
REMARK    2  A    between atoms: C_2  and  N_3
REMARK    3  A    between atoms: N_3  and  C_4
REMARK    4  A    between atoms: N_3  and  C_6
REMARK    5  A    between atoms: C_4  and  C_5
REMARK    6  A    between atoms: C_6  and  C_7
REMARK    7  A    between atoms: C_7  and  O_8
REMARK    8  A    between atoms: O_8  and  C_9
REMARK    9  A    between atoms: C_9  and  C_11
REMARK   10  A    between atoms: C_11  and  C_21
REMARK   11  A    between atoms: C_12  and  C_13
REMARK   12  A    between atoms: C_16  and  O_17
REMARK   13  A    between atoms: O_17  and  C_18
REMARK   14  A    between atoms: C_23  and  O_24
REMARK   15  A    between atoms: O_24  and  C_25
REMARK   16  A    between atoms: C_26  and  O_27
REMARK   17  A    between atoms: O_27  and  C_28
REMARK   18  A    between atoms: C_29  and  O_30
REMARK   19  A    between atoms: O_30  and  C_31
REMARK                            x       y       z     vdW  Elec       q    Type
REMARK                         _______ _______ _______ _____ _____    ______ ____
ROOT
ATOM      1  C   UNL     1       0.118   9.892  18.178  0.00  0.00    +0.000 C 
ATOM      2  C   UNL     1      -0.853   9.470  17.338  0.00  0.00    +0.000 C 
ENDROOT
BRANCH   2   3
ATOM      3  C   UNL     1      -2.193  10.063  17.195  0.00  0.00    +0.000 A 
ATOM      4  C   UNL     1      -3.144   9.901  18.209  0.00  0.00    +0.000 A 
ATOM      5  C   UNL     1      -4.392  10.527  18.113  0.00  0.00    +0.000 A 
ATOM      6  C   UNL     1      -4.695  11.335  17.017  0.00  0.00    +0.000 A 
ATOM      7  C   UNL     1      -3.771  11.459  15.981  0.00  0.00    +0.000 A 
ATOM      8  C   UNL     1      -2.523  10.825  16.070  0.00  0.00    +0.000 A 
BRANCH   6   9
ATOM      9  O   UNL     1      -5.930  11.924  17.042  0.00  0.00    +0.000 OA
ATOM     10  C   UNL     1      -6.790  11.476  18.087  0.00  0.00    +0.000 C 
ENDBRANCH   6   9
ENDBRANCH   2   3
BRANCH   1  11
ATOM     11  C   UNL     1      -0.123  11.002  19.118  0.00  0.00    +0.000 A 
ATOM     12  C   UNL     1      -0.393  10.739  20.460  0.00  0.00    +0.000 A 
ATOM     13  C   UNL     1      -0.698  11.786  21.332  0.00  0.00    +0.000 A 
ATOM     14  C   UNL     1      -0.743  13.118  20.855  0.00  0.00    +0.000 A 
ATOM     15  C   UNL     1      -0.434  13.389  19.505  0.00  0.00    +0.000 A 
ATOM     16  C   UNL     1      -0.115  12.323  18.655  0.00  0.00    +0.000 A 
BRANCH  13  17
ATOM     17  O   UNL     1      -1.000  11.592  22.661  0.00  0.00    +0.000 OA
ATOM     18  C   UNL     1      -0.856  10.266  23.157  0.00  0.00    +0.000 C 
ENDBRANCH  13  17
BRANCH  14  19
ATOM     19  O   UNL     1      -1.162  14.038  21.790  0.00  0.00    +0.000 OA
ATOM     20  C   UNL     1      -0.177  14.777  22.493  0.00  0.00    +0.000 C 
ENDBRANCH  14  19
BRANCH  15  21
ATOM     21  O   UNL     1      -0.496  14.686  19.067  0.00  0.00    +0.000 OA
ATOM     22  C   UNL     1       0.720  15.409  18.920  0.00  0.00    +0.000 C 
ENDBRANCH  15  21
ENDBRANCH   1  11
BRANCH   1  23
ATOM     23  C   UNL     1       1.481   9.273  18.166  0.00  0.00    +0.000 C 
ATOM     24  O   UNL     1       2.339   9.563  17.344  0.00  0.00    +0.000 OA
BRANCH  23  25
ATOM     25  O   UNL     1       1.576   8.269  19.076  0.00  0.00    +0.000 OA
BRANCH  25  26
ATOM     26  C   UNL     1       2.678   7.360  18.880  0.00  0.00    +0.000 C 
BRANCH  26  27
ATOM     27  C   UNL     1       2.294   6.072  18.128  0.00  0.00    +0.000 C 
BRANCH  27  28
ATOM     28  N   UNL     1       2.748   4.820  18.776  0.00  0.00    +0.000 NA
BRANCH  28  30
ATOM     29  C   UNL     1       4.473   4.259  17.009  0.00  0.00    +0.000 C 
ATOM     30  C   UNL     1       4.173   4.587  18.470  0.00  0.00    +0.000 C 
ENDBRANCH  28  30
BRANCH  28  31
ATOM     31  C   UNL     1       2.413   4.715  20.201  0.00  0.00    +0.000 C 
ATOM     32  C   UNL     1       1.098   4.016  20.529  0.00  0.00    +0.000 C 
ENDBRANCH  28  31
ENDBRANCH  27  28
ENDBRANCH  26  27
ENDBRANCH  25  26
ENDBRANCH  23  25
ENDBRANCH   1  23
TORSDOF 13
ENDMDL
MODEL 5
REMARK VINA RESULT:      -6.0      5.878     10.303
REMARK  Name = 
REMARK  19 active torsions:
REMARK  status: ('A' for Active; 'I' for Inactive)
REMARK    1  A    between atoms: C_1  and  C_2
REMARK    2  A    between atoms: C_2  and  N_3
REMARK    3  A    between atoms: N_3  and  C_4
REMARK    4  A    between atoms: N_3  and  C_6
REMARK    5  A    between atoms: C_4  and  C_5
REMARK    6  A    between atoms: C_6  and  C_7
REMARK    7  A    between atoms: C_7  and  O_8
REMARK    8  A    between atoms: O_8  and  C_9
REMARK    9  A    between atoms: C_9  and  C_11
REMARK   10  A    between atoms: C_11  and  C_21
REMARK   11  A    between atoms: C_12  and  C_13
REMARK   12  A    between atoms: C_16  and  O_17
REMARK   13  A    between atoms: O_17  and  C_18
REMARK   14  A    between atoms: C_23  and  O_24
REMARK   15  A    between atoms: O_24  and  C_25
REMARK   16  A    between atoms: C_26  and  O_27
REMARK   17  A    between atoms: O_27  and  C_28
REMARK   18  A    between atoms: C_29  and  O_30
REMARK   19  A    between atoms: O_30  and  C_31
REMARK                            x       y       z     vdW  Elec       q    Type
REMARK                         _______ _______ _______ _____ _____    ______ ____
ROOT
ATOM      1  C   UNL     1       6.987   5.985  17.084  0.00  0.00    +0.000 C 
ATOM      2  C   UNL     1       7.522   5.706  15.875  0.00  0.00    +0.000 C 
ENDROOT
BRANCH   2   3
ATOM      3  C   UNL     1       6.847   5.007  14.769  0.00  0.00    +0.000 A 
ATOM      4  C   UNL     1       7.493   4.854  13.536  0.00  0.00    +0.000 A 
ATOM      5  C   UNL     1       6.887   4.125  12.507  0.00  0.00    +0.000 A 
ATOM      6  C   UNL     1       5.643   3.526  12.704  0.00  0.00    +0.000 A 
ATOM      7  C   UNL     1       4.973   3.718  13.912  0.00  0.00    +0.000 A 
ATOM      8  C   UNL     1       5.573   4.456  14.941  0.00  0.00    +0.000 A 
BRANCH   6   9
ATOM      9  O   UNL     1       5.159   2.809  11.643  0.00  0.00    +0.000 OA
ATOM     10  C   UNL     1       3.885   3.231  11.163  0.00  0.00    +0.000 C 
ENDBRANCH   6   9
ENDBRANCH   2   3
BRANCH   1  11
ATOM     11  C   UNL     1       5.630   5.530  17.435  0.00  0.00    +0.000 A 
ATOM     12  C   UNL     1       4.554   6.415  17.365  0.00  0.00    +0.000 A 
ATOM     13  C   UNL     1       3.283   6.005  17.773  0.00  0.00    +0.000 A 
ATOM     14  C   UNL     1       3.082   4.694  18.267  0.00  0.00    +0.000 A 
ATOM     15  C   UNL     1       4.163   3.787  18.304  0.00  0.00    +0.000 A 
ATOM     16  C   UNL     1       5.424   4.218  17.874  0.00  0.00    +0.000 A 
BRANCH  13  17
ATOM     17  O   UNL     1       2.185   6.837  17.753  0.00  0.00    +0.000 OA
ATOM     18  C   UNL     1       2.335   8.101  18.387  0.00  0.00    +0.000 C 
ENDBRANCH  13  17
BRANCH  14  19
ATOM     19  O   UNL     1       1.810   4.457  18.736  0.00  0.00    +0.000 OA
ATOM     20  C   UNL     1       1.569   4.605  20.126  0.00  0.00    +0.000 C 
ENDBRANCH  14  19
BRANCH  15  21
ATOM     21  O   UNL     1       3.944   2.528  18.799  0.00  0.00    +0.000 OA
ATOM     22  C   UNL     1       4.405   2.228  20.110  0.00  0.00    +0.000 C 
ENDBRANCH  15  21
ENDBRANCH   1  11
BRANCH   1  23
ATOM     23  C   UNL     1       7.735   6.792  18.099  0.00  0.00    +0.000 C 
ATOM     24  O   UNL     1       8.086   6.345  19.182  0.00  0.00    +0.000 OA
BRANCH  23  25
ATOM     25  O   UNL     1       7.835   8.093  17.720  0.00  0.00    +0.000 OA
BRANCH  25  26
ATOM     26  C   UNL     1       8.600   8.937  18.604  0.00  0.00    +0.000 C 
BRANCH  26  27
ATOM     27  C   UNL     1       8.762  10.382  18.098  0.00  0.00    +0.000 C 
BRANCH  27  28
ATOM     28  N   UNL     1       9.863  11.140  18.735  0.00  0.00    +0.000 NA
BRANCH  28  30
ATOM     29  C   UNL     1      11.010  13.183  17.776  0.00  0.00    +0.000 C 
ATOM     30  C   UNL     1      10.765  11.678  17.699  0.00  0.00    +0.000 C 
ENDBRANCH  28  30
BRANCH  28  31
ATOM     31  C   UNL     1       9.426  12.129  19.728  0.00  0.00    +0.000 C 
ATOM     32  C   UNL     1       9.391  11.655  21.176  0.00  0.00    +0.000 C 
ENDBRANCH  28  31
ENDBRANCH  27  28
ENDBRANCH  26  27
ENDBRANCH  25  26
ENDBRANCH  23  25
ENDBRANCH   1  23
TORSDOF 13
ENDMDL
MODEL 6
REMARK VINA RESULT:      -6.0      0.962      2.561
REMARK  Name = 
REMARK  19 active torsions:
REMARK  status: ('A' for Active; 'I' for Inactive)
REMARK    1  A    between atoms: C_1  and  C_2
REMARK    2  A    between atoms: C_2  and  N_3
REMARK    3  A    between atoms: N_3  and  C_4
REMARK    4  A    between atoms: N_3  and  C_6
REMARK    5  A    between atoms: C_4  and  C_5
REMARK    6  A    between atoms: C_6  and  C_7
REMARK    7  A    between atoms: C_7  and  O_8
REMARK    8  A    between atoms: O_8  and  C_9
REMARK    9  A    between atoms: C_9  and  C_11
REMARK   10  A    between atoms: C_11  and  C_21
REMARK   11  A    between atoms: C_12  and  C_13
REMARK   12  A    between atoms: C_16  and  O_17
REMARK   13  A    between atoms: O_17  and  C_18
REMARK   14  A    between atoms: C_23  and  O_24
REMARK   15  A    between atoms: O_24  and  C_25
REMARK   16  A    between atoms: C_26  and  O_27
REMARK   17  A    between atoms: O_27  and  C_28
REMARK   18  A    between atoms: C_29  and  O_30
REMARK   19  A    between atoms: O_30  and  C_31
REMARK                            x       y       z     vdW  Elec       q    Type
REMARK                         _______ _______ _______ _____ _____    ______ ____
ROOT
ATOM      1  C   UNL     1       0.204  10.088  18.272  0.00  0.00    +0.000 C 
ATOM      2  C   UNL     1      -0.833   9.700  17.498  0.00  0.00    +0.000 C 
ENDROOT
BRANCH   2   3
ATOM      3  C   UNL     1      -2.139  10.372  17.399  0.00  0.00    +0.000 A 
ATOM      4  C   UNL     1      -2.581  10.869  16.167  0.00  0.00    +0.000 A 
ATOM      5  C   UNL     1      -3.853  11.440  16.051  0.00  0.00    +0.000 A 
ATOM      6  C   UNL     1      -4.703  11.502  17.155  0.00  0.00    +0.000 A 
ATOM      7  C   UNL     1      -4.249  11.055  18.396  0.00  0.00    +0.000 A 
ATOM      8  C   UNL     1      -2.971  10.491  18.517  0.00  0.00    +0.000 A 
BRANCH   6   9
ATOM      9  O   UNL     1      -5.935  12.050  16.922  0.00  0.00    +0.000 OA
ATOM     10  C   UNL     1      -6.892  11.843  17.959  0.00  0.00    +0.000 C 
ENDBRANCH   6   9
ENDBRANCH   2   3
BRANCH   1  11
ATOM     11  C   UNL     1       0.082  11.244  19.179  0.00  0.00    +0.000 A 
ATOM     12  C   UNL     1      -0.083  11.045  20.549  0.00  0.00    +0.000 A 
ATOM     13  C   UNL     1      -0.277  12.139  21.396  0.00  0.00    +0.000 A 
ATOM     14  C   UNL     1      -0.315  13.451  20.867  0.00  0.00    +0.000 A 
ATOM     15  C   UNL     1      -0.111  13.655  19.486  0.00  0.00    +0.000 A 
ATOM     16  C   UNL     1       0.097  12.543  18.660  0.00  0.00    +0.000 A 
BRANCH  13  17
ATOM     17  O   UNL     1      -0.473  12.010  22.753  0.00  0.00    +0.000 OA
ATOM     18  C   UNL     1      -1.254  10.900  23.180  0.00  0.00    +0.000 C 
ENDBRANCH  13  17
BRANCH  14  19
ATOM     19  O   UNL     1      -0.622  14.423  21.793  0.00  0.00    +0.000 OA
ATOM     20  C   UNL     1       0.441  15.177  22.352  0.00  0.00    +0.000 C 
ENDBRANCH  14  19
BRANCH  15  21
ATOM     21  O   UNL     1      -0.165  14.934  18.998  0.00  0.00    +0.000 OA
ATOM     22  C   UNL     1       1.058  15.623  18.772  0.00  0.00    +0.000 C 
ENDBRANCH  15  21
ENDBRANCH   1  11
BRANCH   1  23
ATOM     23  C   UNL     1       1.524   9.383  18.216  0.00  0.00    +0.000 C 
ATOM     24  O   UNL     1       2.351   9.581  17.337  0.00  0.00    +0.000 OA
BRANCH  23  25
ATOM     25  O   UNL     1       1.607   8.415  19.166  0.00  0.00    +0.000 OA
BRANCH  25  26
ATOM     26  C   UNL     1       2.516   7.335  18.869  0.00  0.00    +0.000 C 
BRANCH  26  27
ATOM     27  C   UNL     1       2.331   6.102  19.772  0.00  0.00    +0.000 C 
BRANCH  27  28
ATOM     28  N   UNL     1       2.871   4.841  19.213  0.00  0.00    +0.000 NA
BRANCH  28  30
ATOM     29  C   UNL     1       1.141   3.722  20.684  0.00  0.00    +0.000 C 
ATOM     30  C   UNL     1       2.559   3.719  20.119  0.00  0.00    +0.000 C 
ENDBRANCH  28  30
BRANCH  28  31
ATOM     31  C   UNL     1       2.521   4.597  17.809  0.00  0.00    +0.000 C 
ATOM     32  C   UNL     1       2.635   3.154  17.331  0.00  0.00    +0.000 C 
ENDBRANCH  28  31
ENDBRANCH  27  28
ENDBRANCH  26  27
ENDBRANCH  25  26
ENDBRANCH  23  25
ENDBRANCH   1  23
TORSDOF 13
ENDMDL
MODEL 7
REMARK VINA RESULT:      -5.9      5.942     10.251
REMARK  Name = 
REMARK  19 active torsions:
REMARK  status: ('A' for Active; 'I' for Inactive)
REMARK    1  A    between atoms: C_1  and  C_2
REMARK    2  A    between atoms: C_2  and  N_3
REMARK    3  A    between atoms: N_3  and  C_4
REMARK    4  A    between atoms: N_3  and  C_6
REMARK    5  A    between atoms: C_4  and  C_5
REMARK    6  A    between atoms: C_6  and  C_7
REMARK    7  A    between atoms: C_7  and  O_8
REMARK    8  A    between atoms: O_8  and  C_9
REMARK    9  A    between atoms: C_9  and  C_11
REMARK   10  A    between atoms: C_11  and  C_21
REMARK   11  A    between atoms: C_12  and  C_13
REMARK   12  A    between atoms: C_16  and  O_17
REMARK   13  A    between atoms: O_17  and  C_18
REMARK   14  A    between atoms: C_23  and  O_24
REMARK   15  A    between atoms: O_24  and  C_25
REMARK   16  A    between atoms: C_26  and  O_27
REMARK   17  A    between atoms: O_27  and  C_28
REMARK   18  A    between atoms: C_29  and  O_30
REMARK   19  A    between atoms: O_30  and  C_31
REMARK                            x       y       z     vdW  Elec       q    Type
REMARK                         _______ _______ _______ _____ _____    ______ ____
ROOT
ATOM      1  C   UNL     1       7.006   6.109  17.049  0.00  0.00    +0.000 C 
ATOM      2  C   UNL     1       7.520   5.828  15.831  0.00  0.00    +0.000 C 
ENDROOT
BRANCH   2   3
ATOM      3  C   UNL     1       6.846   5.081  14.757  0.00  0.00    +0.000 A 
ATOM      4  C   UNL     1       7.481   4.900  13.522  0.00  0.00    +0.000 A 
ATOM      5  C   UNL     1       6.878   4.125  12.525  0.00  0.00    +0.000 A 
ATOM      6  C   UNL     1       5.648   3.509  12.756  0.00  0.00    +0.000 A 
ATOM      7  C   UNL     1       4.988   3.727  13.965  0.00  0.00    +0.000 A 
ATOM      8  C   UNL     1       5.586   4.511  14.962  0.00  0.00    +0.000 A 
BRANCH   6   9
ATOM      9  O   UNL     1       5.167   2.748  11.726  0.00  0.00    +0.000 OA
ATOM     10  C   UNL     1       3.963   3.231  11.133  0.00  0.00    +0.000 C 
ENDBRANCH   6   9
ENDBRANCH   2   3
BRANCH   1  11
ATOM     11  C   UNL     1       5.678   5.605  17.445  0.00  0.00    +0.000 A 
ATOM     12  C   UNL     1       4.571   6.452  17.420  0.00  0.00    +0.000 A 
ATOM     13  C   UNL     1       3.330   5.996  17.869  0.00  0.00    +0.000 A 
ATOM     14  C   UNL     1       3.193   4.676  18.361  0.00  0.00    +0.000 A 
ATOM     15  C   UNL     1       4.305   3.807  18.352  0.00  0.00    +0.000 A 
ATOM     16  C   UNL     1       5.534   4.283  17.881  0.00  0.00    +0.000 A 
BRANCH  13  17
ATOM     17  O   UNL     1       2.204   6.789  17.895  0.00  0.00    +0.000 OA
ATOM     18  C   UNL     1       2.418   8.191  18.008  0.00  0.00    +0.000 C 
ENDBRANCH  13  17
BRANCH  14  19
ATOM     19  O   UNL     1       1.947   4.392  18.873  0.00  0.00    +0.000 OA
ATOM     20  C   UNL     1       1.143   3.440  18.195  0.00  0.00    +0.000 C 
ENDBRANCH  14  19
BRANCH  15  21
ATOM     21  O   UNL     1       4.147   2.538  18.845  0.00  0.00    +0.000 OA
ATOM     22  C   UNL     1       4.422   2.308  20.222  0.00  0.00    +0.000 C 
ENDBRANCH  15  21
ENDBRANCH   1  11
BRANCH   1  23
ATOM     23  C   UNL     1       7.746   6.966  18.028  0.00  0.00    +0.000 C 
ATOM     24  O   UNL     1       8.163   6.550  19.100  0.00  0.00    +0.000 OA
BRANCH  23  25
ATOM     25  O   UNL     1       7.756   8.268  17.637  0.00  0.00    +0.000 OA
BRANCH  25  26
ATOM     26  C   UNL     1       8.505   9.161  18.485  0.00  0.00    +0.000 C 
BRANCH  26  27
ATOM     27  C   UNL     1       8.712  10.562  17.880  0.00  0.00    +0.000 C 
BRANCH  27  28
ATOM     28  N   UNL     1       9.216  11.578  18.834  0.00  0.00    +0.000 NA
BRANCH  28  30
ATOM     29  C   UNL     1       9.165  11.748  21.359  0.00  0.00    +0.000 C 
ATOM     30  C   UNL     1       9.541  10.936  20.122  0.00  0.00    +0.000 C 
ENDBRANCH  28  30
BRANCH  28  31
ATOM     31  C   UNL     1      10.281  12.437  18.302  0.00  0.00    +0.000 C 
ATOM     32  C   UNL     1      11.627  11.763  18.061  0.00  0.00    +0.000 C 
ENDBRANCH  28  31
ENDBRANCH  27  28
ENDBRANCH  26  27
ENDBRANCH  25  26
ENDBRANCH  23  25
ENDBRANCH   1  23
TORSDOF 13
ENDMDL
MODEL 8
REMARK VINA RESULT:      -5.9      0.904      1.447
REMARK  Name = 
REMARK  19 active torsions:
REMARK  status: ('A' for Active; 'I' for Inactive)
REMARK    1  A    between atoms: C_1  and  C_2
REMARK    2  A    between atoms: C_2  and  N_3
REMARK    3  A    between atoms: N_3  and  C_4
REMARK    4  A    between atoms: N_3  and  C_6
REMARK    5  A    between atoms: C_4  and  C_5
REMARK    6  A    between atoms: C_6  and  C_7
REMARK    7  A    between atoms: C_7  and  O_8
REMARK    8  A    between atoms: O_8  and  C_9
REMARK    9  A    between atoms: C_9  and  C_11
REMARK   10  A    between atoms: C_11  and  C_21
REMARK   11  A    between atoms: C_12  and  C_13
REMARK   12  A    between atoms: C_16  and  O_17
REMARK   13  A    between atoms: O_17  and  C_18
REMARK   14  A    between atoms: C_23  and  O_24
REMARK   15  A    between atoms: O_24  and  C_25
REMARK   16  A    between atoms: C_26  and  O_27
REMARK   17  A    between atoms: O_27  and  C_28
REMARK   18  A    between atoms: C_29  and  O_30
REMARK   19  A    between atoms: O_30  and  C_31
REMARK                            x       y       z     vdW  Elec       q    Type
REMARK                         _______ _______ _______ _____ _____    ______ ____
ROOT
ATOM      1  C   UNL     1       0.132   9.951  18.162  0.00  0.00    +0.000 C 
ATOM      2  C   UNL     1      -0.842   9.585  17.300  0.00  0.00    +0.000 C 
ENDROOT
BRANCH   2   3
ATOM      3  C   UNL     1      -2.229  10.078  17.300  0.00  0.00    +0.000 A 
ATOM      4  C   UNL     1      -3.163   9.547  18.197  0.00  0.00    +0.000 A 
ATOM      5  C   UNL     1      -4.462  10.066  18.254  0.00  0.00    +0.000 A 
ATOM      6  C   UNL     1      -4.834  11.129  17.432  0.00  0.00    +0.000 A 
ATOM      7  C   UNL     1      -3.923  11.627  16.500  0.00  0.00    +0.000 A 
ATOM      8  C   UNL     1      -2.625  11.103  16.435  0.00  0.00    +0.000 A 
BRANCH   6   9
ATOM      9  O   UNL     1      -6.116  11.579  17.593  0.00  0.00    +0.000 OA
ATOM     10  C   UNL     1      -6.356  12.899  17.110  0.00  0.00    +0.000 C 
ENDBRANCH   6   9
ENDBRANCH   2   3
BRANCH   1  11
ATOM     11  C   UNL     1      -0.149  10.878  19.274  0.00  0.00    +0.000 A 
ATOM     12  C   UNL     1      -0.328  12.238  19.024  0.00  0.00    +0.000 A 
ATOM     13  C   UNL     1      -0.516  13.126  20.085  0.00  0.00    +0.000 A 
ATOM     14  C   UNL     1      -0.517  12.651  21.419  0.00  0.00    +0.000 A 
ATOM     15  C   UNL     1      -0.371  11.270  21.670  0.00  0.00    +0.000 A 
ATOM     16  C   UNL     1      -0.201  10.398  20.587  0.00  0.00    +0.000 A 
BRANCH  13  17
ATOM     17  O   UNL     1      -0.672  14.483  19.909  0.00  0.00    +0.000 OA
ATOM     18  C   UNL     1       0.050  15.070  18.833  0.00  0.00    +0.000 C 
ENDBRANCH  13  17
BRANCH  14  19
ATOM     19  O   UNL     1      -0.600  13.643  22.370  0.00  0.00    +0.000 OA
ATOM     20  C   UNL     1      -1.809  13.770  23.102  0.00  0.00    +0.000 C 
ENDBRANCH  14  19
BRANCH  15  21
ATOM     21  O   UNL     1      -0.363  10.838  22.970  0.00  0.00    +0.000 OA
ATOM     22  C   UNL     1      -0.030   9.480  23.230  0.00  0.00    +0.000 C 
ENDBRANCH  15  21
ENDBRANCH   1  11
BRANCH   1  23
ATOM     23  C   UNL     1       1.538   9.459  18.005  0.00  0.00    +0.000 C 
ATOM     24  O   UNL     1       2.467  10.184  17.681  0.00  0.00    +0.000 OA
BRANCH  23  25
ATOM     25  O   UNL     1       1.603   8.107  18.123  0.00  0.00    +0.000 OA
BRANCH  25  26
ATOM     26  C   UNL     1       2.018   7.620  19.416  0.00  0.00    +0.000 C 
BRANCH  26  27
ATOM     27  C   UNL     1       3.008   6.443  19.348  0.00  0.00    +0.000 C 
BRANCH  27  28
ATOM     28  N   UNL     1       3.253   5.921  17.984  0.00  0.00    +0.000 NA
BRANCH  28  30
ATOM     29  C   UNL     1       5.160   5.554  16.359  0.00  0.00    +0.000 C 
ATOM     30  C   UNL     1       4.573   6.375  17.505  0.00  0.00    +0.000 C 
ENDBRANCH  28  30
BRANCH  28  31
ATOM     31  C   UNL     1       3.020   4.480  17.832  0.00  0.00    +0.000 C 
ATOM     32  C   UNL     1       1.770   3.929  18.510  0.00  0.00    +0.000 C 
ENDBRANCH  28  31
ENDBRANCH  27  28
ENDBRANCH  26  27
ENDBRANCH  25  26
ENDBRANCH  23  25
ENDBRANCH   1  23
TORSDOF 13
ENDMDL
MODEL 9
REMARK VINA RESULT:      -5.9      0.795      1.358
REMARK  Name = 
REMARK  19 active torsions:
REMARK  status: ('A' for Active; 'I' for Inactive)
REMARK    1  A    between atoms: C_1  and  C_2
REMARK    2  A    between atoms: C_2  and  N_3
REMARK    3  A    between atoms: N_3  and  C_4
REMARK    4  A    between atoms: N_3  and  C_6
REMARK    5  A    between atoms: C_4  and  C_5
REMARK    6  A    between atoms: C_6  and  C_7
REMARK    7  A    between atoms: C_7  and  O_8
REMARK    8  A    between atoms: O_8  and  C_9
REMARK    9  A    between atoms: C_9  and  C_11
REMARK   10  A    between atoms: C_11  and  C_21
REMARK   11  A    between atoms: C_12  and  C_13
REMARK   12  A    between atoms: C_16  and  O_17
REMARK   13  A    between atoms: O_17  and  C_18
REMARK   14  A    between atoms: C_23  and  O_24
REMARK   15  A    between atoms: O_24  and  C_25
REMARK   16  A    between atoms: C_26  and  O_27
REMARK   17  A    between atoms: O_27  and  C_28
REMARK   18  A    between atoms: C_29  and  O_30
REMARK   19  A    between atoms: O_30  and  C_31
REMARK                            x       y       z     vdW  Elec       q    Type
REMARK                         _______ _______ _______ _____ _____    ______ ____
ROOT
ATOM      1  C   UNL     1       0.446   9.856  18.259  0.00  0.00    +0.000 C 
ATOM      2  C   UNL     1      -0.573   9.571  17.418  0.00  0.00    +0.000 C 
ENDROOT
BRANCH   2   3
ATOM      3  C   UNL     1      -1.891  10.226  17.401  0.00  0.00    +0.000 A 
ATOM      4  C   UNL     1      -2.521  10.568  18.603  0.00  0.00    +0.000 A 
ATOM      5  C   UNL     1      -3.737  11.260  18.592  0.00  0.00    +0.000 A 
ATOM      6  C   UNL     1      -4.326  11.633  17.384  0.00  0.00    +0.000 A 
ATOM      7  C   UNL     1      -3.729  11.250  16.183  0.00  0.00    +0.000 A 
ATOM      8  C   UNL     1      -2.515  10.549  16.192  0.00  0.00    +0.000 A 
BRANCH   6   9
ATOM      9  O   UNL     1      -5.497  12.334  17.490  0.00  0.00    +0.000 OA
ATOM     10  C   UNL     1      -6.601  11.588  17.995  0.00  0.00    +0.000 C 
ENDBRANCH   6   9
ENDBRANCH   2   3
BRANCH   1  11
ATOM     11  C   UNL     1       0.287  10.857  19.330  0.00  0.00    +0.000 A 
ATOM     12  C   UNL     1       0.494  12.209  19.061  0.00  0.00    +0.000 A 
ATOM     13  C   UNL     1       0.420  13.148  20.093  0.00  0.00    +0.000 A 
ATOM     14  C   UNL     1       0.144  12.730  21.416  0.00  0.00    +0.000 A 
ATOM     15  C   UNL     1      -0.101  11.366  21.682  0.00  0.00    +0.000 A 
ATOM     16  C   UNL     1      -0.037  10.447  20.628  0.00  0.00    +0.000 A 
BRANCH  13  17
ATOM     17  O   UNL     1       0.639  14.494  19.899  0.00  0.00    +0.000 OA
ATOM     18  C   UNL     1      -0.222  15.151  18.976  0.00  0.00    +0.000 C 
ENDBRANCH  13  17
BRANCH  14  19
ATOM     19  O   UNL     1       0.209  13.738  22.352  0.00  0.00    +0.000 OA
ATOM     20  C   UNL     1      -1.006  14.244  22.879  0.00  0.00    +0.000 C 
ENDBRANCH  14  19
BRANCH  15  21
ATOM     21  O   UNL     1      -0.354  10.986  22.975  0.00  0.00    +0.000 OA
ATOM     22  C   UNL     1      -0.168   9.621  23.327  0.00  0.00    +0.000 C 
ENDBRANCH  15  21
ENDBRANCH   1  11
BRANCH   1  23
ATOM     23  C   UNL     1       1.781   9.193  18.119  0.00  0.00    +0.000 C 
ATOM     24  O   UNL     1       2.642   9.583  17.344  0.00  0.00    +0.000 OA
BRANCH  23  25
ATOM     25  O   UNL     1       1.840   8.045  18.842  0.00  0.00    +0.000 OA
BRANCH  25  26
ATOM     26  C   UNL     1       2.548   6.956  18.215  0.00  0.00    +0.000 C 
BRANCH  26  27
ATOM     27  C   UNL     1       2.995   5.858  19.197  0.00  0.00    +0.000 C 
BRANCH  27  28
ATOM     28  N   UNL     1       1.997   4.786  19.420  0.00  0.00    +0.000 NA
BRANCH  28  30
ATOM     29  C   UNL     1       2.667   3.371  17.430  0.00  0.00    +0.000 C 
ATOM     30  C   UNL     1       1.592   4.202  18.127  0.00  0.00    +0.000 C 
ENDBRANCH  28  30
BRANCH  28  31
ATOM     31  C   UNL     1       2.382   3.797  20.434  0.00  0.00    +0.000 C 
ATOM     32  C   UNL     1       1.249   2.961  21.019  0.00  0.00    +0.000 C 
ENDBRANCH  28  31
ENDBRANCH  27  28
ENDBRANCH  26  27
ENDBRANCH  25  26
ENDBRANCH  23  25
ENDBRANCH   1  23
TORSDOF 13
ENDMDL
