MODEL 1
REMARK VINA RESULT:      -7.2      0.000      0.000
REMARK  Name = 
REMARK  4 active torsions:
REMARK  status: ('A' for Active; 'I' for Inactive)
REMARK    1  A    between atoms: C_2  and  C_3
REMARK    2  A    between atoms: C_6  and  C_7
REMARK    3  A    between atoms: N_16  and  C_17
REMARK    4  A    between atoms: C_17  and  C_18
REMARK                            x       y       z     vdW  Elec       q    Type
REMARK                         _______ _______ _______ _____ _____    ______ ____
ROOT
ATOM      1  C   UNL     1       3.514   5.942  17.708  0.00  0.00    +0.000 C 
ATOM      2  O   UNL     1       2.828   6.846  17.229  0.00  0.00    +0.000 OA
ATOM      3  N   UNL     1       4.871   5.786  17.409  0.00  0.00    +0.000 N 
ATOM      4  C   UNL     1       5.743   4.745  17.946  0.00  0.00    +0.000 C 
ATOM      5  C   UNL     1       7.219   4.935  17.622  0.00  0.00    +0.000 C 
ATOM      6  C   UNL     1       7.662   6.365  17.912  0.00  0.00    +0.000 C 
ATOM      7  C   UNL     1       6.720   7.407  17.323  0.00  0.00    +0.000 C 
ATOM      8  C   UNL     1       5.539   6.787  16.563  0.00  0.00    +0.000 C 
ATOM      9  C   UNL     1       5.983   6.224  15.191  0.00  0.00    +0.000 C 
ATOM     10  N   UNL     1       6.633   4.910  15.118  0.00  0.00    +0.000 NA
ATOM     11  C   UNL     1       7.533   4.491  16.184  0.00  0.00    +0.000 C 
ENDROOT
BRANCH   1  15
ATOM     12  C   UNL     1       1.819   3.406  20.752  0.00  0.00    +0.000 A 
ATOM     13  C   UNL     1       1.836   2.966  19.429  0.00  0.00    +0.000 A 
ATOM     14  C   UNL     1       2.296   3.812  18.419  0.00  0.00    +0.000 A 
ATOM     15  C   UNL     1       2.859   5.057  18.722  0.00  0.00    +0.000 A 
ATOM     16  C   UNL     1       2.813   5.506  20.050  0.00  0.00    +0.000 A 
ATOM     17  C   UNL     1       2.279   4.691  21.057  0.00  0.00    +0.000 A 
BRANCH  12  19
ATOM     18  N   UNL     1       0.905   1.863  22.627  0.00  0.00    +0.000 NA
ATOM     19  C   UNL     1       1.310   2.548  21.784  0.00  0.00    +0.000 C 
ENDBRANCH  12  19
ENDBRANCH   1  15
BRANCH  10  20
ATOM     20  C   UNL     1       7.141   4.582  13.772  0.00  0.00    +0.000 C 
BRANCH  20  21
ATOM     21  C   UNL     1       6.209   3.742  12.916  0.00  0.00    +0.000 A 
ATOM     22  C   UNL     1       6.675   2.629  12.204  0.00  0.00    +0.000 A 
ATOM     23  C   UNL     1       5.832   1.940  11.330  0.00  0.00    +0.000 A 
ATOM     24  C   UNL     1       4.510   2.348  11.166  0.00  0.00    +0.000 A 
ATOM     25  C   UNL     1       4.022   3.431  11.893  0.00  0.00    +0.000 A 
ATOM     26  C   UNL     1       4.862   4.115  12.771  0.00  0.00    +0.000 A 
ENDBRANCH  20  21
ENDBRANCH  10  20
TORSDOF 4
ENDMDL
MODEL 2
REMARK VINA RESULT:      -6.3      6.273      9.208
REMARK  Name = 
REMARK  4 active torsions:
REMARK  status: ('A' for Active; 'I' for Inactive)
REMARK    1  A    between atoms: C_2  and  C_3
REMARK    2  A    between atoms: C_6  and  C_7
REMARK    3  A    between atoms: N_16  and  C_17
REMARK    4  A    between atoms: C_17  and  C_18
REMARK                            x       y       z     vdW  Elec       q    Type
REMARK                         _______ _______ _______ _____ _____    ______ ____
ROOT
ATOM      1  C   UNL     1       1.357  12.356  20.651  0.00  0.00    +0.000 C 
ATOM      2  O   UNL     1       0.759  12.554  21.709  0.00  0.00    +0.000 OA
ATOM      3  N   UNL     1       1.139  11.220  19.864  0.00  0.00    +0.000 N 
ATOM      4  C   UNL     1       1.806  10.926  18.598  0.00  0.00    +0.000 C 
ATOM      5  C   UNL     1       1.227   9.734  17.848  0.00  0.00    +0.000 C 
ATOM      6  C   UNL     1      -0.293   9.819  17.776  0.00  0.00    +0.000 C 
ATOM      7  C   UNL     1      -0.933  10.121  19.125  0.00  0.00    +0.000 C 
ATOM      8  C   UNL     1       0.093  10.264  20.257  0.00  0.00    +0.000 C 
ATOM      9  C   UNL     1       0.657   8.888  20.687  0.00  0.00    +0.000 C 
ATOM     10  N   UNL     1       1.719   8.256  19.895  0.00  0.00    +0.000 NA
ATOM     11  C   UNL     1       1.726   8.408  18.447  0.00  0.00    +0.000 C 
ENDROOT
BRANCH   1  15
ATOM     12  C   UNL     1       3.951  15.589  19.474  0.00  0.00    +0.000 A 
ATOM     13  C   UNL     1       2.888  15.231  18.646  0.00  0.00    +0.000 A 
ATOM     14  C   UNL     1       2.096  14.128  18.966  0.00  0.00    +0.000 A 
ATOM     15  C   UNL     1       2.270  13.441  20.173  0.00  0.00    +0.000 A 
ATOM     16  C   UNL     1       3.358  13.788  20.988  0.00  0.00    +0.000 A 
ATOM     17  C   UNL     1       4.204  14.846  20.631  0.00  0.00    +0.000 A 
BRANCH  12  19
ATOM     18  N   UNL     1       5.455  17.608  18.847  0.00  0.00    +0.000 NA
ATOM     19  C   UNL     1       4.788  16.702  19.123  0.00  0.00    +0.000 C 
ENDBRANCH  12  19
ENDBRANCH   1  15
BRANCH  10  20
ATOM     20  C   UNL     1       2.039   6.884  20.334  0.00  0.00    +0.000 C 
BRANCH  20  21
ATOM     21  C   UNL     1       2.543   5.957  19.241  0.00  0.00    +0.000 A 
ATOM     22  C   UNL     1       1.683   5.069  18.582  0.00  0.00    +0.000 A 
ATOM     23  C   UNL     1       2.184   4.142  17.666  0.00  0.00    +0.000 A 
ATOM     24  C   UNL     1       3.549   4.101  17.388  0.00  0.00    +0.000 A 
ATOM     25  C   UNL     1       4.412   5.000  18.008  0.00  0.00    +0.000 A 
ATOM     26  C   UNL     1       3.910   5.931  18.919  0.00  0.00    +0.000 A 
ENDBRANCH  20  21
ENDBRANCH  10  20
TORSDOF 4
ENDMDL
MODEL 3
REMARK VINA RESULT:      -6.3     11.355     13.903
REMARK  Name = 
REMARK  4 active torsions:
REMARK  status: ('A' for Active; 'I' for Inactive)
REMARK    1  A    between atoms: C_2  and  C_3
REMARK    2  A    between atoms: C_6  and  C_7
REMARK    3  A    between atoms: N_16  and  C_17
REMARK    4  A    between atoms: C_17  and  C_18
REMARK                            x       y       z     vdW  Elec       q    Type
REMARK                         _______ _______ _______ _____ _____    ______ ____
ROOT
ATOM      1  C   UNL     1      -4.825  12.900  23.349  0.00  0.00    +0.000 C 
ATOM      2  O   UNL     1      -5.251  12.040  24.122  0.00  0.00    +0.000 OA
ATOM      3  N   UNL     1      -5.468  13.219  22.149  0.00  0.00    +0.000 N 
ATOM      4  C   UNL     1      -5.024  14.231  21.193  0.00  0.00    +0.000 C 
ATOM      5  C   UNL     1      -6.022  14.522  20.080  0.00  0.00    +0.000 C 
ATOM      6  C   UNL     1      -7.423  14.732  20.644  0.00  0.00    +0.000 C 
ATOM      7  C   UNL     1      -7.834  13.645  21.629  0.00  0.00    +0.000 C 
ATOM      8  C   UNL     1      -6.752  12.576  21.829  0.00  0.00    +0.000 C 
ATOM      9  C   UNL     1      -6.667  11.623  20.612  0.00  0.00    +0.000 C 
ATOM     10  N   UNL     1      -5.938  12.040  19.409  0.00  0.00    +0.000 NA
ATOM     11  C   UNL     1      -5.971  13.435  18.993  0.00  0.00    +0.000 C 
ENDROOT
BRANCH   1  15
ATOM     12  C   UNL     1      -1.480  15.335  24.553  0.00  0.00    +0.000 A 
ATOM     13  C   UNL     1      -1.259  14.230  23.732  0.00  0.00    +0.000 A 
ATOM     14  C   UNL     1      -2.317  13.379  23.410  0.00  0.00    +0.000 A 
ATOM     15  C   UNL     1      -3.628  13.680  23.795  0.00  0.00    +0.000 A 
ATOM     16  C   UNL     1      -3.840  14.777  24.643  0.00  0.00    +0.000 A 
ATOM     17  C   UNL     1      -2.768  15.590  25.034  0.00  0.00    +0.000 A 
BRANCH  12  19
ATOM     18  N   UNL     1       0.503  16.871  25.216  0.00  0.00    +0.000 NA
ATOM     19  C   UNL     1      -0.383  16.188  24.913  0.00  0.00    +0.000 C 
ENDBRANCH  12  19
ENDBRANCH   1  15
BRANCH  10  20
ATOM     20  C   UNL     1      -6.080  11.098  18.282  0.00  0.00    +0.000 C 
BRANCH  20  21
ATOM     21  C   UNL     1      -4.790  10.760  17.555  0.00  0.00    +0.000 A 
ATOM     22  C   UNL     1      -3.804   9.963  18.151  0.00  0.00    +0.000 A 
ATOM     23  C   UNL     1      -2.575   9.760  17.518  0.00  0.00    +0.000 A 
ATOM     24  C   UNL     1      -2.323  10.341  16.277  0.00  0.00    +0.000 A 
ATOM     25  C   UNL     1      -3.307  11.107  15.656  0.00  0.00    +0.000 A 
ATOM     26  C   UNL     1      -4.536  11.304  16.285  0.00  0.00    +0.000 A 
ENDBRANCH  20  21
ENDBRANCH  10  20
TORSDOF 4
ENDMDL
MODEL 4
REMARK VINA RESULT:      -6.3      8.030     10.915
REMARK  Name = 
REMARK  4 active torsions:
REMARK  status: ('A' for Active; 'I' for Inactive)
REMARK    1  A    between atoms: C_2  and  C_3
REMARK    2  A    between atoms: C_6  and  C_7
REMARK    3  A    between atoms: N_16  and  C_17
REMARK    4  A    between atoms: C_17  and  C_18
REMARK                            x       y       z     vdW  Elec       q    Type
REMARK                         _______ _______ _______ _____ _____    ______ ____
ROOT
ATOM      1  C   UNL     1      -0.364  10.805  18.935  0.00  0.00    +0.000 C 
ATOM      2  O   UNL     1      -1.075  10.779  17.929  0.00  0.00    +0.000 OA
ATOM      3  N   UNL     1      -0.514  11.767  19.938  0.00  0.00    +0.000 N 
ATOM      4  C   UNL     1       0.286  11.852  21.157  0.00  0.00    +0.000 C 
ATOM      5  C   UNL     1      -0.227  12.862  22.175  0.00  0.00    +0.000 C 
ATOM      6  C   UNL     1      -1.727  12.703  22.393  0.00  0.00    +0.000 C 
ATOM      7  C   UNL     1      -2.511  12.627  21.090  0.00  0.00    +0.000 C 
ATOM      8  C   UNL     1      -1.618  12.735  19.846  0.00  0.00    +0.000 C 
ATOM      9  C   UNL     1      -1.134  14.189  19.622  0.00  0.00    +0.000 C 
ATOM     10  N   UNL     1      -0.002  14.708  20.398  0.00  0.00    +0.000 NA
ATOM     11  C   UNL     1       0.173  14.295  21.783  0.00  0.00    +0.000 C 
ENDROOT
BRANCH   1  15
ATOM     12  C   UNL     1       2.364   7.483  19.237  0.00  0.00    +0.000 A 
ATOM     13  C   UNL     1       1.656   7.890  20.367  0.00  0.00    +0.000 A 
ATOM     14  C   UNL     1       0.840   9.021  20.309  0.00  0.00    +0.000 A 
ATOM     15  C   UNL     1       0.619   9.689  19.100  0.00  0.00    +0.000 A 
ATOM     16  C   UNL     1       1.355   9.292  17.974  0.00  0.00    +0.000 A 
ATOM     17  C   UNL     1       2.236   8.205  18.047  0.00  0.00    +0.000 A 
BRANCH  12  19
ATOM     18  N   UNL     1       3.925   5.416  19.380  0.00  0.00    +0.000 NA
ATOM     19  C   UNL     1       3.231   6.342  19.310  0.00  0.00    +0.000 C 
ENDBRANCH  12  19
ENDBRANCH   1  15
BRANCH  10  20
ATOM     20  C   UNL     1       0.238  16.149  20.191  0.00  0.00    +0.000 C 
BRANCH  20  21
ATOM     21  C   UNL     1       1.046  16.499  18.954  0.00  0.00    +0.000 A 
ATOM     22  C   UNL     1       2.253  15.850  18.662  0.00  0.00    +0.000 A 
ATOM     23  C   UNL     1       3.042  16.265  17.587  0.00  0.00    +0.000 A 
ATOM     24  C   UNL     1       2.628  17.326  16.784  0.00  0.00    +0.000 A 
ATOM     25  C   UNL     1       1.413  17.958  17.040  0.00  0.00    +0.000 A 
ATOM     26  C   UNL     1       0.622  17.539  18.109  0.00  0.00    +0.000 A 
ENDBRANCH  20  21
ENDBRANCH  10  20
TORSDOF 4
ENDMDL
MODEL 5
REMARK VINA RESULT:      -6.3      6.355      9.296
REMARK  Name = 
REMARK  4 active torsions:
REMARK  status: ('A' for Active; 'I' for Inactive)
REMARK    1  A    between atoms: C_2  and  C_3
REMARK    2  A    between atoms: C_6  and  C_7
REMARK    3  A    between atoms: N_16  and  C_17
REMARK    4  A    between atoms: C_17  and  C_18
REMARK                            x       y       z     vdW  Elec       q    Type
REMARK                         _______ _______ _______ _____ _____    ______ ____
ROOT
ATOM      1  C   UNL     1       1.088  12.440  20.819  0.00  0.00    +0.000 C 
ATOM      2  O   UNL     1       0.391  12.615  21.820  0.00  0.00    +0.000 OA
ATOM      3  N   UNL     1       0.969  11.307  20.008  0.00  0.00    +0.000 N 
ATOM      4  C   UNL     1       1.757  11.040  18.807  0.00  0.00    +0.000 C 
ATOM      5  C   UNL     1       1.277   9.842  17.997  0.00  0.00    +0.000 C 
ATOM      6  C   UNL     1      -0.231   9.894  17.786  0.00  0.00    +0.000 C 
ATOM      7  C   UNL     1      -1.001  10.170  19.072  0.00  0.00    +0.000 C 
ATOM      8  C   UNL     1      -0.087  10.325  20.295  0.00  0.00    +0.000 C 
ATOM      9  C   UNL     1       0.467   8.958  20.765  0.00  0.00    +0.000 C 
ATOM     10  N   UNL     1       1.611   8.357  20.070  0.00  0.00    +0.000 NA
ATOM     11  C   UNL     1       1.748   8.522  18.630  0.00  0.00    +0.000 C 
ENDROOT
BRANCH   1  15
ATOM     12  C   UNL     1       3.757  15.555  19.501  0.00  0.00    +0.000 A 
ATOM     13  C   UNL     1       4.130  14.746  20.573  0.00  0.00    +0.000 A 
ATOM     14  C   UNL     1       3.239  13.795  21.071  0.00  0.00    +0.000 A 
ATOM     15  C   UNL     1       2.016  13.550  20.436  0.00  0.00    +0.000 A 
ATOM     16  C   UNL     1       1.635  14.385  19.376  0.00  0.00    +0.000 A 
ATOM     17  C   UNL     1       2.495  15.394  18.922  0.00  0.00    +0.000 A 
BRANCH  12  19
ATOM     18  N   UNL     1       5.388  17.375  18.632  0.00  0.00    +0.000 NA
ATOM     19  C   UNL     1       4.662  16.558  19.014  0.00  0.00    +0.000 C 
ENDBRANCH  12  19
ENDBRANCH   1  15
BRANCH  10  20
ATOM     20  C   UNL     1       1.920   6.988  20.526  0.00  0.00    +0.000 C 
BRANCH  20  21
ATOM     21  C   UNL     1       2.521   6.075  19.471  0.00  0.00    +0.000 A 
ATOM     22  C   UNL     1       3.858   6.204  19.069  0.00  0.00    +0.000 A 
ATOM     23  C   UNL     1       4.360   5.438  18.016  0.00  0.00    +0.000 A 
ATOM     24  C   UNL     1       3.536   4.525  17.359  0.00  0.00    +0.000 A 
ATOM     25  C   UNL     1       2.216   4.361  17.770  0.00  0.00    +0.000 A 
ATOM     26  C   UNL     1       1.716   5.122  18.827  0.00  0.00    +0.000 A 
ENDBRANCH  20  21
ENDBRANCH  10  20
TORSDOF 4
ENDMDL
MODEL 6
REMARK VINA RESULT:      -6.2      5.914      9.021
REMARK  Name = 
REMARK  4 active torsions:
REMARK  status: ('A' for Active; 'I' for Inactive)
REMARK    1  A    between atoms: C_2  and  C_3
REMARK    2  A    between atoms: C_6  and  C_7
REMARK    3  A    between atoms: N_16  and  C_17
REMARK    4  A    between atoms: C_17  and  C_18
REMARK                            x       y       z     vdW  Elec       q    Type
REMARK                         _______ _______ _______ _____ _____    ______ ____
ROOT
ATOM      1  C   UNL     1       2.148   8.579  18.114  0.00  0.00    +0.000 C 
ATOM      2  O   UNL     1       2.337   8.855  16.928  0.00  0.00    +0.000 OA
ATOM      3  N   UNL     1       1.361   9.372  18.955  0.00  0.00    +0.000 N 
ATOM      4  C   UNL     1       1.090   9.101  20.365  0.00  0.00    +0.000 C 
ATOM      5  C   UNL     1       0.032  10.006  20.984  0.00  0.00    +0.000 C 
ATOM      6  C   UNL     1      -1.200  10.096  20.092  0.00  0.00    +0.000 C 
ATOM      7  C   UNL     1      -0.857  10.386  18.636  0.00  0.00    +0.000 C 
ATOM      8  C   UNL     1       0.651  10.531  18.393  0.00  0.00    +0.000 C 
ATOM      9  C   UNL     1       1.182  11.885  18.923  0.00  0.00    +0.000 C 
ATOM     10  N   UNL     1       1.465  12.047  20.353  0.00  0.00    +0.000 NA
ATOM     11  C   UNL     1       0.619  11.383  21.336  0.00  0.00    +0.000 C 
ENDROOT
BRANCH   1  15
ATOM     12  C   UNL     1       3.762   4.774  19.332  0.00  0.00    +0.000 A 
ATOM     13  C   UNL     1       2.691   5.318  20.038  0.00  0.00    +0.000 A 
ATOM     14  C   UNL     1       2.217   6.590  19.716  0.00  0.00    +0.000 A 
ATOM     15  C   UNL     1       2.718   7.287  18.610  0.00  0.00    +0.000 A 
ATOM     16  C   UNL     1       3.813   6.747  17.921  0.00  0.00    +0.000 A 
ATOM     17  C   UNL     1       4.344   5.504  18.291  0.00  0.00    +0.000 A 
BRANCH  12  19
ATOM     18  N   UNL     1       4.693   2.438  19.971  0.00  0.00    +0.000 NA
ATOM     19  C   UNL     1       4.271   3.480  19.690  0.00  0.00    +0.000 C 
ENDBRANCH  12  19
ENDBRANCH   1  15
BRANCH  10  20
ATOM     20  C   UNL     1       1.809  13.432  20.729  0.00  0.00    +0.000 C 
BRANCH  20  21
ATOM     21  C   UNL     1       2.293  14.310  19.588  0.00  0.00    +0.000 A 
ATOM     22  C   UNL     1       3.536  14.095  18.978  0.00  0.00    +0.000 A 
ATOM     23  C   UNL     1       4.018  14.982  18.013  0.00  0.00    +0.000 A 
ATOM     24  C   UNL     1       3.257  16.088  17.638  0.00  0.00    +0.000 A 
ATOM     25  C   UNL     1       2.005  16.296  18.211  0.00  0.00    +0.000 A 
ATOM     26  C   UNL     1       1.521  15.406  19.170  0.00  0.00    +0.000 A 
ENDBRANCH  20  21
ENDBRANCH  10  20
TORSDOF 4
ENDMDL
MODEL 7
REMARK VINA RESULT:      -6.1      7.449     10.493
REMARK  Name = 
REMARK  4 active torsions:
REMARK  status: ('A' for Active; 'I' for Inactive)
REMARK    1  A    between atoms: C_2  and  C_3
REMARK    2  A    between atoms: C_6  and  C_7
REMARK    3  A    between atoms: N_16  and  C_17
REMARK    4  A    between atoms: C_17  and  C_18
REMARK                            x       y       z     vdW  Elec       q    Type
REMARK                         _______ _______ _______ _____ _____    ______ ____
ROOT
ATOM      1  C   UNL     1       0.961   9.794  21.059  0.00  0.00    +0.000 C 
ATOM      2  O   UNL     1       1.069   9.650  22.277  0.00  0.00    +0.000 OA
ATOM      3  N   UNL     1       0.508  10.983  20.478  0.00  0.00    +0.000 N 
ATOM      4  C   UNL     1       0.363  11.225  19.045  0.00  0.00    +0.000 C 
ATOM      5  C   UNL     1       0.056  12.671  18.681  0.00  0.00    +0.000 C 
ATOM      6  C   UNL     1       0.992  13.628  19.410  0.00  0.00    +0.000 C 
ATOM      7  C   UNL     1       1.099  13.333  20.900  0.00  0.00    +0.000 C 
ATOM      8  C   UNL     1       0.234  12.144  21.339  0.00  0.00    +0.000 C 
ATOM      9  C   UNL     1      -1.266  12.523  21.389  0.00  0.00    +0.000 C 
ATOM     10  N   UNL     1      -2.052  12.551  20.151  0.00  0.00    +0.000 NA
ATOM     11  C   UNL     1      -1.430  12.996  18.911  0.00  0.00    +0.000 C 
ENDROOT
BRANCH   1  15
ATOM     12  C   UNL     1       2.494   6.507  18.732  0.00  0.00    +0.000 A 
ATOM     13  C   UNL     1       2.352   7.759  18.135  0.00  0.00    +0.000 A 
ATOM     14  C   UNL     1       1.771   8.809  18.846  0.00  0.00    +0.000 A 
ATOM     15  C   UNL     1       1.436   8.667  20.197  0.00  0.00    +0.000 A 
ATOM     16  C   UNL     1       1.555   7.399  20.784  0.00  0.00    +0.000 A 
ATOM     17  C   UNL     1       2.065   6.320  20.050  0.00  0.00    +0.000 A 
BRANCH  12  19
ATOM     18  N   UNL     1       3.508   4.545  17.372  0.00  0.00    +0.000 NA
ATOM     19  C   UNL     1       3.058   5.418  17.986  0.00  0.00    +0.000 C 
ENDBRANCH  12  19
ENDBRANCH   1  15
BRANCH  10  20
ATOM     20  C   UNL     1      -3.416  13.083  20.335  0.00  0.00    +0.000 C 
BRANCH  20  21
ATOM     21  C   UNL     1      -4.525  12.247  19.719  0.00  0.00    +0.000 A 
ATOM     22  C   UNL     1      -4.390  11.680  18.445  0.00  0.00    +0.000 A 
ATOM     23  C   UNL     1      -5.461  11.015  17.846  0.00  0.00    +0.000 A 
ATOM     24  C   UNL     1      -6.677  10.899  18.517  0.00  0.00    +0.000 A 
ATOM     25  C   UNL     1      -6.816  11.428  19.798  0.00  0.00    +0.000 A 
ATOM     26  C   UNL     1      -5.743  12.086  20.400  0.00  0.00    +0.000 A 
ENDBRANCH  20  21
ENDBRANCH  10  20
TORSDOF 4
ENDMDL
MODEL 8
REMARK VINA RESULT:      -6.1     11.424     14.014
REMARK  Name = 
REMARK  4 active torsions:
REMARK  status: ('A' for Active; 'I' for Inactive)
REMARK    1  A    between atoms: C_2  and  C_3
REMARK    2  A    between atoms: C_6  and  C_7
REMARK    3  A    between atoms: N_16  and  C_17
REMARK    4  A    between atoms: C_17  and  C_18
REMARK                            x       y       z     vdW  Elec       q    Type
REMARK                         _______ _______ _______ _____ _____    ______ ____
ROOT
ATOM      1  C   UNL     1      -4.329  13.072  23.313  0.00  0.00    +0.000 C 
ATOM      2  O   UNL     1      -4.472  11.997  23.896  0.00  0.00    +0.000 OA
ATOM      3  N   UNL     1      -5.152  13.470  22.255  0.00  0.00    +0.000 N 
ATOM      4  C   UNL     1      -5.044  14.731  21.525  0.00  0.00    +0.000 C 
ATOM      5  C   UNL     1      -6.196  15.002  20.567  0.00  0.00    +0.000 C 
ATOM      6  C   UNL     1      -7.539  14.757  21.245  0.00  0.00    +0.000 C 
ATOM      7  C   UNL     1      -7.597  13.427  21.984  0.00  0.00    +0.000 C 
ATOM      8  C   UNL     1      -6.293  12.624  21.875  0.00  0.00    +0.000 C 
ATOM      9  C   UNL     1      -6.137  11.987  20.472  0.00  0.00    +0.000 C 
ATOM     10  N   UNL     1      -5.651  12.801  19.352  0.00  0.00    +0.000 NA
ATOM     11  C   UNL     1      -6.030  14.204  19.262  0.00  0.00    +0.000 C 
ENDROOT
BRANCH   1  15
ATOM     12  C   UNL     1      -1.193  15.571  24.892  0.00  0.00    +0.000 A 
ATOM     13  C   UNL     1      -2.465  15.629  25.461  0.00  0.00    +0.000 A 
ATOM     14  C   UNL     1      -3.513  14.897  24.903  0.00  0.00    +0.000 A 
ATOM     15  C   UNL     1      -3.287  14.003  23.850  0.00  0.00    +0.000 A 
ATOM     16  C   UNL     1      -2.014  13.969  23.264  0.00  0.00    +0.000 A 
ATOM     17  C   UNL     1      -0.977  14.762  23.772  0.00  0.00    +0.000 A 
BRANCH  12  19
ATOM     18  N   UNL     1       0.729  16.988  25.903  0.00  0.00    +0.000 NA
ATOM     19  C   UNL     1      -0.125  16.354  25.445  0.00  0.00    +0.000 C 
ENDBRANCH  12  19
ENDBRANCH   1  15
BRANCH  10  20
ATOM     20  C   UNL     1      -5.708  12.103  18.053  0.00  0.00    +0.000 C 
BRANCH  20  21
ATOM     21  C   UNL     1      -4.395  11.499  17.585  0.00  0.00    +0.000 A 
ATOM     22  C   UNL     1      -4.262  10.942  16.306  0.00  0.00    +0.000 A 
ATOM     23  C   UNL     1      -3.087  10.286  15.935  0.00  0.00    +0.000 A 
ATOM     24  C   UNL     1      -2.026  10.189  16.834  0.00  0.00    +0.000 A 
ATOM     25  C   UNL     1      -2.130  10.768  18.096  0.00  0.00    +0.000 A 
ATOM     26  C   UNL     1      -3.301  11.430  18.464  0.00  0.00    +0.000 A 
ENDBRANCH  20  21
ENDBRANCH  10  20
TORSDOF 4
ENDMDL
MODEL 9
REMARK VINA RESULT:      -6.1      6.303      9.441
REMARK  Name = 
REMARK  4 active torsions:
REMARK  status: ('A' for Active; 'I' for Inactive)
REMARK    1  A    between atoms: C_2  and  C_3
REMARK    2  A    between atoms: C_6  and  C_7
REMARK    3  A    between atoms: N_16  and  C_17
REMARK    4  A    between atoms: C_17  and  C_18
REMARK                            x       y       z     vdW  Elec       q    Type
REMARK                         _______ _______ _______ _____ _____    ______ ____
ROOT
ATOM      1  C   UNL     1       2.254   8.514  18.143  0.00  0.00    +0.000 C 
ATOM      2  O   UNL     1       2.479   8.808  16.968  0.00  0.00    +0.000 OA
ATOM      3  N   UNL     1       1.459   9.305  18.978  0.00  0.00    +0.000 N 
ATOM      4  C   UNL     1       1.145   9.013  20.375  0.00  0.00    +0.000 C 
ATOM      5  C   UNL     1       0.088   9.925  20.984  0.00  0.00    +0.000 C 
ATOM      6  C   UNL     1      -1.118  10.054  20.061  0.00  0.00    +0.000 C 
ATOM      7  C   UNL     1      -0.732  10.365  18.621  0.00  0.00    +0.000 C 
ATOM      8  C   UNL     1       0.785  10.487  18.420  0.00  0.00    +0.000 C 
ATOM      9  C   UNL     1       1.325  11.821  18.990  0.00  0.00    +0.000 C 
ATOM     10  N   UNL     1       1.574  11.951  20.430  0.00  0.00    +0.000 NA
ATOM     11  C   UNL     1       0.690  11.284  21.377  0.00  0.00    +0.000 C 
ENDROOT
BRANCH   1  15
ATOM     12  C   UNL     1       3.756   4.654  19.332  0.00  0.00    +0.000 A 
ATOM     13  C   UNL     1       2.717   5.235  20.058  0.00  0.00    +0.000 A 
ATOM     14  C   UNL     1       2.283   6.523  19.744  0.00  0.00    +0.000 A 
ATOM     15  C   UNL     1       2.787   7.202  18.629  0.00  0.00    +0.000 A 
ATOM     16  C   UNL     1       3.850   6.625  17.920  0.00  0.00    +0.000 A 
ATOM     17  C   UNL     1       4.344   5.364  18.281  0.00  0.00    +0.000 A 
BRANCH  12  19
ATOM     18  N   UNL     1       4.599   2.280  19.952  0.00  0.00    +0.000 NA
ATOM     19  C   UNL     1       4.226   3.343  19.681  0.00  0.00    +0.000 C 
ENDBRANCH  12  19
ENDBRANCH   1  15
BRANCH  10  20
ATOM     20  C   UNL     1       1.932  13.322  20.842  0.00  0.00    +0.000 C 
BRANCH  20  21
ATOM     21  C   UNL     1       1.138  14.427  20.167  0.00  0.00    +0.000 A 
ATOM     22  C   UNL     1      -0.230  14.600  20.415  0.00  0.00    +0.000 A 
ATOM     23  C   UNL     1      -0.970  15.543  19.699  0.00  0.00    +0.000 A 
ATOM     24  C   UNL     1      -0.347  16.334  18.734  0.00  0.00    +0.000 A 
ATOM     25  C   UNL     1       1.019  16.198  18.500  0.00  0.00    +0.000 A 
ATOM     26  C   UNL     1       1.758  15.260  19.221  0.00  0.00    +0.000 A 
ENDBRANCH  20  21
ENDBRANCH  10  20
TORSDOF 4
ENDMDL
