MODEL 1
REMARK VINA RESULT:      -8.4      0.000      0.000
REMARK  Name = 
REMARK  8 active torsions:
REMARK  status: ('A' for Active; 'I' for Inactive)
REMARK    1  A    between atoms: C_1  and  C_2
REMARK    2  A    between atoms: C_2  and  C_3
REMARK    3  A    between atoms: C_2  and  S_4
REMARK    4  A    between atoms: S_4  and  C_5
REMARK    5  A    between atoms: C_8  and  C_9
REMARK    6  A    between atoms: C_9  and  N_10
REMARK    7  A    between atoms: C_9  and  C_11
REMARK    8  A    between atoms: C_11  and  C_12
REMARK                            x       y       z     vdW  Elec       q    Type
REMARK                         _______ _______ _______ _____ _____    ______ ____
ROOT
ATOM      1  C   UNL     1       5.348   4.335  16.985  0.00  0.00    +0.000 C 
ENDROOT
BRANCH   1   5
ATOM      2  C   UNL     1       6.786   4.386  13.740  0.00  0.00    +0.000 A 
ATOM      3  N   UNL     1       7.613   5.252  14.351  0.00  0.00    +0.000 NA
ATOM      4  N   UNL     1       7.200   5.341  15.603  0.00  0.00    +0.000 NA
ATOM      5  C   UNL     1       6.134   4.524  15.713  0.00  0.00    +0.000 A 
ATOM      6  O   UNL     1       5.873   3.930  14.569  0.00  0.00    +0.000 OA
BRANCH   2   7
ATOM      7  S   UNL     1       6.950   3.920  12.013  0.00  0.00    +0.000 S 
BRANCH   7   9
ATOM      8  C   UNL     1       4.341   3.201  11.304  0.00  0.00    +0.000 C 
ATOM      9  C   UNL     1       5.610   2.667  11.977  0.00  0.00    +0.000 C 
ATOM     10  C   UNL     1       6.117   1.443  11.208  0.00  0.00    +0.000 C 
ENDBRANCH   7   9
ENDBRANCH   2   7
ENDBRANCH   1   5
BRANCH   1  11
ATOM     11  N   UNL     1       6.248   4.287  18.140  0.00  0.00    +0.000 NA
ATOM     12  H   UNL     1       6.722   5.211  18.274  0.00  0.00    +0.000 HD
ATOM     13  H   UNL     1       6.978   3.554  17.983  0.00  0.00    +0.000 HD
ENDBRANCH   1  11
BRANCH   1  14
ATOM     14  C   UNL     1       4.334   5.484  17.141  0.00  0.00    +0.000 C 
BRANCH  14  15
ATOM     15  C   UNL     1       3.499   5.358  18.388  0.00  0.00    +0.000 A 
ATOM     16  C   UNL     1       3.516   6.204  19.494  0.00  0.00    +0.000 A 
ATOM     17  N   UNL     1       2.640   5.768  20.429  0.00  0.00    +0.000 N 
ATOM     18  C   UNL     1       2.072   4.657  19.928  0.00  0.00    +0.000 A 
ATOM     19  C   UNL     1       1.107   3.850  20.533  0.00  0.00    +0.000 A 
ATOM     20  C   UNL     1       0.651   2.725  19.823  0.00  0.00    +0.000 A 
ATOM     21  C   UNL     1       1.163   2.434  18.540  0.00  0.00    +0.000 A 
ATOM     22  C   UNL     1       2.136   3.265  17.955  0.00  0.00    +0.000 A 
ATOM     23  C   UNL     1       2.571   4.375  18.682  0.00  0.00    +0.000 A 
ATOM     24  H   UNL     1       2.447   6.207  21.356  0.00  0.00    +0.000 HD
ENDBRANCH  14  15
ENDBRANCH   1  14
TORSDOF 6
ENDMDL
MODEL 2
REMARK VINA RESULT:      -8.3      1.332      1.919
REMARK  Name = 
REMARK  8 active torsions:
REMARK  status: ('A' for Active; 'I' for Inactive)
REMARK    1  A    between atoms: C_1  and  C_2
REMARK    2  A    between atoms: C_2  and  C_3
REMARK    3  A    between atoms: C_2  and  S_4
REMARK    4  A    between atoms: S_4  and  C_5
REMARK    5  A    between atoms: C_8  and  C_9
REMARK    6  A    between atoms: C_9  and  N_10
REMARK    7  A    between atoms: C_9  and  C_11
REMARK    8  A    between atoms: C_11  and  C_12
REMARK                            x       y       z     vdW  Elec       q    Type
REMARK                         _______ _______ _______ _____ _____    ______ ____
ROOT
ATOM      1  C   UNL     1       6.220   3.988  17.096  0.00  0.00    +0.000 C 
ENDROOT
BRANCH   1   5
ATOM      2  C   UNL     1       6.963   4.438  13.654  0.00  0.00    +0.000 A 
ATOM      3  N   UNL     1       7.652   5.477  14.156  0.00  0.00    +0.000 NA
ATOM      4  N   UNL     1       7.474   5.444  15.465  0.00  0.00    +0.000 NA
ATOM      5  C   UNL     1       6.682   4.384  15.716  0.00  0.00    +0.000 A 
ATOM      6  O   UNL     1       6.363   3.756  14.605  0.00  0.00    +0.000 OA
BRANCH   2   7
ATOM      7  S   UNL     1       6.908   4.048  11.902  0.00  0.00    +0.000 S 
BRANCH   7   9
ATOM      8  C   UNL     1       4.283   3.247  11.357  0.00  0.00    +0.000 C 
ATOM      9  C   UNL     1       5.596   2.767  11.984  0.00  0.00    +0.000 C 
ATOM     10  C   UNL     1       6.092   1.524  11.238  0.00  0.00    +0.000 C 
ENDBRANCH   7   9
ENDBRANCH   2   7
ENDBRANCH   1   5
BRANCH   1  11
ATOM     11  N   UNL     1       7.179   4.443  18.106  0.00  0.00    +0.000 NA
ATOM     12  H   UNL     1       7.713   5.272  17.755  0.00  0.00    +0.000 HD
ATOM     13  H   UNL     1       7.854   3.672  18.319  0.00  0.00    +0.000 HD
ENDBRANCH   1  11
BRANCH   1  14
ATOM     14  C   UNL     1       4.828   4.589  17.367  0.00  0.00    +0.000 C 
BRANCH  14  15
ATOM     15  C   UNL     1       3.870   3.592  17.964  0.00  0.00    +0.000 A 
ATOM     16  C   UNL     1       3.588   2.315  17.485  0.00  0.00    +0.000 A 
ATOM     17  N   UNL     1       2.666   1.714  18.275  0.00  0.00    +0.000 N 
ATOM     18  C   UNL     1       2.363   2.596  19.243  0.00  0.00    +0.000 A 
ATOM     19  C   UNL     1       1.455   2.428  20.290  0.00  0.00    +0.000 A 
ATOM     20  C   UNL     1       1.291   3.491  21.195  0.00  0.00    +0.000 A 
ATOM     21  C   UNL     1       2.028   4.684  21.038  0.00  0.00    +0.000 A 
ATOM     22  C   UNL     1       2.937   4.826  19.973  0.00  0.00    +0.000 A 
ATOM     23  C   UNL     1       3.080   3.755  19.087  0.00  0.00    +0.000 A 
ATOM     24  H   UNL     1       2.268   0.757  18.151  0.00  0.00    +0.000 HD
ENDBRANCH  14  15
ENDBRANCH   1  14
TORSDOF 6
ENDMDL
MODEL 3
REMARK VINA RESULT:      -7.8      1.517      1.810
REMARK  Name = 
REMARK  8 active torsions:
REMARK  status: ('A' for Active; 'I' for Inactive)
REMARK    1  A    between atoms: C_1  and  C_2
REMARK    2  A    between atoms: C_2  and  C_3
REMARK    3  A    between atoms: C_2  and  S_4
REMARK    4  A    between atoms: S_4  and  C_5
REMARK    5  A    between atoms: C_8  and  C_9
REMARK    6  A    between atoms: C_9  and  N_10
REMARK    7  A    between atoms: C_9  and  C_11
REMARK    8  A    between atoms: C_11  and  C_12
REMARK                            x       y       z     vdW  Elec       q    Type
REMARK                         _______ _______ _______ _____ _____    ______ ____
ROOT
ATOM      1  C   UNL     1       5.110   5.541  16.761  0.00  0.00    +0.000 C 
ENDROOT
BRANCH   1   5
ATOM      2  C   UNL     1       6.816   4.740  13.752  0.00  0.00    +0.000 A 
ATOM      3  N   UNL     1       7.805   5.392  14.389  0.00  0.00    +0.000 NA
ATOM      4  N   UNL     1       7.315   5.761  15.559  0.00  0.00    +0.000 NA
ATOM      5  C   UNL     1       6.042   5.320  15.596  0.00  0.00    +0.000 A 
ATOM      6  O   UNL     1       5.727   4.688  14.486  0.00  0.00    +0.000 OA
BRANCH   2   7
ATOM      7  S   UNL     1       7.002   4.026  12.114  0.00  0.00    +0.000 S 
BRANCH   7   9
ATOM      8  C   UNL     1       4.323   3.481  11.519  0.00  0.00    +0.000 C 
ATOM      9  C   UNL     1       5.566   2.885  12.188  0.00  0.00    +0.000 C 
ATOM     10  C   UNL     1       5.951   1.583  11.479  0.00  0.00    +0.000 C 
ENDBRANCH   7   9
ENDBRANCH   2   7
ENDBRANCH   1   5
BRANCH   1  11
ATOM     11  N   UNL     1       4.438   6.837  16.638  0.00  0.00    +0.000 NA
ATOM     12  H   UNL     1       3.729   6.810  15.868  0.00  0.00    +0.000 HD
ATOM     13  H   UNL     1       5.145   7.578  16.421  0.00  0.00    +0.000 HD
ENDBRANCH   1  11
BRANCH   1  14
ATOM     14  C   UNL     1       4.075   4.402  16.817  0.00  0.00    +0.000 C 
BRANCH  14  15
ATOM     15  C   UNL     1       4.056   3.699  18.149  0.00  0.00    +0.000 A 
ATOM     16  C   UNL     1       5.091   2.960  18.718  0.00  0.00    +0.000 A 
ATOM     17  N   UNL     1       4.704   2.466  19.918  0.00  0.00    +0.000 N 
ATOM     18  C   UNL     1       3.441   2.881  20.111  0.00  0.00    +0.000 A 
ATOM     19  C   UNL     1       2.618   2.616  21.207  0.00  0.00    +0.000 A 
ATOM     20  C   UNL     1       1.319   3.152  21.200  0.00  0.00    +0.000 A 
ATOM     21  C   UNL     1       0.874   3.933  20.111  0.00  0.00    +0.000 A 
ATOM     22  C   UNL     1       1.724   4.183  19.019  0.00  0.00    +0.000 A 
ATOM     23  C   UNL     1       3.010   3.638  19.052  0.00  0.00    +0.000 A 
ATOM     24  H   UNL     1       5.276   1.875  20.562  0.00  0.00    +0.000 HD
ENDBRANCH  14  15
ENDBRANCH   1  14
TORSDOF 6
ENDMDL
MODEL 4
REMARK VINA RESULT:      -7.6      0.956      1.006
REMARK  Name = 
REMARK  8 active torsions:
REMARK  status: ('A' for Active; 'I' for Inactive)
REMARK    1  A    between atoms: C_1  and  C_2
REMARK    2  A    between atoms: C_2  and  C_3
REMARK    3  A    between atoms: C_2  and  S_4
REMARK    4  A    between atoms: S_4  and  C_5
REMARK    5  A    between atoms: C_8  and  C_9
REMARK    6  A    between atoms: C_9  and  N_10
REMARK    7  A    between atoms: C_9  and  C_11
REMARK    8  A    between atoms: C_11  and  C_12
REMARK                            x       y       z     vdW  Elec       q    Type
REMARK                         _______ _______ _______ _____ _____    ______ ____
ROOT
ATOM      1  C   UNL     1       5.451   5.654  16.648  0.00  0.00    +0.000 C 
ENDROOT
BRANCH   1   5
ATOM      2  C   UNL     1       6.928   4.730  13.555  0.00  0.00    +0.000 A 
ATOM      3  N   UNL     1       8.000   5.289  14.142  0.00  0.00    +0.000 NA
ATOM      4  N   UNL     1       7.603   5.691  15.337  0.00  0.00    +0.000 NA
ATOM      5  C   UNL     1       6.300   5.362  15.437  0.00  0.00    +0.000 A 
ATOM      6  O   UNL     1       5.876   4.767  14.343  0.00  0.00    +0.000 OA
BRANCH   2   7
ATOM      7  S   UNL     1       6.969   4.014  11.908  0.00  0.00    +0.000 S 
BRANCH   7   9
ATOM      8  C   UNL     1       4.267   3.423  11.488  0.00  0.00    +0.000 C 
ATOM      9  C   UNL     1       5.551   2.867  12.112  0.00  0.00    +0.000 C 
ATOM     10  C   UNL     1       5.909   1.537  11.441  0.00  0.00    +0.000 C 
ENDBRANCH   7   9
ENDBRANCH   2   7
ENDBRANCH   1   5
BRANCH   1  11
ATOM     11  N   UNL     1       4.462   6.691  16.339  0.00  0.00    +0.000 NA
ATOM     12  H   UNL     1       3.870   6.894  17.178  0.00  0.00    +0.000 HD
ATOM     13  H   UNL     1       3.844   6.364  15.561  0.00  0.00    +0.000 HD
ENDBRANCH   1  11
BRANCH   1  14
ATOM     14  C   UNL     1       4.749   4.363  17.110  0.00  0.00    +0.000 C 
BRANCH  14  15
ATOM     15  C   UNL     1       3.925   4.563  18.355  0.00  0.00    +0.000 A 
ATOM     16  C   UNL     1       4.185   5.452  19.395  0.00  0.00    +0.000 A 
ATOM     17  N   UNL     1       3.232   5.343  20.351  0.00  0.00    +0.000 N 
ATOM     18  C   UNL     1       2.376   4.397  19.928  0.00  0.00    +0.000 A 
ATOM     19  C   UNL     1       1.234   3.932  20.581  0.00  0.00    +0.000 A 
ATOM     20  C   UNL     1       0.479   2.926  19.952  0.00  0.00    +0.000 A 
ATOM     21  C   UNL     1       0.878   2.412  18.699  0.00  0.00    +0.000 A 
ATOM     22  C   UNL     1       2.035   2.898  18.064  0.00  0.00    +0.000 A 
ATOM     23  C   UNL     1       2.766   3.898  18.711  0.00  0.00    +0.000 A 
ATOM     24  H   UNL     1       3.178   5.885  21.241  0.00  0.00    +0.000 HD
ENDBRANCH  14  15
ENDBRANCH   1  14
TORSDOF 6
ENDMDL
MODEL 5
REMARK VINA RESULT:      -7.5      1.193      1.339
REMARK  Name = 
REMARK  8 active torsions:
REMARK  status: ('A' for Active; 'I' for Inactive)
REMARK    1  A    between atoms: C_1  and  C_2
REMARK    2  A    between atoms: C_2  and  C_3
REMARK    3  A    between atoms: C_2  and  S_4
REMARK    4  A    between atoms: S_4  and  C_5
REMARK    5  A    between atoms: C_8  and  C_9
REMARK    6  A    between atoms: C_9  and  N_10
REMARK    7  A    between atoms: C_9  and  C_11
REMARK    8  A    between atoms: C_11  and  C_12
REMARK                            x       y       z     vdW  Elec       q    Type
REMARK                         _______ _______ _______ _____ _____    ______ ____
ROOT
ATOM      1  C   UNL     1       5.446   6.247  17.171  0.00  0.00    +0.000 C 
ENDROOT
BRANCH   1   5
ATOM      2  C   UNL     1       6.255   4.384  14.259  0.00  0.00    +0.000 A 
ATOM      3  N   UNL     1       5.978   3.365  15.092  0.00  0.00    +0.000 NA
ATOM      4  N   UNL     1       5.648   3.910  16.249  0.00  0.00    +0.000 NA
ATOM      5  C   UNL     1       5.733   5.244  16.082  0.00  0.00    +0.000 A 
ATOM      6  O   UNL     1       6.104   5.546  14.857  0.00  0.00    +0.000 OA
BRANCH   2   7
ATOM      7  S   UNL     1       6.743   4.152  12.547  0.00  0.00    +0.000 S 
BRANCH   7   9
ATOM      8  C   UNL     1       4.327   3.321  11.407  0.00  0.00    +0.000 C 
ATOM      9  C   UNL     1       5.566   2.803  12.144  0.00  0.00    +0.000 C 
ATOM     10  C   UNL     1       6.291   1.780  11.264  0.00  0.00    +0.000 C 
ENDBRANCH   7   9
ENDBRANCH   2   7
ENDBRANCH   1   5
BRANCH   1  11
ATOM     11  N   UNL     1       6.345   7.399  17.054  0.00  0.00    +0.000 NA
ATOM     12  H   UNL     1       5.979   8.077  16.346  0.00  0.00    +0.000 HD
ATOM     13  H   UNL     1       7.292   7.073  16.751  0.00  0.00    +0.000 HD
ENDBRANCH   1  11
BRANCH   1  14
ATOM     14  C   UNL     1       3.977   6.701  17.083  0.00  0.00    +0.000 C 
BRANCH  14  15
ATOM     15  C   UNL     1       3.166   6.283  18.281  0.00  0.00    +0.000 A 
ATOM     16  C   UNL     1       2.933   7.029  19.433  0.00  0.00    +0.000 A 
ATOM     17  N   UNL     1       2.170   6.322  20.300  0.00  0.00    +0.000 N 
ATOM     18  C   UNL     1       1.920   5.141  19.710  0.00  0.00    +0.000 A 
ATOM     19  C   UNL     1       1.176   4.077  20.222  0.00  0.00    +0.000 A 
ATOM     20  C   UNL     1       1.045   2.924  19.429  0.00  0.00    +0.000 A 
ATOM     21  C   UNL     1       1.651   2.859  18.155  0.00  0.00    +0.000 A 
ATOM     22  C   UNL     1       2.396   3.947  17.664  0.00  0.00    +0.000 A 
ATOM     23  C   UNL     1       2.512   5.080  18.474  0.00  0.00    +0.000 A 
ATOM     24  H   UNL     1       1.845   6.634  21.242  0.00  0.00    +0.000 HD
ENDBRANCH  14  15
ENDBRANCH   1  14
TORSDOF 6
ENDMDL
MODEL 6
REMARK VINA RESULT:      -7.3      1.337      1.956
REMARK  Name = 
REMARK  8 active torsions:
REMARK  status: ('A' for Active; 'I' for Inactive)
REMARK    1  A    between atoms: C_1  and  C_2
REMARK    2  A    between atoms: C_2  and  C_3
REMARK    3  A    between atoms: C_2  and  S_4
REMARK    4  A    between atoms: S_4  and  C_5
REMARK    5  A    between atoms: C_8  and  C_9
REMARK    6  A    between atoms: C_9  and  N_10
REMARK    7  A    between atoms: C_9  and  C_11
REMARK    8  A    between atoms: C_11  and  C_12
REMARK                            x       y       z     vdW  Elec       q    Type
REMARK                         _______ _______ _______ _____ _____    ______ ____
ROOT
ATOM      1  C   UNL     1       5.701   3.657  17.199  0.00  0.00    +0.000 C 
ENDROOT
BRANCH   1   5
ATOM      2  C   UNL     1       6.821   4.337  13.899  0.00  0.00    +0.000 A 
ATOM      3  N   UNL     1       7.580   5.223  14.567  0.00  0.00    +0.000 NA
ATOM      4  N   UNL     1       7.274   5.087  15.845  0.00  0.00    +0.000 NA
ATOM      5  C   UNL     1       6.338   4.120  15.913  0.00  0.00    +0.000 A 
ATOM      6  O   UNL     1       6.054   3.651  14.718  0.00  0.00    +0.000 OA
BRANCH   2   7
ATOM      7  S   UNL     1       6.887   4.129  12.117  0.00  0.00    +0.000 S 
BRANCH   7   9
ATOM      8  C   UNL     1       4.376   3.180  11.328  0.00  0.00    +0.000 C 
ATOM      9  C   UNL     1       5.687   2.747  11.993  0.00  0.00    +0.000 C 
ATOM     10  C   UNL     1       6.329   1.625  11.170  0.00  0.00    +0.000 C 
ENDBRANCH   7   9
ENDBRANCH   2   7
ENDBRANCH   1   5
BRANCH   1  11
ATOM     11  N   UNL     1       6.266   4.383  18.339  0.00  0.00    +0.000 NA
ATOM     12  H   UNL     1       7.010   3.813  18.804  0.00  0.00    +0.000 HD
ATOM     13  H   UNL     1       5.510   4.583  19.035  0.00  0.00    +0.000 HD
ENDBRANCH   1  11
BRANCH   1  14
ATOM     14  C   UNL     1       4.177   3.870  17.127  0.00  0.00    +0.000 C 
BRANCH  14  15
ATOM     15  C   UNL     1       3.756   5.229  17.620  0.00  0.00    +0.000 A 
ATOM     16  C   UNL     1       4.094   6.461  17.066  0.00  0.00    +0.000 A 
ATOM     17  N   UNL     1       3.542   7.464  17.788  0.00  0.00    +0.000 N 
ATOM     18  C   UNL     1       2.864   6.881  18.791  0.00  0.00    +0.000 A 
ATOM     19  C   UNL     1       2.134   7.511  19.801  0.00  0.00    +0.000 A 
ATOM     20  C   UNL     1       1.499   6.700  20.758  0.00  0.00    +0.000 A 
ATOM     21  C   UNL     1       1.606   5.294  20.688  0.00  0.00    +0.000 A 
ATOM     22  C   UNL     1       2.349   4.686  19.659  0.00  0.00    +0.000 A 
ATOM     23  C   UNL     1       2.970   5.516  18.722  0.00  0.00    +0.000 A 
ATOM     24  H   UNL     1       3.632   8.488  17.603  0.00  0.00    +0.000 HD
ENDBRANCH  14  15
ENDBRANCH   1  14
TORSDOF 6
ENDMDL
MODEL 7
REMARK VINA RESULT:      -7.3      1.272      1.454
REMARK  Name = 
REMARK  8 active torsions:
REMARK  status: ('A' for Active; 'I' for Inactive)
REMARK    1  A    between atoms: C_1  and  C_2
REMARK    2  A    between atoms: C_2  and  C_3
REMARK    3  A    between atoms: C_2  and  S_4
REMARK    4  A    between atoms: S_4  and  C_5
REMARK    5  A    between atoms: C_8  and  C_9
REMARK    6  A    between atoms: C_9  and  N_10
REMARK    7  A    between atoms: C_9  and  C_11
REMARK    8  A    between atoms: C_11  and  C_12
REMARK                            x       y       z     vdW  Elec       q    Type
REMARK                         _______ _______ _______ _____ _____    ______ ____
ROOT
ATOM      1  C   UNL     1       6.681   4.312  17.371  0.00  0.00    +0.000 C 
ENDROOT
BRANCH   1   5
ATOM      2  C   UNL     1       6.670   4.528  13.827  0.00  0.00    +0.000 A 
ATOM      3  N   UNL     1       6.237   5.768  14.116  0.00  0.00    +0.000 NA
ATOM      4  N   UNL     1       6.189   5.848  15.434  0.00  0.00    +0.000 NA
ATOM      5  C   UNL     1       6.596   4.653  15.904  0.00  0.00    +0.000 A 
ATOM      6  O   UNL     1       6.897   3.833  14.920  0.00  0.00    +0.000 OA
BRANCH   2   7
ATOM      7  S   UNL     1       6.916   3.937  12.150  0.00  0.00    +0.000 S 
BRANCH   7   9
ATOM      8  C   UNL     1       4.274   3.350  11.440  0.00  0.00    +0.000 C 
ATOM      9  C   UNL     1       5.516   2.750  12.107  0.00  0.00    +0.000 C 
ATOM     10  C   UNL     1       5.963   1.509  11.330  0.00  0.00    +0.000 C 
ENDBRANCH   7   9
ENDBRANCH   2   7
ENDBRANCH   1   5
BRANCH   1  11
ATOM     11  N   UNL     1       8.079   4.155  17.779  0.00  0.00    +0.000 NA
ATOM     12  H   UNL     1       8.179   3.350  18.440  0.00  0.00    +0.000 HD
ATOM     13  H   UNL     1       8.403   5.027  18.258  0.00  0.00    +0.000 HD
ENDBRANCH   1  11
BRANCH   1  14
ATOM     14  C   UNL     1       6.000   5.418  18.199  0.00  0.00    +0.000 C 
BRANCH  14  15
ATOM     15  C   UNL     1       4.497   5.342  18.148  0.00  0.00    +0.000 A 
ATOM     16  C   UNL     1       3.612   6.404  17.985  0.00  0.00    +0.000 A 
ATOM     17  N   UNL     1       2.335   5.953  18.002  0.00  0.00    +0.000 N 
ATOM     18  C   UNL     1       2.404   4.622  18.175  0.00  0.00    +0.000 A 
ATOM     19  C   UNL     1       1.342   3.721  18.262  0.00  0.00    +0.000 A 
ATOM     20  C   UNL     1       1.646   2.361  18.448  0.00  0.00    +0.000 A 
ATOM     21  C   UNL     1       2.988   1.936  18.543  0.00  0.00    +0.000 A 
ATOM     22  C   UNL     1       4.040   2.866  18.452  0.00  0.00    +0.000 A 
ATOM     23  C   UNL     1       3.709   4.211  18.268  0.00  0.00    +0.000 A 
ATOM     24  H   UNL     1       1.470   6.529  17.904  0.00  0.00    +0.000 HD
ENDBRANCH  14  15
ENDBRANCH   1  14
TORSDOF 6
ENDMDL
MODEL 8
REMARK VINA RESULT:      -7.2      1.400      1.479
REMARK  Name = 
REMARK  8 active torsions:
REMARK  status: ('A' for Active; 'I' for Inactive)
REMARK    1  A    between atoms: C_1  and  C_2
REMARK    2  A    between atoms: C_2  and  C_3
REMARK    3  A    between atoms: C_2  and  S_4
REMARK    4  A    between atoms: S_4  and  C_5
REMARK    5  A    between atoms: C_8  and  C_9
REMARK    6  A    between atoms: C_9  and  N_10
REMARK    7  A    between atoms: C_9  and  C_11
REMARK    8  A    between atoms: C_11  and  C_12
REMARK                            x       y       z     vdW  Elec       q    Type
REMARK                         _______ _______ _______ _____ _____    ______ ____
ROOT
ATOM      1  C   UNL     1       6.343   4.805  16.742  0.00  0.00    +0.000 C 
ENDROOT
BRANCH   1   5
ATOM      2  C   UNL     1       7.098   4.504  13.286  0.00  0.00    +0.000 A 
ATOM      3  N   UNL     1       7.905   5.537  13.589  0.00  0.00    +0.000 NA
ATOM      4  N   UNL     1       7.737   5.774  14.878  0.00  0.00    +0.000 NA
ATOM      5  C   UNL     1       6.833   4.876  15.317  0.00  0.00    +0.000 A 
ATOM      6  O   UNL     1       6.435   4.088  14.342  0.00  0.00    +0.000 OA
BRANCH   2   7
ATOM      7  S   UNL     1       6.983   3.796  11.640  0.00  0.00    +0.000 S 
BRANCH   7   9
ATOM      8  C   UNL     1       4.256   3.223  11.381  0.00  0.00    +0.000 C 
ATOM      9  C   UNL     1       5.565   2.676  11.961  0.00  0.00    +0.000 C 
ATOM     10  C   UNL     1       5.874   1.316  11.327  0.00  0.00    +0.000 C 
ENDBRANCH   7   9
ENDBRANCH   2   7
ENDBRANCH   1   5
BRANCH   1  11
ATOM     11  N   UNL     1       6.575   6.080  17.426  0.00  0.00    +0.000 NA
ATOM     12  H   UNL     1       5.792   6.287  18.089  0.00  0.00    +0.000 HD
ATOM     13  H   UNL     1       6.632   6.850  16.719  0.00  0.00    +0.000 HD
ENDBRANCH   1  11
BRANCH   1  14
ATOM     14  C   UNL     1       4.844   4.453  16.755  0.00  0.00    +0.000 C 
BRANCH  14  15
ATOM     15  C   UNL     1       4.407   3.818  18.049  0.00  0.00    +0.000 A 
ATOM     16  C   UNL     1       5.231   3.369  19.079  0.00  0.00    +0.000 A 
ATOM     17  N   UNL     1       4.483   2.844  20.078  0.00  0.00    +0.000 N 
ATOM     18  C   UNL     1       3.201   2.954  19.691  0.00  0.00    +0.000 A 
ATOM     19  C   UNL     1       2.065   2.544  20.391  0.00  0.00    +0.000 A 
ATOM     20  C   UNL     1       0.811   2.756  19.792  0.00  0.00    +0.000 A 
ATOM     21  C   UNL     1       0.719   3.366  18.522  0.00  0.00    +0.000 A 
ATOM     22  C   UNL     1       1.881   3.769  17.839  0.00  0.00    +0.000 A 
ATOM     23  C   UNL     1       3.114   3.545  18.457  0.00  0.00    +0.000 A 
ATOM     24  H   UNL     1       4.836   2.432  20.970  0.00  0.00    +0.000 HD
ENDBRANCH  14  15
ENDBRANCH   1  14
TORSDOF 6
ENDMDL
MODEL 9
REMARK VINA RESULT:      -7.2      4.623      5.899
REMARK  Name = 
REMARK  8 active torsions:
REMARK  status: ('A' for Active; 'I' for Inactive)
REMARK    1  A    between atoms: C_1  and  C_2
REMARK    2  A    between atoms: C_2  and  C_3
REMARK    3  A    between atoms: C_2  and  S_4
REMARK    4  A    between atoms: S_4  and  C_5
REMARK    5  A    between atoms: C_8  and  C_9
REMARK    6  A    between atoms: C_9  and  N_10
REMARK    7  A    between atoms: C_9  and  C_11
REMARK    8  A    between atoms: C_11  and  C_12
REMARK                            x       y       z     vdW  Elec       q    Type
REMARK                         _______ _______ _______ _____ _____    ______ ____
ROOT
ATOM      1  C   UNL     1       7.340   5.539  17.988  0.00  0.00    +0.000 C 
ENDROOT
BRANCH   1   5
ATOM      2  C   UNL     1       8.506   8.853  18.496  0.00  0.00    +0.000 A 
ATOM      3  N   UNL     1       7.910   9.020  17.302  0.00  0.00    +0.000 NA
ATOM      4  N   UNL     1       7.410   7.843  16.968  0.00  0.00    +0.000 NA
ATOM      5  C   UNL     1       7.717   6.999  17.972  0.00  0.00    +0.000 A 
ATOM      6  O   UNL     1       8.392   7.614  18.919  0.00  0.00    +0.000 OA
BRANCH   2   7
ATOM      7  S   UNL     1       9.327  10.183  19.380  0.00  0.00    +0.000 S 
BRANCH   7   9
ATOM      8  C   UNL     1       8.792  12.465  17.852  0.00  0.00    +0.000 C 
ATOM      9  C   UNL     1       9.706  11.238  17.927  0.00  0.00    +0.000 C 
ATOM     10  C   UNL     1      11.165  11.695  18.033  0.00  0.00    +0.000 C 
ENDBRANCH   7   9
ENDBRANCH   2   7
ENDBRANCH   1   5
BRANCH   1  11
ATOM     11  N   UNL     1       6.783   5.169  19.292  0.00  0.00    +0.000 NA
ATOM     12  H   UNL     1       6.189   4.312  19.207  0.00  0.00    +0.000 HD
ATOM     13  H   UNL     1       6.193   5.954  19.654  0.00  0.00    +0.000 HD
ENDBRANCH   1  11
BRANCH   1  14
ATOM     14  C   UNL     1       6.320   5.257  16.868  0.00  0.00    +0.000 C 
BRANCH  14  15
ATOM     15  C   UNL     1       4.894   5.417  17.327  0.00  0.00    +0.000 A 
ATOM     16  C   UNL     1       4.235   6.612  17.602  0.00  0.00    +0.000 A 
ATOM     17  N   UNL     1       2.966   6.363  18.002  0.00  0.00    +0.000 N 
ATOM     18  C   UNL     1       2.817   5.027  17.984  0.00  0.00    +0.000 A 
ATOM     19  C   UNL     1       1.678   4.295  18.323  0.00  0.00    +0.000 A 
ATOM     20  C   UNL     1       1.746   2.893  18.233  0.00  0.00    +0.000 A 
ATOM     21  C   UNL     1       2.936   2.261  17.812  0.00  0.00    +0.000 A 
ATOM     22  C   UNL     1       4.069   3.024  17.477  0.00  0.00    +0.000 A 
ATOM     23  C   UNL     1       3.975   4.415  17.575  0.00  0.00    +0.000 A 
ATOM     24  H   UNL     1       2.247   7.070  18.274  0.00  0.00    +0.000 HD
ENDBRANCH  14  15
ENDBRANCH   1  14
TORSDOF 6
ENDMDL
