MODEL 1
REMARK VINA RESULT:      -8.3      0.000      0.000
REMARK  Name = 
REMARK  2 active torsions:
REMARK  status: ('A' for Active; 'I' for Inactive)
REMARK    1  A    between atoms: C_1  and  N_2
REMARK    2  A    between atoms: N_2  and  C_3
REMARK                            x       y       z     vdW  Elec       q    Type
REMARK                         _______ _______ _______ _____ _____    ______ ____
ROOT
ATOM      1  C   UNL     1       4.253   4.690  17.981  0.00  0.00    +0.000 A 
ATOM      2  N   UNL     1       3.941   5.895  17.491  0.00  0.00    +0.000 NA
ATOM      3  C   UNL     1       3.125   6.647  18.236  0.00  0.00    +0.000 A 
ATOM      4  S   UNL     1       2.708   8.187  17.683  0.00  0.00    +0.000 S 
ATOM      5  C   UNL     1       1.843   8.551  19.116  0.00  0.00    +0.000 A 
ATOM      6  C   UNL     1       1.163   9.715  19.495  0.00  0.00    +0.000 A 
ATOM      7  N   UNL     1       1.047  10.847  18.706  0.00  0.00    +0.000 N 
ATOM      8  C   UNL     1      -0.119  11.722  18.876  0.00  0.00    +0.000 C 
ATOM      9  C   UNL     1       0.278  13.089  19.467  0.00  0.00    +0.000 C 
ATOM     10  N   UNL     1       1.349  13.756  18.701  0.00  0.00    +0.000 NA
ATOM     11  C   UNL     1       2.518  12.864  18.630  0.00  0.00    +0.000 C 
ATOM     12  C   UNL     1       2.207  11.465  18.048  0.00  0.00    +0.000 C 
ATOM     13  N   UNL     1       0.511   9.632  20.687  0.00  0.00    +0.000 NA
ATOM     14  N   UNL     1       0.544   8.554  21.453  0.00  0.00    +0.000 NA
ATOM     15  N   UNL     1       1.152   7.498  21.135  0.00  0.00    +0.000 NA
ATOM     16  C   UNL     1       1.813   7.448  19.957  0.00  0.00    +0.000 A 
ATOM     17  C   UNL     1       2.546   6.311  19.445  0.00  0.00    +0.000 A 
ATOM     18  C   UNL     1       2.783   4.985  19.916  0.00  0.00    +0.000 A 
ATOM     19  C   UNL     1       3.682   4.180  19.163  0.00  0.00    +0.000 A 
ATOM     20  C   UNL     1       3.962   2.748  19.579  0.00  0.00    +0.000 C 
ATOM     21  C   UNL     1       3.596   2.440  21.027  0.00  0.00    +0.000 C 
ATOM     22  C   UNL     1       2.197   2.948  21.331  0.00  0.00    +0.000 C 
ATOM     23  C   UNL     1       2.156   4.468  21.193  0.00  0.00    +0.000 C 
ATOM     24  H   UNL     1       1.613  14.617  19.178  0.00  0.00    +0.000 HD
ENDROOT
BRANCH   1  26
ATOM     25  C   UNL     1       5.377   4.339  15.883  0.00  0.00    +0.000 C 
ATOM     26  N   UNL     1       5.185   3.912  17.262  0.00  0.00    +0.000 N 
ATOM     27  H   UNL     1       6.066   3.925  17.768  0.00  0.00    +0.000 HD
ENDBRANCH   1  26
TORSDOF 1
ENDMDL
MODEL 2
REMARK VINA RESULT:      -7.5      1.995      3.506
REMARK  Name = 
REMARK  2 active torsions:
REMARK  status: ('A' for Active; 'I' for Inactive)
REMARK    1  A    between atoms: C_1  and  N_2
REMARK    2  A    between atoms: N_2  and  C_3
REMARK                            x       y       z     vdW  Elec       q    Type
REMARK                         _______ _______ _______ _____ _____    ______ ____
ROOT
ATOM      1  C   UNL     1       2.581   4.242  20.295  0.00  0.00    +0.000 A 
ATOM      2  N   UNL     1       2.034   5.277  20.942  0.00  0.00    +0.000 NA
ATOM      3  C   UNL     1       2.040   6.450  20.300  0.00  0.00    +0.000 A 
ATOM      4  S   UNL     1       1.347   7.792  21.054  0.00  0.00    +0.000 S 
ATOM      5  C   UNL     1       1.585   8.784  19.677  0.00  0.00    +0.000 A 
ATOM      6  C   UNL     1       1.248  10.124  19.455  0.00  0.00    +0.000 A 
ATOM      7  N   UNL     1       0.638  10.944  20.389  0.00  0.00    +0.000 N 
ATOM      8  C   UNL     1       0.871  12.392  20.331  0.00  0.00    +0.000 C 
ATOM      9  C   UNL     1      -0.407  13.157  19.933  0.00  0.00    +0.000 C 
ATOM     10  N   UNL     1      -1.563  12.828  20.790  0.00  0.00    +0.000 NA
ATOM     11  C   UNL     1      -1.796  11.375  20.747  0.00  0.00    +0.000 C 
ATOM     12  C   UNL     1      -0.560  10.528  21.132  0.00  0.00    +0.000 C 
ATOM     13  N   UNL     1       1.661  10.625  18.258  0.00  0.00    +0.000 NA
ATOM     14  N   UNL     1       2.296   9.899  17.354  0.00  0.00    +0.000 NA
ATOM     15  N   UNL     1       2.606   8.692  17.529  0.00  0.00    +0.000 NA
ATOM     16  C   UNL     1       2.276   8.089  18.695  0.00  0.00    +0.000 A 
ATOM     17  C   UNL     1       2.570   6.720  19.053  0.00  0.00    +0.000 A 
ATOM     18  C   UNL     1       3.255   5.647  18.408  0.00  0.00    +0.000 A 
ATOM     19  C   UNL     1       3.226   4.378  19.051  0.00  0.00    +0.000 A 
ATOM     20  C   UNL     1       3.958   3.195  18.447  0.00  0.00    +0.000 C 
ATOM     21  C   UNL     1       4.292   3.361  16.968  0.00  0.00    +0.000 C 
ATOM     22  C   UNL     1       4.930   4.718  16.726  0.00  0.00    +0.000 C 
ATOM     23  C   UNL     1       3.938   5.827  17.069  0.00  0.00    +0.000 C 
ATOM     24  H   UNL     1      -2.388  13.310  20.436  0.00  0.00    +0.000 HD
ENDROOT
BRANCH   1  26
ATOM     25  C   UNL     1       1.266   2.738  21.637  0.00  0.00    +0.000 C 
ATOM     26  N   UNL     1       2.506   2.973  20.908  0.00  0.00    +0.000 N 
ATOM     27  H   UNL     1       2.639   2.265  20.191  0.00  0.00    +0.000 HD
ENDBRANCH   1  26
TORSDOF 1
ENDMDL
MODEL 3
REMARK VINA RESULT:      -7.2      2.097      3.687
REMARK  Name = 
REMARK  2 active torsions:
REMARK  status: ('A' for Active; 'I' for Inactive)
REMARK    1  A    between atoms: C_1  and  N_2
REMARK    2  A    between atoms: N_2  and  C_3
REMARK                            x       y       z     vdW  Elec       q    Type
REMARK                         _______ _______ _______ _____ _____    ______ ____
ROOT
ATOM      1  C   UNL     1       2.233   5.141  20.244  0.00  0.00    +0.000 A 
ATOM      2  N   UNL     1       1.638   6.138  20.907  0.00  0.00    +0.000 NA
ATOM      3  C   UNL     1       1.674   7.343  20.329  0.00  0.00    +0.000 A 
ATOM      4  S   UNL     1       0.925   8.641  21.105  0.00  0.00    +0.000 S 
ATOM      5  C   UNL     1       1.241   9.704  19.799  0.00  0.00    +0.000 A 
ATOM      6  C   UNL     1       0.907  11.052  19.626  0.00  0.00    +0.000 A 
ATOM      7  N   UNL     1       0.232  11.820  20.559  0.00  0.00    +0.000 N 
ATOM      8  C   UNL     1       0.457  13.270  20.592  0.00  0.00    +0.000 C 
ATOM      9  C   UNL     1      -0.800  14.048  20.153  0.00  0.00    +0.000 C 
ATOM     10  N   UNL     1      -2.005  13.669  20.917  0.00  0.00    +0.000 NA
ATOM     11  C   UNL     1      -2.223  12.219  20.785  0.00  0.00    +0.000 C 
ATOM     12  C   UNL     1      -1.006  11.359  21.203  0.00  0.00    +0.000 C 
ATOM     13  N   UNL     1       1.390  11.617  18.485  0.00  0.00    +0.000 NA
ATOM     14  N   UNL     1       2.088  10.941  17.586  0.00  0.00    +0.000 NA
ATOM     15  N   UNL     1       2.396   9.729  17.718  0.00  0.00    +0.000 NA
ATOM     16  C   UNL     1       1.998   9.065  18.828  0.00  0.00    +0.000 A 
ATOM     17  C   UNL     1       2.280   7.680  19.133  0.00  0.00    +0.000 A 
ATOM     18  C   UNL     1       3.013   6.645  18.478  0.00  0.00    +0.000 A 
ATOM     19  C   UNL     1       2.955   5.345  19.052  0.00  0.00    +0.000 A 
ATOM     20  C   UNL     1       3.733   4.199  18.435  0.00  0.00    +0.000 C 
ATOM     21  C   UNL     1       4.158   4.443  16.991  0.00  0.00    +0.000 C 
ATOM     22  C   UNL     1       4.799   5.814  16.860  0.00  0.00    +0.000 C 
ATOM     23  C   UNL     1       3.778   6.898  17.196  0.00  0.00    +0.000 C 
ATOM     24  H   UNL     1      -2.810  14.164  20.536  0.00  0.00    +0.000 HD
ENDROOT
BRANCH   1  26
ATOM     25  C   UNL     1       0.938   3.116  20.365  0.00  0.00    +0.000 C 
ATOM     26  N   UNL     1       2.130   3.841  20.785  0.00  0.00    +0.000 N 
ATOM     27  H   UNL     1       2.970   3.326  20.535  0.00  0.00    +0.000 HD
ENDBRANCH   1  26
TORSDOF 1
ENDMDL
MODEL 4
REMARK VINA RESULT:      -6.7      1.868      2.385
REMARK  Name = 
REMARK  2 active torsions:
REMARK  status: ('A' for Active; 'I' for Inactive)
REMARK    1  A    between atoms: C_1  and  N_2
REMARK    2  A    between atoms: N_2  and  C_3
REMARK                            x       y       z     vdW  Elec       q    Type
REMARK                         _______ _______ _______ _____ _____    ______ ____
ROOT
ATOM      1  C   UNL     1       3.327   6.943  17.816  0.00  0.00    +0.000 A 
ATOM      2  N   UNL     1       2.947   8.225  17.784  0.00  0.00    +0.000 NA
ATOM      3  C   UNL     1       2.208   8.653  18.812  0.00  0.00    +0.000 A 
ATOM      4  S   UNL     1       1.712  10.267  18.841  0.00  0.00    +0.000 S 
ATOM      5  C   UNL     1       1.007  10.102  20.393  0.00  0.00    +0.000 A 
ATOM      6  C   UNL     1       0.357  11.044  21.199  0.00  0.00    +0.000 A 
ATOM      7  N   UNL     1       0.140  12.364  20.844  0.00  0.00    +0.000 N 
ATOM      8  C   UNL     1      -1.012  13.078  21.407  0.00  0.00    +0.000 C 
ATOM      9  C   UNL     1      -0.570  14.196  22.373  0.00  0.00    +0.000 C 
ATOM     10  N   UNL     1       0.401  15.127  21.765  0.00  0.00    +0.000 NA
ATOM     11  C   UNL     1       1.567  14.365  21.289  0.00  0.00    +0.000 C 
ATOM     12  C   UNL     1       1.212  13.218  20.313  0.00  0.00    +0.000 C 
ATOM     13  N   UNL     1      -0.158  10.546  22.357  0.00  0.00    +0.000 NA
ATOM     14  N   UNL     1      -0.027   9.279  22.718  0.00  0.00    +0.000 NA
ATOM     15  N   UNL     1       0.556   8.416  22.012  0.00  0.00    +0.000 NA
ATOM     16  C   UNL     1       1.084   8.784  20.822  0.00  0.00    +0.000 A 
ATOM     17  C   UNL     1       1.771   7.914  19.894  0.00  0.00    +0.000 A 
ATOM     18  C   UNL     1       2.077   6.520  19.877  0.00  0.00    +0.000 A 
ATOM     19  C   UNL     1       2.897   6.049  18.815  0.00  0.00    +0.000 A 
ATOM     20  C   UNL     1       3.240   4.575  18.707  0.00  0.00    +0.000 C 
ATOM     21  C   UNL     1       3.040   3.794  20.001  0.00  0.00    +0.000 C 
ATOM     22  C   UNL     1       1.677   4.107  20.594  0.00  0.00    +0.000 C 
ATOM     23  C   UNL     1       1.600   5.585  20.968  0.00  0.00    +0.000 C 
ATOM     24  H   UNL     1       0.704  15.798  22.471  0.00  0.00    +0.000 HD
ENDROOT
BRANCH   1  26
ATOM     25  C   UNL     1       5.577   6.878  16.966  0.00  0.00    +0.000 C 
ATOM     26  N   UNL     1       4.185   6.488  16.792  0.00  0.00    +0.000 N 
ATOM     27  H   UNL     1       4.100   5.477  16.733  0.00  0.00    +0.000 HD
ENDBRANCH   1  26
TORSDOF 1
ENDMDL
MODEL 5
REMARK VINA RESULT:      -6.4      5.113      7.710
REMARK  Name = 
REMARK  2 active torsions:
REMARK  status: ('A' for Active; 'I' for Inactive)
REMARK    1  A    between atoms: C_1  and  N_2
REMARK    2  A    between atoms: N_2  and  C_3
REMARK                            x       y       z     vdW  Elec       q    Type
REMARK                         _______ _______ _______ _____ _____    ______ ____
ROOT
ATOM      1  C   UNL     1      -1.984  10.852  17.584  0.00  0.00    +0.000 A 
ATOM      2  N   UNL     1      -2.868  11.648  18.195  0.00  0.00    +0.000 NA
ATOM      3  C   UNL     1      -2.543  12.068  19.421  0.00  0.00    +0.000 A 
ATOM      4  S   UNL     1      -3.608  13.091  20.240  0.00  0.00    +0.000 S 
ATOM      5  C   UNL     1      -2.527  13.293  21.553  0.00  0.00    +0.000 A 
ATOM      6  C   UNL     1      -2.648  14.057  22.719  0.00  0.00    +0.000 A 
ATOM      7  N   UNL     1      -3.757  14.821  23.045  0.00  0.00    +0.000 N 
ATOM      8  C   UNL     1      -4.066  15.068  24.458  0.00  0.00    +0.000 C 
ATOM      9  C   UNL     1      -3.870  16.551  24.831  0.00  0.00    +0.000 C 
ATOM     10  N   UNL     1      -4.612  17.469  23.945  0.00  0.00    +0.000 NA
ATOM     11  C   UNL     1      -4.204  17.228  22.551  0.00  0.00    +0.000 C 
ATOM     12  C   UNL     1      -4.367  15.759  22.093  0.00  0.00    +0.000 C 
ATOM     13  N   UNL     1      -1.618  13.924  23.599  0.00  0.00    +0.000 NA
ATOM     14  N   UNL     1      -0.561  13.163  23.361  0.00  0.00    +0.000 NA
ATOM     15  N   UNL     1      -0.428  12.471  22.318  0.00  0.00    +0.000 NA
ATOM     16  C   UNL     1      -1.403  12.497  21.381  0.00  0.00    +0.000 A 
ATOM     17  C   UNL     1      -1.406  11.754  20.141  0.00  0.00    +0.000 A 
ATOM     18  C   UNL     1      -0.514  10.815  19.541  0.00  0.00    +0.000 A 
ATOM     19  C   UNL     1      -0.816  10.386  18.219  0.00  0.00    +0.000 A 
ATOM     20  C   UNL     1       0.064   9.365  17.523  0.00  0.00    +0.000 C 
ATOM     21  C   UNL     1       1.453   9.222  18.138  0.00  0.00    +0.000 C 
ATOM     22  C   UNL     1       1.343   9.072  19.646  0.00  0.00    +0.000 C 
ATOM     23  C   UNL     1       0.735  10.335  20.250  0.00  0.00    +0.000 C 
ATOM     24  H   UNL     1      -4.388  18.430  24.198  0.00  0.00    +0.000 HD
ENDROOT
BRANCH   1  26
ATOM     25  C   UNL     1      -3.612  10.774  15.814  0.00  0.00    +0.000 C 
ATOM     26  N   UNL     1      -2.257  10.469  16.254  0.00  0.00    +0.000 N 
ATOM     27  H   UNL     1      -1.574  10.916  15.648  0.00  0.00    +0.000 HD
ENDBRANCH   1  26
TORSDOF 1
ENDMDL
MODEL 6
REMARK VINA RESULT:      -6.4      6.784      9.470
REMARK  Name = 
REMARK  2 active torsions:
REMARK  status: ('A' for Active; 'I' for Inactive)
REMARK    1  A    between atoms: C_1  and  N_2
REMARK    2  A    between atoms: N_2  and  C_3
REMARK                            x       y       z     vdW  Elec       q    Type
REMARK                         _______ _______ _______ _____ _____    ______ ____
ROOT
ATOM      1  C   UNL     1      -5.285  12.137  18.088  0.00  0.00    +0.000 A 
ATOM      2  N   UNL     1      -5.514  12.817  19.216  0.00  0.00    +0.000 NA
ATOM      3  C   UNL     1      -4.477  12.957  20.048  0.00  0.00    +0.000 A 
ATOM      4  S   UNL     1      -4.695  13.822  21.481  0.00  0.00    +0.000 S 
ATOM      5  C   UNL     1      -3.036  13.704  21.894  0.00  0.00    +0.000 A 
ATOM      6  C   UNL     1      -2.338  14.209  22.997  0.00  0.00    +0.000 A 
ATOM      7  N   UNL     1      -2.917  14.926  24.031  0.00  0.00    +0.000 N 
ATOM      8  C   UNL     1      -2.305  14.881  25.364  0.00  0.00    +0.000 C 
ATOM      9  C   UNL     1      -1.703  16.244  25.759  0.00  0.00    +0.000 C 
ATOM     10  N   UNL     1      -2.669  17.354  25.643  0.00  0.00    +0.000 NA
ATOM     11  C   UNL     1      -3.190  17.398  24.267  0.00  0.00    +0.000 C 
ATOM     12  C   UNL     1      -3.813  16.065  23.787  0.00  0.00    +0.000 C 
ATOM     13  N   UNL     1      -1.024  13.857  23.051  0.00  0.00    +0.000 NA
ATOM     14  N   UNL     1      -0.436  13.127  22.117  0.00  0.00    +0.000 NA
ATOM     15  N   UNL     1      -1.041  12.666  21.116  0.00  0.00    +0.000 NA
ATOM     16  C   UNL     1      -2.361  12.923  20.967  0.00  0.00    +0.000 A 
ATOM     17  C   UNL     1      -3.198  12.458  19.885  0.00  0.00    +0.000 A 
ATOM     18  C   UNL     1      -2.979  11.636  18.738  0.00  0.00    +0.000 A 
ATOM     19  C   UNL     1      -4.055  11.506  17.817  0.00  0.00    +0.000 A 
ATOM     20  C   UNL     1      -3.913  10.624  16.591  0.00  0.00    +0.000 C 
ATOM     21  C   UNL     1      -2.469  10.305  16.220  0.00  0.00    +0.000 C 
ATOM     22  C   UNL     1      -1.704   9.845  17.450  0.00  0.00    +0.000 C 
ATOM     23  C   UNL     1      -1.643  10.974  18.476  0.00  0.00    +0.000 C 
ATOM     24  H   UNL     1      -2.194  18.232  25.850  0.00  0.00    +0.000 HD
ENDROOT
BRANCH   1  26
ATOM     25  C   UNL     1      -7.163  13.249  17.075  0.00  0.00    +0.000 C 
ATOM     26  N   UNL     1      -6.335  12.052  17.149  0.00  0.00    +0.000 N 
ATOM     27  H   UNL     1      -5.933  11.838  16.241  0.00  0.00    +0.000 HD
ENDBRANCH   1  26
TORSDOF 1
ENDMDL
MODEL 7
REMARK VINA RESULT:      -6.4      8.489     10.022
REMARK  Name = 
REMARK  2 active torsions:
REMARK  status: ('A' for Active; 'I' for Inactive)
REMARK    1  A    between atoms: C_1  and  N_2
REMARK    2  A    between atoms: N_2  and  C_3
REMARK                            x       y       z     vdW  Elec       q    Type
REMARK                         _______ _______ _______ _____ _____    ______ ____
ROOT
ATOM      1  C   UNL     1       9.555  12.403  20.287  0.00  0.00    +0.000 A 
ATOM      2  N   UNL     1       9.298  11.902  21.500  0.00  0.00    +0.000 NA
ATOM      3  C   UNL     1       8.352  12.521  22.212  0.00  0.00    +0.000 A 
ATOM      4  S   UNL     1       7.966  11.927  23.744  0.00  0.00    +0.000 S 
ATOM      5  C   UNL     1       6.687  13.050  23.942  0.00  0.00    +0.000 A 
ATOM      6  C   UNL     1       5.789  13.224  25.001  0.00  0.00    +0.000 A 
ATOM      7  N   UNL     1       5.794  12.475  26.165  0.00  0.00    +0.000 N 
ATOM      8  C   UNL     1       5.283  13.074  27.404  0.00  0.00    +0.000 C 
ATOM      9  C   UNL     1       3.977  12.398  27.865  0.00  0.00    +0.000 C 
ATOM     10  N   UNL     1       4.100  10.931  27.982  0.00  0.00    +0.000 NA
ATOM     11  C   UNL     1       4.540  10.380  26.690  0.00  0.00    +0.000 C 
ATOM     12  C   UNL     1       5.848  11.007  26.151  0.00  0.00    +0.000 C 
ATOM     13  N   UNL     1       4.938  14.278  24.860  0.00  0.00    +0.000 NA
ATOM     14  N   UNL     1       4.930  15.059  23.791  0.00  0.00    +0.000 NA
ATOM     15  N   UNL     1       5.725  14.919  22.826  0.00  0.00    +0.000 NA
ATOM     16  C   UNL     1       6.639  13.923  22.864  0.00  0.00    +0.000 A 
ATOM     17  C   UNL     1       7.625  13.639  21.846  0.00  0.00    +0.000 A 
ATOM     18  C   UNL     1       7.975  14.245  20.602  0.00  0.00    +0.000 A 
ATOM     19  C   UNL     1       8.949  13.580  19.807  0.00  0.00    +0.000 A 
ATOM     20  C   UNL     1       9.399  14.177  18.487  0.00  0.00    +0.000 C 
ATOM     21  C   UNL     1       8.440  15.214  17.915  0.00  0.00    +0.000 C 
ATOM     22  C   UNL     1       8.055  16.217  18.990  0.00  0.00    +0.000 C 
ATOM     23  C   UNL     1       7.302  15.510  20.114  0.00  0.00    +0.000 C 
ATOM     24  H   UNL     1       3.191  10.539  28.222  0.00  0.00    +0.000 HD
ENDROOT
BRANCH   1  26
ATOM     25  C   UNL     1      11.870  11.880  19.888  0.00  0.00    +0.000 C 
ATOM     26  N   UNL     1      10.482  11.713  19.476  0.00  0.00    +0.000 N 
ATOM     27  H   UNL     1      10.227  10.730  19.467  0.00  0.00    +0.000 HD
ENDBRANCH   1  26
TORSDOF 1
ENDMDL
MODEL 8
REMARK VINA RESULT:      -6.1      5.787      8.560
REMARK  Name = 
REMARK  2 active torsions:
REMARK  status: ('A' for Active; 'I' for Inactive)
REMARK    1  A    between atoms: C_1  and  N_2
REMARK    2  A    between atoms: N_2  and  C_3
REMARK                            x       y       z     vdW  Elec       q    Type
REMARK                         _______ _______ _______ _____ _____    ______ ____
ROOT
ATOM      1  C   UNL     1      -2.330  10.836  17.380  0.00  0.00    +0.000 A 
ATOM      2  N   UNL     1      -3.501  11.398  17.701  0.00  0.00    +0.000 NA
ATOM      3  C   UNL     1      -3.585  11.945  18.918  0.00  0.00    +0.000 A 
ATOM      4  S   UNL     1      -5.030  12.687  19.377  0.00  0.00    +0.000 S 
ATOM      5  C   UNL     1      -4.369  13.226  20.863  0.00  0.00    +0.000 A 
ATOM      6  C   UNL     1      -4.944  13.984  21.890  0.00  0.00    +0.000 A 
ATOM      7  N   UNL     1      -6.251  14.444  21.889  0.00  0.00    +0.000 N 
ATOM      8  C   UNL     1      -6.933  14.664  23.169  0.00  0.00    +0.000 C 
ATOM      9  C   UNL     1      -7.200  16.162  23.419  0.00  0.00    +0.000 C 
ATOM     10  N   UNL     1      -7.916  16.811  22.303  0.00  0.00    +0.000 NA
ATOM     11  C   UNL     1      -7.147  16.623  21.062  0.00  0.00    +0.000 C 
ATOM     12  C   UNL     1      -6.832  15.144  20.736  0.00  0.00    +0.000 C 
ATOM     13  N   UNL     1      -4.148  14.166  22.980  0.00  0.00    +0.000 NA
ATOM     14  N   UNL     1      -2.912  13.700  23.054  0.00  0.00    +0.000 NA
ATOM     15  N   UNL     1      -2.373  13.021  22.143  0.00  0.00    +0.000 NA
ATOM     16  C   UNL     1      -3.077  12.747  21.021  0.00  0.00    +0.000 A 
ATOM     17  C   UNL     1      -2.607  11.973  19.893  0.00  0.00    +0.000 A 
ATOM     18  C   UNL     1      -1.396  11.276  19.599  0.00  0.00    +0.000 A 
ATOM     19  C   UNL     1      -1.266  10.723  18.295  0.00  0.00    +0.000 A 
ATOM     20  C   UNL     1      -0.024   9.939  17.916  0.00  0.00    +0.000 C 
ATOM     21  C   UNL     1       1.173  10.193  18.825  0.00  0.00    +0.000 C 
ATOM     22  C   UNL     1       0.753  10.088  20.282  0.00  0.00    +0.000 C 
ATOM     23  C   UNL     1      -0.270  11.174  20.606  0.00  0.00    +0.000 C 
ATOM     24  H   UNL     1      -8.001  17.808  22.497  0.00  0.00    +0.000 HD
ENDROOT
BRANCH   1  26
ATOM     25  C   UNL     1      -3.311  10.617  15.194  0.00  0.00    +0.000 C 
ATOM     26  N   UNL     1      -2.181  10.335  16.070  0.00  0.00    +0.000 N 
ATOM     27  H   UNL     1      -1.323  10.713  15.680  0.00  0.00    +0.000 HD
ENDBRANCH   1  26
TORSDOF 1
ENDMDL
MODEL 9
REMARK VINA RESULT:      -6.1      9.109     11.315
REMARK  Name = 
REMARK  2 active torsions:
REMARK  status: ('A' for Active; 'I' for Inactive)
REMARK    1  A    between atoms: C_1  and  N_2
REMARK    2  A    between atoms: N_2  and  C_3
REMARK                            x       y       z     vdW  Elec       q    Type
REMARK                         _______ _______ _______ _____ _____    ______ ____
ROOT
ATOM      1  C   UNL     1       7.767  15.400  24.994  0.00  0.00    +0.000 A 
ATOM      2  N   UNL     1       8.637  15.739  24.036  0.00  0.00    +0.000 NA
ATOM      3  C   UNL     1       8.970  14.780  23.167  0.00  0.00    +0.000 A 
ATOM      4  S   UNL     1      10.048  15.149  21.923  0.00  0.00    +0.000 S 
ATOM      5  C   UNL     1       9.876  13.600  21.210  0.00  0.00    +0.000 A 
ATOM      6  C   UNL     1      10.455  13.063  20.055  0.00  0.00    +0.000 A 
ATOM      7  N   UNL     1      11.350  13.737  19.240  0.00  0.00    +0.000 N 
ATOM      8  C   UNL     1      12.333  12.968  18.468  0.00  0.00    +0.000 C 
ATOM      9  C   UNL     1      12.053  13.048  16.954  0.00  0.00    +0.000 C 
ATOM     10  N   UNL     1      11.943  14.437  16.463  0.00  0.00    +0.000 NA
ATOM     11  C   UNL     1      10.891  15.133  17.221  0.00  0.00    +0.000 C 
ATOM     12  C   UNL     1      11.093  15.100  18.755  0.00  0.00    +0.000 C 
ATOM     13  N   UNL     1      10.156  11.756  19.821  0.00  0.00    +0.000 NA
ATOM     14  N   UNL     1       9.350  11.051  20.599  0.00  0.00    +0.000 NA
ATOM     15  N   UNL     1       8.816  11.513  21.640  0.00  0.00    +0.000 NA
ATOM     16  C   UNL     1       9.062  12.795  21.995  0.00  0.00    +0.000 A 
ATOM     17  C   UNL     1       8.537  13.467  23.161  0.00  0.00    +0.000 A 
ATOM     18  C   UNL     1       7.699  13.070  24.247  0.00  0.00    +0.000 A 
ATOM     19  C   UNL     1       7.296  14.083  25.160  0.00  0.00    +0.000 A 
ATOM     20  C   UNL     1       6.433  13.736  26.359  0.00  0.00    +0.000 C 
ATOM     21  C   UNL     1       5.703  12.403  26.232  0.00  0.00    +0.000 C 
ATOM     22  C   UNL     1       6.669  11.319  25.786  0.00  0.00    +0.000 C 
ATOM     23  C   UNL     1       7.208  11.646  24.395  0.00  0.00    +0.000 C 
ATOM     24  H   UNL     1      11.690  14.422  15.476  0.00  0.00    +0.000 HD
ENDROOT
BRANCH   1  26
ATOM     25  C   UNL     1       8.398  17.076  26.600  0.00  0.00    +0.000 C 
ATOM     26  N   UNL     1       7.326  16.415  25.868  0.00  0.00    +0.000 N 
ATOM     27  H   UNL     1       6.792  17.090  25.328  0.00  0.00    +0.000 HD
ENDBRANCH   1  26
TORSDOF 1
ENDMDL
