MODEL 1
REMARK VINA RESULT:      -7.4      0.000      0.000
REMARK  Name = 
REMARK  11 active torsions:
REMARK  status: ('A' for Active; 'I' for Inactive)
REMARK    1  A    between atoms: C_1  and  C_2
REMARK    2  A    between atoms: C_2  and  O_3
REMARK    3  A    between atoms: C_2  and  C_4
REMARK    4  A    between atoms: C_4  and  N_5
REMARK    5  A    between atoms: N_8  and  C_9
REMARK    6  A    between atoms: C_9  and  C_10
REMARK    7  A    between atoms: C_10  and  C_11
REMARK    8  A    between atoms: C_10  and  N_21
REMARK    9  A    between atoms: C_15  and  C_16
REMARK   10  A    between atoms: N_21  and  C_22
REMARK   11  A    between atoms: N_21  and  C_23
REMARK                            x       y       z     vdW  Elec       q    Type
REMARK                         _______ _______ _______ _____ _____    ______ ____
ROOT
ATOM      1  C   UNL     1       6.469   4.814  16.077  0.00  0.00    +0.000 C 
ENDROOT
BRANCH   1   2
ATOM      2  C   UNL     1       6.704   4.595  14.575  0.00  0.00    +0.000 A 
ATOM      3  C   UNL     1       7.789   5.196  13.916  0.00  0.00    +0.000 A 
ATOM      4  C   UNL     1       7.914   5.112  12.531  0.00  0.00    +0.000 A 
ATOM      5  C   UNL     1       6.952   4.431  11.788  0.00  0.00    +0.000 A 
ATOM      6  C   UNL     1       5.870   3.804  12.421  0.00  0.00    +0.000 A 
ATOM      7  C   UNL     1       5.770   3.866  13.821  0.00  0.00    +0.000 A 
BRANCH   6   8
ATOM      8  C   UNL     1       4.802   3.119  11.609  0.00  0.00    +0.000 C 
ATOM      9  F   UNL     1       5.172   1.881  11.172  0.00  0.00    +0.000 F 
ATOM     10  F   UNL     1       3.643   2.936  12.302  0.00  0.00    +0.000 F 
ATOM     11  F   UNL     1       4.463   3.817  10.489  0.00  0.00    +0.000 F 
ENDBRANCH   6   8
ENDBRANCH   1   2
BRANCH   1  12
ATOM     12  N   UNL     1       6.579   6.255  16.462  0.00  0.00    +0.000 NA
ATOM     13  C   UNL     1       5.255   6.868  16.653  0.00  0.00    +0.000 C 
ATOM     14  C   UNL     1       7.332   6.418  17.716  0.00  0.00    +0.000 C 
ENDBRANCH   1  12
BRANCH   1  15
ATOM     15  C   UNL     1       5.072   4.167  16.415  0.00  0.00    +0.000 C 
BRANCH  15  19
ATOM     16  N   UNL     1       3.810   2.655  19.485  0.00  0.00    +0.000 N 
ATOM     17  C   UNL     1       3.769   3.154  18.219  0.00  0.00    +0.000 C 
ATOM     18  O   UNL     1       2.717   3.292  17.597  0.00  0.00    +0.000 OA
ATOM     19  N   UNL     1       4.974   3.560  17.741  0.00  0.00    +0.000 N 
ATOM     20  H   UNL     1       4.670   2.240  19.817  0.00  0.00    +0.000 HD
ATOM     21  H   UNL     1       5.789   3.084  18.105  0.00  0.00    +0.000 HD
BRANCH  16  22
ATOM     22  C   UNL     1       2.578   2.249  20.138  0.00  0.00    +0.000 C 
BRANCH  22  24
ATOM     23  C   UNL     1       1.120   4.255  20.596  0.00  0.00    +0.000 C 
ATOM     24  C   UNL     1       2.103   3.255  21.194  0.00  0.00    +0.000 C 
BRANCH  24  25
ATOM     25  O   UNL     1       1.466   2.558  22.273  0.00  0.00    +0.000 OA
ATOM     26  H   UNL     1       0.649   2.161  21.927  0.00  0.00    +0.000 HD
ENDBRANCH  24  25
ENDBRANCH  22  24
ENDBRANCH  16  22
ENDBRANCH  15  19
ENDBRANCH   1  15
TORSDOF 8
ENDMDL
MODEL 2
REMARK VINA RESULT:      -7.3      0.816      1.187
REMARK  Name = 
REMARK  11 active torsions:
REMARK  status: ('A' for Active; 'I' for Inactive)
REMARK    1  A    between atoms: C_1  and  C_2
REMARK    2  A    between atoms: C_2  and  O_3
REMARK    3  A    between atoms: C_2  and  C_4
REMARK    4  A    between atoms: C_4  and  N_5
REMARK    5  A    between atoms: N_8  and  C_9
REMARK    6  A    between atoms: C_9  and  C_10
REMARK    7  A    between atoms: C_10  and  C_11
REMARK    8  A    between atoms: C_10  and  N_21
REMARK    9  A    between atoms: C_15  and  C_16
REMARK   10  A    between atoms: N_21  and  C_22
REMARK   11  A    between atoms: N_21  and  C_23
REMARK                            x       y       z     vdW  Elec       q    Type
REMARK                         _______ _______ _______ _____ _____    ______ ____
ROOT
ATOM      1  C   UNL     1       6.141   4.588  16.233  0.00  0.00    +0.000 C 
ENDROOT
BRANCH   1   2
ATOM      2  C   UNL     1       6.480   4.447  14.742  0.00  0.00    +0.000 A 
ATOM      3  C   UNL     1       7.607   5.081  14.193  0.00  0.00    +0.000 A 
ATOM      4  C   UNL     1       7.829   5.069  12.818  0.00  0.00    +0.000 A 
ATOM      5  C   UNL     1       6.923   4.429  11.975  0.00  0.00    +0.000 A 
ATOM      6  C   UNL     1       5.801   3.770  12.497  0.00  0.00    +0.000 A 
ATOM      7  C   UNL     1       5.603   3.759  13.887  0.00  0.00    +0.000 A 
BRANCH   6   8
ATOM      8  C   UNL     1       4.794   3.130  11.578  0.00  0.00    +0.000 C 
ATOM      9  F   UNL     1       3.582   2.926  12.169  0.00  0.00    +0.000 F 
ATOM     10  F   UNL     1       4.542   3.874  10.464  0.00  0.00    +0.000 F 
ATOM     11  F   UNL     1       5.194   1.907  11.128  0.00  0.00    +0.000 F 
ENDBRANCH   6   8
ENDBRANCH   1   2
BRANCH   1  12
ATOM     12  N   UNL     1       6.462   5.950  16.761  0.00  0.00    +0.000 NA
ATOM     13  C   UNL     1       5.263   6.796  16.846  0.00  0.00    +0.000 C 
ATOM     14  C   UNL     1       7.055   5.876  18.107  0.00  0.00    +0.000 C 
ENDBRANCH   1  12
BRANCH   1  15
ATOM     15  C   UNL     1       4.625   4.183  16.392  0.00  0.00    +0.000 C 
BRANCH  15  19
ATOM     16  N   UNL     1       2.892   2.305  18.993  0.00  0.00    +0.000 N 
ATOM     17  C   UNL     1       3.036   3.044  17.860  0.00  0.00    +0.000 C 
ATOM     18  O   UNL     1       2.074   3.461  17.216  0.00  0.00    +0.000 OA
ATOM     19  N   UNL     1       4.324   3.348  17.553  0.00  0.00    +0.000 N 
ATOM     20  H   UNL     1       3.653   1.707  19.284  0.00  0.00    +0.000 HD
ATOM     21  H   UNL     1       5.029   2.692  17.860  0.00  0.00    +0.000 HD
BRANCH  16  22
ATOM     22  C   UNL     1       1.561   1.970  19.469  0.00  0.00    +0.000 C 
BRANCH  22  24
ATOM     23  C   UNL     1       2.373   3.029  21.608  0.00  0.00    +0.000 C 
ATOM     24  C   UNL     1       1.161   2.754  20.724  0.00  0.00    +0.000 C 
BRANCH  24  25
ATOM     25  O   UNL     1       0.563   4.001  20.346  0.00  0.00    +0.000 OA
ATOM     26  H   UNL     1       0.088   4.348  21.119  0.00  0.00    +0.000 HD
ENDBRANCH  24  25
ENDBRANCH  22  24
ENDBRANCH  16  22
ENDBRANCH  15  19
ENDBRANCH   1  15
TORSDOF 8
ENDMDL
MODEL 3
REMARK VINA RESULT:      -7.2      3.634      6.627
REMARK  Name = 
REMARK  11 active torsions:
REMARK  status: ('A' for Active; 'I' for Inactive)
REMARK    1  A    between atoms: C_1  and  C_2
REMARK    2  A    between atoms: C_2  and  O_3
REMARK    3  A    between atoms: C_2  and  C_4
REMARK    4  A    between atoms: C_4  and  N_5
REMARK    5  A    between atoms: N_8  and  C_9
REMARK    6  A    between atoms: C_9  and  C_10
REMARK    7  A    between atoms: C_10  and  C_11
REMARK    8  A    between atoms: C_10  and  N_21
REMARK    9  A    between atoms: C_15  and  C_16
REMARK   10  A    between atoms: N_21  and  C_22
REMARK   11  A    between atoms: N_21  and  C_23
REMARK                            x       y       z     vdW  Elec       q    Type
REMARK                         _______ _______ _______ _____ _____    ______ ____
ROOT
ATOM      1  C   UNL     1       6.120   6.081  17.058  0.00  0.00    +0.000 C 
ENDROOT
BRANCH   1   2
ATOM      2  C   UNL     1       4.634   5.903  17.400  0.00  0.00    +0.000 A 
ATOM      3  C   UNL     1       3.822   7.010  17.699  0.00  0.00    +0.000 A 
ATOM      4  C   UNL     1       2.515   6.831  18.149  0.00  0.00    +0.000 A 
ATOM      5  C   UNL     1       2.008   5.545  18.311  0.00  0.00    +0.000 A 
ATOM      6  C   UNL     1       2.788   4.422  18.000  0.00  0.00    +0.000 A 
ATOM      7  C   UNL     1       4.092   4.612  17.516  0.00  0.00    +0.000 A 
BRANCH   6   8
ATOM      8  C   UNL     1       2.255   3.033  18.232  0.00  0.00    +0.000 C 
ATOM      9  F   UNL     1       2.702   2.127  17.315  0.00  0.00    +0.000 F 
ATOM     10  F   UNL     1       2.599   2.527  19.449  0.00  0.00    +0.000 F 
ATOM     11  F   UNL     1       0.895   2.973  18.173  0.00  0.00    +0.000 F 
ENDBRANCH   6   8
ENDBRANCH   1   2
BRANCH   1  12
ATOM     12  N   UNL     1       6.878   6.754  18.159  0.00  0.00    +0.000 NA
ATOM     13  C   UNL     1       7.698   5.797  18.916  0.00  0.00    +0.000 C 
ATOM     14  C   UNL     1       7.776   7.794  17.631  0.00  0.00    +0.000 C 
ENDBRANCH   1  12
BRANCH   1  15
ATOM     15  C   UNL     1       6.672   4.652  16.684  0.00  0.00    +0.000 C 
BRANCH  15  19
ATOM     16  N   UNL     1       7.184   4.233  13.098  0.00  0.00    +0.000 N 
ATOM     17  C   UNL     1       6.493   4.367  14.262  0.00  0.00    +0.000 C 
ATOM     18  O   UNL     1       5.269   4.257  14.320  0.00  0.00    +0.000 OA
ATOM     19  N   UNL     1       7.276   4.548  15.358  0.00  0.00    +0.000 N 
ATOM     20  H   UNL     1       8.098   4.660  13.022  0.00  0.00    +0.000 HD
ATOM     21  H   UNL     1       8.167   5.001  15.206  0.00  0.00    +0.000 HD
BRANCH  16  22
ATOM     22  C   UNL     1       6.468   3.967  11.863  0.00  0.00    +0.000 C 
BRANCH  22  24
ATOM     23  C   UNL     1       4.213   3.065  11.188  0.00  0.00    +0.000 C 
ATOM     24  C   UNL     1       5.486   2.796  11.983  0.00  0.00    +0.000 C 
BRANCH  24  25
ATOM     25  O   UNL     1       6.100   1.596  11.493  0.00  0.00    +0.000 OA
ATOM     26  H   UNL     1       7.043   1.632  11.722  0.00  0.00    +0.000 HD
ENDBRANCH  24  25
ENDBRANCH  22  24
ENDBRANCH  16  22
ENDBRANCH  15  19
ENDBRANCH   1  15
TORSDOF 8
ENDMDL
MODEL 4
REMARK VINA RESULT:      -7.1      3.857      6.770
REMARK  Name = 
REMARK  11 active torsions:
REMARK  status: ('A' for Active; 'I' for Inactive)
REMARK    1  A    between atoms: C_1  and  C_2
REMARK    2  A    between atoms: C_2  and  O_3
REMARK    3  A    between atoms: C_2  and  C_4
REMARK    4  A    between atoms: C_4  and  N_5
REMARK    5  A    between atoms: N_8  and  C_9
REMARK    6  A    between atoms: C_9  and  C_10
REMARK    7  A    between atoms: C_10  and  C_11
REMARK    8  A    between atoms: C_10  and  N_21
REMARK    9  A    between atoms: C_15  and  C_16
REMARK   10  A    between atoms: N_21  and  C_22
REMARK   11  A    between atoms: N_21  and  C_23
REMARK                            x       y       z     vdW  Elec       q    Type
REMARK                         _______ _______ _______ _____ _____    ______ ____
ROOT
ATOM      1  C   UNL     1       6.047   6.071  18.087  0.00  0.00    +0.000 C 
ENDROOT
BRANCH   1   2
ATOM      2  C   UNL     1       4.592   5.580  18.102  0.00  0.00    +0.000 A 
ATOM      3  C   UNL     1       3.522   6.489  18.120  0.00  0.00    +0.000 A 
ATOM      4  C   UNL     1       2.212   6.040  18.280  0.00  0.00    +0.000 A 
ATOM      5  C   UNL     1       1.959   4.679  18.428  0.00  0.00    +0.000 A 
ATOM      6  C   UNL     1       3.006   3.747  18.392  0.00  0.00    +0.000 A 
ATOM      7  C   UNL     1       4.320   4.206  18.198  0.00  0.00    +0.000 A 
BRANCH   6   8
ATOM      8  C   UNL     1       2.734   2.282  18.611  0.00  0.00    +0.000 C 
ATOM      9  F   UNL     1       3.792   1.616  19.159  0.00  0.00    +0.000 F 
ATOM     10  F   UNL     1       1.682   2.056  19.447  0.00  0.00    +0.000 F 
ATOM     11  F   UNL     1       2.444   1.621  17.456  0.00  0.00    +0.000 F 
ENDBRANCH   6   8
ENDBRANCH   1   2
BRANCH   1  12
ATOM     12  N   UNL     1       6.975   5.113  18.765  0.00  0.00    +0.000 NA
ATOM     13  C   UNL     1       7.826   4.406  17.797  0.00  0.00    +0.000 C 
ATOM     14  C   UNL     1       7.859   5.807  19.716  0.00  0.00    +0.000 C 
ENDBRANCH   1  12
BRANCH   1  15
ATOM     15  C   UNL     1       6.413   6.357  16.581  0.00  0.00    +0.000 C 
BRANCH  15  19
ATOM     16  N   UNL     1       5.644   4.228  13.721  0.00  0.00    +0.000 N 
ATOM     17  C   UNL     1       6.415   4.939  14.588  0.00  0.00    +0.000 C 
ATOM     18  O   UNL     1       7.623   5.102  14.418  0.00  0.00    +0.000 OA
ATOM     19  N   UNL     1       5.722   5.518  15.604  0.00  0.00    +0.000 N 
ATOM     20  H   UNL     1       4.777   3.830  14.055  0.00  0.00    +0.000 HD
ATOM     21  H   UNL     1       4.875   5.050  15.897  0.00  0.00    +0.000 HD
BRANCH  16  22
ATOM     22  C   UNL     1       6.253   3.616  12.553  0.00  0.00    +0.000 C 
BRANCH  22  24
ATOM     23  C   UNL     1       4.268   3.044  11.107  0.00  0.00    +0.000 C 
ATOM     24  C   UNL     1       5.404   2.486  11.959  0.00  0.00    +0.000 C 
BRANCH  24  25
ATOM     25  O   UNL     1       6.226   1.637  11.148  0.00  0.00    +0.000 OA
ATOM     26  H   UNL     1       5.663   0.927  10.798  0.00  0.00    +0.000 HD
ENDBRANCH  24  25
ENDBRANCH  22  24
ENDBRANCH  16  22
ENDBRANCH  15  19
ENDBRANCH   1  15
TORSDOF 8
ENDMDL
MODEL 5
REMARK VINA RESULT:      -7.1      0.861      1.166
REMARK  Name = 
REMARK  11 active torsions:
REMARK  status: ('A' for Active; 'I' for Inactive)
REMARK    1  A    between atoms: C_1  and  C_2
REMARK    2  A    between atoms: C_2  and  O_3
REMARK    3  A    between atoms: C_2  and  C_4
REMARK    4  A    between atoms: C_4  and  N_5
REMARK    5  A    between atoms: N_8  and  C_9
REMARK    6  A    between atoms: C_9  and  C_10
REMARK    7  A    between atoms: C_10  and  C_11
REMARK    8  A    between atoms: C_10  and  N_21
REMARK    9  A    between atoms: C_15  and  C_16
REMARK   10  A    between atoms: N_21  and  C_22
REMARK   11  A    between atoms: N_21  and  C_23
REMARK                            x       y       z     vdW  Elec       q    Type
REMARK                         _______ _______ _______ _____ _____    ______ ____
ROOT
ATOM      1  C   UNL     1       6.472   4.723  16.106  0.00  0.00    +0.000 C 
ENDROOT
BRANCH   1   2
ATOM      2  C   UNL     1       6.706   4.543  14.599  0.00  0.00    +0.000 A 
ATOM      3  C   UNL     1       7.785   5.169  13.955  0.00  0.00    +0.000 A 
ATOM      4  C   UNL     1       7.909   5.121  12.568  0.00  0.00    +0.000 A 
ATOM      5  C   UNL     1       6.952   4.452  11.809  0.00  0.00    +0.000 A 
ATOM      6  C   UNL     1       5.875   3.800  12.427  0.00  0.00    +0.000 A 
ATOM      7  C   UNL     1       5.777   3.825  13.828  0.00  0.00    +0.000 A 
BRANCH   6   8
ATOM      8  C   UNL     1       4.812   3.127  11.600  0.00  0.00    +0.000 C 
ATOM      9  F   UNL     1       4.482   3.829  10.477  0.00  0.00    +0.000 F 
ATOM     10  F   UNL     1       5.179   1.889  11.166  0.00  0.00    +0.000 F 
ATOM     11  F   UNL     1       3.644   2.955  12.281  0.00  0.00    +0.000 F 
ENDBRANCH   6   8
ENDBRANCH   1   2
BRANCH   1  12
ATOM     12  N   UNL     1       6.721   6.128  16.555  0.00  0.00    +0.000 NA
ATOM     13  C   UNL     1       5.465   6.877  16.716  0.00  0.00    +0.000 C 
ATOM     14  C   UNL     1       7.430   6.160  17.844  0.00  0.00    +0.000 C 
ENDBRANCH   1  12
BRANCH   1  15
ATOM     15  C   UNL     1       5.011   4.208  16.401  0.00  0.00    +0.000 C 
BRANCH  15  19
ATOM     16  N   UNL     1       4.032   2.592  19.521  0.00  0.00    +0.000 N 
ATOM     17  C   UNL     1       4.001   3.508  18.515  0.00  0.00    +0.000 C 
ATOM     18  O   UNL     1       3.274   4.500  18.548  0.00  0.00    +0.000 OA
ATOM     19  N   UNL     1       4.896   3.275  17.520  0.00  0.00    +0.000 N 
ATOM     20  H   UNL     1       4.353   1.655  19.316  0.00  0.00    +0.000 HD
ATOM     21  H   UNL     1       5.153   2.310  17.361  0.00  0.00    +0.000 HD
BRANCH  16  22
ATOM     22  C   UNL     1       3.172   2.764  20.678  0.00  0.00    +0.000 C 
BRANCH  22  24
ATOM     23  C   UNL     1       0.777   3.516  20.441  0.00  0.00    +0.000 C 
ATOM     24  C   UNL     1       1.726   2.322  20.418  0.00  0.00    +0.000 C 
BRANCH  24  25
ATOM     25  O   UNL     1       1.639   1.678  19.141  0.00  0.00    +0.000 OA
ATOM     26  H   UNL     1       0.808   1.175  19.119  0.00  0.00    +0.000 HD
ENDBRANCH  24  25
ENDBRANCH  22  24
ENDBRANCH  16  22
ENDBRANCH  15  19
ENDBRANCH   1  15
TORSDOF 8
ENDMDL
MODEL 6
REMARK VINA RESULT:      -7.1      3.729      6.655
REMARK  Name = 
REMARK  11 active torsions:
REMARK  status: ('A' for Active; 'I' for Inactive)
REMARK    1  A    between atoms: C_1  and  C_2
REMARK    2  A    between atoms: C_2  and  O_3
REMARK    3  A    between atoms: C_2  and  C_4
REMARK    4  A    between atoms: C_4  and  N_5
REMARK    5  A    between atoms: N_8  and  C_9
REMARK    6  A    between atoms: C_9  and  C_10
REMARK    7  A    between atoms: C_10  and  C_11
REMARK    8  A    between atoms: C_10  and  N_21
REMARK    9  A    between atoms: C_15  and  C_16
REMARK   10  A    between atoms: N_21  and  C_22
REMARK   11  A    between atoms: N_21  and  C_23
REMARK                            x       y       z     vdW  Elec       q    Type
REMARK                         _______ _______ _______ _____ _____    ______ ____
ROOT
ATOM      1  C   UNL     1       6.178   6.056  17.033  0.00  0.00    +0.000 C 
ENDROOT
BRANCH   1   2
ATOM      2  C   UNL     1       4.740   5.672  17.412  0.00  0.00    +0.000 A 
ATOM      3  C   UNL     1       3.776   6.655  17.686  0.00  0.00    +0.000 A 
ATOM      4  C   UNL     1       2.518   6.301  18.169  0.00  0.00    +0.000 A 
ATOM      5  C   UNL     1       2.212   4.961  18.390  0.00  0.00    +0.000 A 
ATOM      6  C   UNL     1       3.148   3.956  18.105  0.00  0.00    +0.000 A 
ATOM      7  C   UNL     1       4.401   4.320  17.587  0.00  0.00    +0.000 A 
BRANCH   6   8
ATOM      8  C   UNL     1       2.833   2.513  18.400  0.00  0.00    +0.000 C 
ATOM      9  F   UNL     1       2.237   2.331  19.614  0.00  0.00    +0.000 F 
ATOM     10  F   UNL     1       1.990   1.956  17.486  0.00  0.00    +0.000 F 
ATOM     11  F   UNL     1       3.944   1.724  18.415  0.00  0.00    +0.000 F 
ENDBRANCH   6   8
ENDBRANCH   1   2
BRANCH   1  12
ATOM     12  N   UNL     1       6.875   6.794  18.131  0.00  0.00    +0.000 NA
ATOM     13  C   UNL     1       7.712   5.897  18.942  0.00  0.00    +0.000 C 
ATOM     14  C   UNL     1       7.745   7.854  17.595  0.00  0.00    +0.000 C 
ENDBRANCH   1  12
BRANCH   1  15
ATOM     15  C   UNL     1       6.902   4.725  16.598  0.00  0.00    +0.000 C 
BRANCH  15  19
ATOM     16  N   UNL     1       7.313   4.418  12.987  0.00  0.00    +0.000 N 
ATOM     17  C   UNL     1       6.663   4.426  14.183  0.00  0.00    +0.000 C 
ATOM     18  O   UNL     1       5.479   4.110  14.294  0.00  0.00    +0.000 OA
ATOM     19  N   UNL     1       7.454   4.732  15.245  0.00  0.00    +0.000 N 
ATOM     20  H   UNL     1       8.136   4.995  12.876  0.00  0.00    +0.000 HD
ATOM     21  H   UNL     1       8.247   5.331  15.060  0.00  0.00    +0.000 HD
BRANCH  16  22
ATOM     22  C   UNL     1       6.596   4.040  11.782  0.00  0.00    +0.000 C 
BRANCH  22  24
ATOM     23  C   UNL     1       4.252   3.245  11.305  0.00  0.00    +0.000 C 
ATOM     24  C   UNL     1       5.560   2.936  12.024  0.00  0.00    +0.000 C 
BRANCH  24  25
ATOM     25  O   UNL     1       6.070   1.681  11.553  0.00  0.00    +0.000 OA
ATOM     26  H   UNL     1       5.751   1.555  10.644  0.00  0.00    +0.000 HD
ENDBRANCH  24  25
ENDBRANCH  22  24
ENDBRANCH  16  22
ENDBRANCH  15  19
ENDBRANCH   1  15
TORSDOF 8
ENDMDL
MODEL 7
REMARK VINA RESULT:      -7.1      4.393      7.424
REMARK  Name = 
REMARK  11 active torsions:
REMARK  status: ('A' for Active; 'I' for Inactive)
REMARK    1  A    between atoms: C_1  and  C_2
REMARK    2  A    between atoms: C_2  and  O_3
REMARK    3  A    between atoms: C_2  and  C_4
REMARK    4  A    between atoms: C_4  and  N_5
REMARK    5  A    between atoms: N_8  and  C_9
REMARK    6  A    between atoms: C_9  and  C_10
REMARK    7  A    between atoms: C_10  and  C_11
REMARK    8  A    between atoms: C_10  and  N_21
REMARK    9  A    between atoms: C_15  and  C_16
REMARK   10  A    between atoms: N_21  and  C_22
REMARK   11  A    between atoms: N_21  and  C_23
REMARK                            x       y       z     vdW  Elec       q    Type
REMARK                         _______ _______ _______ _____ _____    ______ ____
ROOT
ATOM      1  C   UNL     1       5.695   5.703  17.677  0.00  0.00    +0.000 C 
ENDROOT
BRANCH   1   2
ATOM      2  C   UNL     1       4.373   5.585  18.448  0.00  0.00    +0.000 A 
ATOM      3  C   UNL     1       3.493   6.675  18.550  0.00  0.00    +0.000 A 
ATOM      4  C   UNL     1       2.368   6.606  19.369  0.00  0.00    +0.000 A 
ATOM      5  C   UNL     1       2.113   5.449  20.101  0.00  0.00    +0.000 A 
ATOM      6  C   UNL     1       2.962   4.337  20.003  0.00  0.00    +0.000 A 
ATOM      7  C   UNL     1       4.075   4.404  19.149  0.00  0.00    +0.000 A 
BRANCH   6   8
ATOM      8  C   UNL     1       2.715   3.110  20.840  0.00  0.00    +0.000 C 
ATOM      9  F   UNL     1       1.789   2.268  20.296  0.00  0.00    +0.000 F 
ATOM     10  F   UNL     1       3.836   2.358  21.025  0.00  0.00    +0.000 F 
ATOM     11  F   UNL     1       2.253   3.406  22.087  0.00  0.00    +0.000 F 
ENDBRANCH   6   8
ENDBRANCH   1   2
BRANCH   1  12
ATOM     12  N   UNL     1       6.677   6.593  18.370  0.00  0.00    +0.000 NA
ATOM     13  C   UNL     1       7.687   5.818  19.107  0.00  0.00    +0.000 C 
ATOM     14  C   UNL     1       7.387   7.456  17.411  0.00  0.00    +0.000 C 
ENDBRANCH   1  12
BRANCH   1  15
ATOM     15  C   UNL     1       6.218   4.234  17.447  0.00  0.00    +0.000 C 
BRANCH  15  19
ATOM     16  N   UNL     1       5.963   3.358  13.915  0.00  0.00    +0.000 N 
ATOM     17  C   UNL     1       6.465   3.956  15.030  0.00  0.00    +0.000 C 
ATOM     18  O   UNL     1       7.377   4.781  14.983  0.00  0.00    +0.000 OA
ATOM     19  N   UNL     1       5.820   3.625  16.179  0.00  0.00    +0.000 N 
ATOM     20  H   UNL     1       5.489   2.470  14.011  0.00  0.00    +0.000 HD
ATOM     21  H   UNL     1       5.387   2.712  16.207  0.00  0.00    +0.000 HD
BRANCH  16  22
ATOM     22  C   UNL     1       6.520   3.680  12.613  0.00  0.00    +0.000 C 
BRANCH  22  24
ATOM     23  C   UNL     1       5.976   1.538  11.399  0.00  0.00    +0.000 C 
ATOM     24  C   UNL     1       5.740   3.044  11.456  0.00  0.00    +0.000 C 
BRANCH  24  25
ATOM     25  O   UNL     1       4.338   3.293  11.623  0.00  0.00    +0.000 OA
ATOM     26  H   UNL     1       3.947   2.510  12.046  0.00  0.00    +0.000 HD
ENDBRANCH  24  25
ENDBRANCH  22  24
ENDBRANCH  16  22
ENDBRANCH  15  19
ENDBRANCH   1  15
TORSDOF 8
ENDMDL
MODEL 8
REMARK VINA RESULT:      -7.1      4.338      7.262
REMARK  Name = 
REMARK  11 active torsions:
REMARK  status: ('A' for Active; 'I' for Inactive)
REMARK    1  A    between atoms: C_1  and  C_2
REMARK    2  A    between atoms: C_2  and  O_3
REMARK    3  A    between atoms: C_2  and  C_4
REMARK    4  A    between atoms: C_4  and  N_5
REMARK    5  A    between atoms: N_8  and  C_9
REMARK    6  A    between atoms: C_9  and  C_10
REMARK    7  A    between atoms: C_10  and  C_11
REMARK    8  A    between atoms: C_10  and  N_21
REMARK    9  A    between atoms: C_15  and  C_16
REMARK   10  A    between atoms: N_21  and  C_22
REMARK   11  A    between atoms: N_21  and  C_23
REMARK                            x       y       z     vdW  Elec       q    Type
REMARK                         _______ _______ _______ _____ _____    ______ ____
ROOT
ATOM      1  C   UNL     1       5.937   5.956  17.498  0.00  0.00    +0.000 C 
ENDROOT
BRANCH   1   2
ATOM      2  C   UNL     1       4.485   6.140  17.962  0.00  0.00    +0.000 A 
ATOM      3  C   UNL     1       3.754   7.290  17.620  0.00  0.00    +0.000 A 
ATOM      4  C   UNL     1       2.492   7.517  18.163  0.00  0.00    +0.000 A 
ATOM      5  C   UNL     1       1.947   6.601  19.059  0.00  0.00    +0.000 A 
ATOM      6  C   UNL     1       2.644   5.434  19.403  0.00  0.00    +0.000 A 
ATOM      7  C   UNL     1       3.902   5.197  18.825  0.00  0.00    +0.000 A 
BRANCH   6   8
ATOM      8  C   UNL     1       2.077   4.476  20.417  0.00  0.00    +0.000 C 
ATOM      9  F   UNL     1       2.536   4.699  21.682  0.00  0.00    +0.000 F 
ATOM     10  F   UNL     1       0.718   4.534  20.501  0.00  0.00    +0.000 F 
ATOM     11  F   UNL     1       2.380   3.176  20.141  0.00  0.00    +0.000 F 
ENDBRANCH   6   8
ENDBRANCH   1   2
BRANCH   1  12
ATOM     12  N   UNL     1       6.903   6.725  18.342  0.00  0.00    +0.000 NA
ATOM     13  C   UNL     1       7.857   5.836  19.021  0.00  0.00    +0.000 C 
ATOM     14  C   UNL     1       7.678   7.680  17.533  0.00  0.00    +0.000 C 
ENDBRANCH   1  12
BRANCH   1  15
ATOM     15  C   UNL     1       6.209   4.404  17.469  0.00  0.00    +0.000 C 
BRANCH  15  19
ATOM     16  N   UNL     1       6.025   3.381  13.973  0.00  0.00    +0.000 N 
ATOM     17  C   UNL     1       6.495   4.038  15.068  0.00  0.00    +0.000 C 
ATOM     18  O   UNL     1       7.381   4.889  14.999  0.00  0.00    +0.000 OA
ATOM     19  N   UNL     1       5.846   3.733  16.222  0.00  0.00    +0.000 N 
ATOM     20  H   UNL     1       5.578   2.483  14.099  0.00  0.00    +0.000 HD
ATOM     21  H   UNL     1       5.442   2.809  16.282  0.00  0.00    +0.000 HD
BRANCH  16  22
ATOM     22  C   UNL     1       6.588   3.668  12.665  0.00  0.00    +0.000 C 
BRANCH  22  24
ATOM     23  C   UNL     1       5.988   1.566  11.409  0.00  0.00    +0.000 C 
ATOM     24  C   UNL     1       5.766   3.071  11.517  0.00  0.00    +0.000 C 
BRANCH  24  25
ATOM     25  O   UNL     1       4.372   3.324  11.737  0.00  0.00    +0.000 OA
ATOM     26  H   UNL     1       3.987   3.611  10.893  0.00  0.00    +0.000 HD
ENDBRANCH  24  25
ENDBRANCH  22  24
ENDBRANCH  16  22
ENDBRANCH  15  19
ENDBRANCH   1  15
TORSDOF 8
ENDMDL
MODEL 9
REMARK VINA RESULT:      -7.0      4.104      6.987
REMARK  Name = 
REMARK  11 active torsions:
REMARK  status: ('A' for Active; 'I' for Inactive)
REMARK    1  A    between atoms: C_1  and  C_2
REMARK    2  A    between atoms: C_2  and  O_3
REMARK    3  A    between atoms: C_2  and  C_4
REMARK    4  A    between atoms: C_4  and  N_5
REMARK    5  A    between atoms: N_8  and  C_9
REMARK    6  A    between atoms: C_9  and  C_10
REMARK    7  A    between atoms: C_10  and  C_11
REMARK    8  A    between atoms: C_10  and  N_21
REMARK    9  A    between atoms: C_15  and  C_16
REMARK   10  A    between atoms: N_21  and  C_22
REMARK   11  A    between atoms: N_21  and  C_23
REMARK                            x       y       z     vdW  Elec       q    Type
REMARK                         _______ _______ _______ _____ _____    ______ ____
ROOT
ATOM      1  C   UNL     1       6.167   5.858  17.344  0.00  0.00    +0.000 C 
ENDROOT
BRANCH   1   2
ATOM      2  C   UNL     1       4.742   5.543  17.821  0.00  0.00    +0.000 A 
ATOM      3  C   UNL     1       3.739   6.527  17.806  0.00  0.00    +0.000 A 
ATOM      4  C   UNL     1       2.491   6.277  18.373  0.00  0.00    +0.000 A 
ATOM      5  C   UNL     1       2.233   5.044  18.966  0.00  0.00    +0.000 A 
ATOM      6  C   UNL     1       3.208   4.036  18.978  0.00  0.00    +0.000 A 
ATOM      7  C   UNL     1       4.452   4.285  18.374  0.00  0.00    +0.000 A 
BRANCH   6   8
ATOM      8  C   UNL     1       2.945   2.726  19.671  0.00  0.00    +0.000 C 
ATOM      9  F   UNL     1       3.504   2.655  20.914  0.00  0.00    +0.000 F 
ATOM     10  F   UNL     1       1.617   2.475  19.849  0.00  0.00    +0.000 F 
ATOM     11  F   UNL     1       3.439   1.657  18.985  0.00  0.00    +0.000 F 
ENDBRANCH   6   8
ENDBRANCH   1   2
BRANCH   1  12
ATOM     12  N   UNL     1       6.898   6.752  18.296  0.00  0.00    +0.000 NA
ATOM     13  C   UNL     1       7.822   5.993  19.151  0.00  0.00    +0.000 C 
ATOM     14  C   UNL     1       7.684   7.768  17.578  0.00  0.00    +0.000 C 
ENDBRANCH   1  12
BRANCH   1  15
ATOM     15  C   UNL     1       6.877   4.473  17.097  0.00  0.00    +0.000 C 
BRANCH  15  19
ATOM     16  N   UNL     1       6.211   3.385  13.680  0.00  0.00    +0.000 N 
ATOM     17  C   UNL     1       6.761   4.128  14.679  0.00  0.00    +0.000 C 
ATOM     18  O   UNL     1       7.460   5.116  14.459  0.00  0.00    +0.000 OA
ATOM     19  N   UNL     1       6.404   3.733  15.929  0.00  0.00    +0.000 N 
ATOM     20  H   UNL     1       5.954   2.426  13.871  0.00  0.00    +0.000 HD
ATOM     21  H   UNL     1       6.182   2.754  16.047  0.00  0.00    +0.000 HD
BRANCH  16  22
ATOM     22  C   UNL     1       6.458   3.746  12.295  0.00  0.00    +0.000 C 
BRANCH  22  24
ATOM     23  C   UNL     1       5.964   1.451  11.375  0.00  0.00    +0.000 C 
ATOM     24  C   UNL     1       5.613   2.934  11.306  0.00  0.00    +0.000 C 
BRANCH  24  25
ATOM     25  O   UNL     1       4.221   3.101  11.608  0.00  0.00    +0.000 OA
ATOM     26  H   UNL     1       3.886   2.251  11.938  0.00  0.00    +0.000 HD
ENDBRANCH  24  25
ENDBRANCH  22  24
ENDBRANCH  16  22
ENDBRANCH  15  19
ENDBRANCH   1  15
TORSDOF 8
ENDMDL
