MODEL 1
REMARK VINA RESULT:      -6.9      0.000      0.000
REMARK  Name = 
REMARK  9 active torsions:
REMARK  status: ('A' for Active; 'I' for Inactive)
REMARK    1  A    between atoms: C_1  and  C_2
REMARK    2  A    between atoms: C_2  and  C_3
REMARK    3  A    between atoms: N_7  and  C_8
REMARK    4  A    between atoms: C_8  and  C_9
REMARK    5  A    between atoms: C_8  and  C_11
REMARK    6  A    between atoms: C_9  and  C_10
REMARK    7  A    between atoms: C_11  and  C_12
REMARK    8  A    between atoms: N_15  and  C_16
REMARK    9  A    between atoms: N_18  and  C_19
REMARK                            x       y       z     vdW  Elec       q    Type
REMARK                         _______ _______ _______ _____ _____    ______ ____
ROOT
ATOM      1  C   UNL     1       5.246   6.685  17.492  0.00  0.00    +0.000 A 
ATOM      2  N   UNL     1       4.402   7.228  18.348  0.00  0.00    +0.000 NA
ATOM      3  C   UNL     1       3.643   6.217  18.807  0.00  0.00    +0.000 A 
ATOM      4  C   UNL     1       4.018   5.005  18.272  0.00  0.00    +0.000 A 
ATOM      5  N   UNL     1       5.027   5.306  17.366  0.00  0.00    +0.000 N 
ATOM      6  C   UNL     1       3.284   3.805  18.564  0.00  0.00    +0.000 C 
ATOM      7  O   UNL     1       3.629   2.665  18.291  0.00  0.00    +0.000 OA
ATOM      8  N   UNL     1       2.056   4.095  19.135  0.00  0.00    +0.000 N 
ATOM      9  C   UNL     1       0.958   3.162  19.065  0.00  0.00    +0.000 C 
ATOM     10  C   UNL     1       2.017   5.118  20.161  0.00  0.00    +0.000 C 
ATOM     11  N   UNL     1       2.599   6.363  19.666  0.00  0.00    +0.000 N 
ENDROOT
BRANCH  11  12
ATOM     12  C   UNL     1       1.916   7.565  19.994  0.00  0.00    +0.000 A 
ATOM     13  C   UNL     1       1.562   7.802  21.342  0.00  0.00    +0.000 A 
ATOM     14  C   UNL     1       0.953   8.988  21.760  0.00  0.00    +0.000 A 
ATOM     15  C   UNL     1       0.685   9.985  20.835  0.00  0.00    +0.000 A 
ATOM     16 CL   UNL     1      -0.037  11.460  21.344  0.00  0.00    +0.000 Cl
ATOM     17  C   UNL     1       0.988   9.790  19.494  0.00  0.00    +0.000 A 
ATOM     18  C   UNL     1       1.571   8.585  19.070  0.00  0.00    +0.000 A 
ATOM     19 CL   UNL     1       1.745   8.423  17.350  0.00  0.00    +0.000 Cl
ENDBRANCH  11  12
BRANCH   1  21
ATOM     20  C   UNL     1       7.469   7.780  17.671  0.00  0.00    +0.000 C 
ATOM     21  C   UNL     1       6.253   7.532  16.780  0.00  0.00    +0.000 C 
ENDBRANCH   1  21
BRANCH   5  22
ATOM     22  C   UNL     1       5.667   4.439  16.366  0.00  0.00    +0.000 C 
BRANCH  22  23
ATOM     23  C   UNL     1       5.313   4.825  14.907  0.00  0.00    +0.000 C 
ATOM     24  C   UNL     1       5.980   4.007  13.816  0.00  0.00    +0.000 C 
ENDBRANCH  22  23
BRANCH  22  25
ATOM     25  C   UNL     1       7.215   4.276  16.406  0.00  0.00    +0.000 C 
ATOM     26  C   UNL     1       7.888   4.362  17.764  0.00  0.00    +0.000 C 
ENDBRANCH  22  25
ENDBRANCH   5  22
TORSDOF 5
ENDMDL
MODEL 2
REMARK VINA RESULT:      -6.8      1.365      1.759
REMARK  Name = 
REMARK  9 active torsions:
REMARK  status: ('A' for Active; 'I' for Inactive)
REMARK    1  A    between atoms: C_1  and  C_2
REMARK    2  A    between atoms: C_2  and  C_3
REMARK    3  A    between atoms: N_7  and  C_8
REMARK    4  A    between atoms: C_8  and  C_9
REMARK    5  A    between atoms: C_8  and  C_11
REMARK    6  A    between atoms: C_9  and  C_10
REMARK    7  A    between atoms: C_11  and  C_12
REMARK    8  A    between atoms: N_15  and  C_16
REMARK    9  A    between atoms: N_18  and  C_19
REMARK                            x       y       z     vdW  Elec       q    Type
REMARK                         _______ _______ _______ _____ _____    ______ ____
ROOT
ATOM      1  C   UNL     1       5.191   6.755  17.513  0.00  0.00    +0.000 A 
ATOM      2  N   UNL     1       4.259   7.500  18.074  0.00  0.00    +0.000 NA
ATOM      3  C   UNL     1       3.514   6.661  18.815  0.00  0.00    +0.000 A 
ATOM      4  C   UNL     1       3.986   5.369  18.761  0.00  0.00    +0.000 A 
ATOM      5  N   UNL     1       5.047   5.406  17.867  0.00  0.00    +0.000 N 
ATOM      6  C   UNL     1       3.287   4.296  19.414  0.00  0.00    +0.000 C 
ATOM      7  O   UNL     1       3.704   3.159  19.579  0.00  0.00    +0.000 OA
ATOM      8  N   UNL     1       2.006   4.678  19.776  0.00  0.00    +0.000 N 
ATOM      9  C   UNL     1       0.961   3.704  19.976  0.00  0.00    +0.000 C 
ATOM     10  C   UNL     1       1.840   5.988  20.373  0.00  0.00    +0.000 C 
ATOM     11  N   UNL     1       2.401   7.021  19.507  0.00  0.00    +0.000 N 
ENDROOT
BRANCH  11  12
ATOM     12  C   UNL     1       1.640   8.212  19.352  0.00  0.00    +0.000 A 
ATOM     13  C   UNL     1       1.344   8.666  18.047  0.00  0.00    +0.000 A 
ATOM     14  C   UNL     1       0.543   9.787  17.807  0.00  0.00    +0.000 A 
ATOM     15  C   UNL     1       0.004  10.487  18.875  0.00  0.00    +0.000 A 
ATOM     16 CL   UNL     1      -1.006  11.848  18.590  0.00  0.00    +0.000 Cl
ATOM     17  C   UNL     1       0.289  10.097  20.177  0.00  0.00    +0.000 A 
ATOM     18  C   UNL     1       1.119   8.991  20.417  0.00  0.00    +0.000 A 
ATOM     19 CL   UNL     1       1.511   8.721  22.087  0.00  0.00    +0.000 Cl
ENDBRANCH  11  12
BRANCH   1  21
ATOM     20  C   UNL     1       7.320   8.033  17.423  0.00  0.00    +0.000 C 
ATOM     21  C   UNL     1       6.211   7.372  16.607  0.00  0.00    +0.000 C 
ENDBRANCH   1  21
BRANCH   5  22
ATOM     22  C   UNL     1       5.802   4.294  17.273  0.00  0.00    +0.000 C 
BRANCH  22  23
ATOM     23  C   UNL     1       5.376   3.974  15.817  0.00  0.00    +0.000 C 
ATOM     24  C   UNL     1       6.440   4.161  14.750  0.00  0.00    +0.000 C 
ENDBRANCH  22  23
BRANCH  22  25
ATOM     25  C   UNL     1       7.357   4.375  17.260  0.00  0.00    +0.000 C 
ATOM     26  C   UNL     1       8.043   4.780  18.552  0.00  0.00    +0.000 C 
ENDBRANCH  22  25
ENDBRANCH   5  22
TORSDOF 5
ENDMDL
MODEL 3
REMARK VINA RESULT:      -6.5      7.610     10.486
REMARK  Name = 
REMARK  9 active torsions:
REMARK  status: ('A' for Active; 'I' for Inactive)
REMARK    1  A    between atoms: C_1  and  C_2
REMARK    2  A    between atoms: C_2  and  C_3
REMARK    3  A    between atoms: N_7  and  C_8
REMARK    4  A    between atoms: C_8  and  C_9
REMARK    5  A    between atoms: C_8  and  C_11
REMARK    6  A    between atoms: C_9  and  C_10
REMARK    7  A    between atoms: C_11  and  C_12
REMARK    8  A    between atoms: N_15  and  C_16
REMARK    9  A    between atoms: N_18  and  C_19
REMARK                            x       y       z     vdW  Elec       q    Type
REMARK                         _______ _______ _______ _____ _____    ______ ____
ROOT
ATOM      1  C   UNL     1      -3.687  11.521  17.650  0.00  0.00    +0.000 A 
ATOM      2  N   UNL     1      -2.428  11.773  17.951  0.00  0.00    +0.000 NA
ATOM      3  C   UNL     1      -2.430  12.171  19.236  0.00  0.00    +0.000 A 
ATOM      4  C   UNL     1      -3.694  12.144  19.782  0.00  0.00    +0.000 A 
ATOM      5  N   UNL     1      -4.533  11.777  18.738  0.00  0.00    +0.000 N 
ATOM      6  C   UNL     1      -3.934  12.611  21.120  0.00  0.00    +0.000 C 
ATOM      7  O   UNL     1      -4.966  12.469  21.757  0.00  0.00    +0.000 OA
ATOM      8  N   UNL     1      -2.858  13.341  21.597  0.00  0.00    +0.000 N 
ATOM      9  C   UNL     1      -3.019  14.308  22.656  0.00  0.00    +0.000 C 
ATOM     10  C   UNL     1      -1.529  12.821  21.345  0.00  0.00    +0.000 C 
ATOM     11  N   UNL     1      -1.331  12.592  19.916  0.00  0.00    +0.000 N 
ENDROOT
BRANCH  11  12
ATOM     12  C   UNL     1      -0.081  12.989  19.370  0.00  0.00    +0.000 A 
ATOM     13  C   UNL     1       0.187  14.368  19.214  0.00  0.00    +0.000 A 
ATOM     14  C   UNL     1       1.417  14.845  18.751  0.00  0.00    +0.000 A 
ATOM     15  C   UNL     1       2.426  13.949  18.435  0.00  0.00    +0.000 A 
ATOM     16 CL   UNL     1       3.951  14.527  17.892  0.00  0.00    +0.000 Cl
ATOM     17  C   UNL     1       2.203  12.583  18.543  0.00  0.00    +0.000 A 
ATOM     18  C   UNL     1       0.957  12.104  18.979  0.00  0.00    +0.000 A 
ATOM     19 CL   UNL     1       0.774  10.379  18.913  0.00  0.00    +0.000 Cl
ENDBRANCH  11  12
BRANCH   1  21
ATOM     20  C   UNL     1      -2.942  10.192  15.687  0.00  0.00    +0.000 C 
ATOM     21  C   UNL     1      -4.059  11.050  16.278  0.00  0.00    +0.000 C 
ENDBRANCH   1  21
BRANCH   5  22
ATOM     22  C   UNL     1      -6.002  11.775  18.683  0.00  0.00    +0.000 C 
BRANCH  22  23
ATOM     23  C   UNL     1      -6.569  12.580  17.485  0.00  0.00    +0.000 C 
ATOM     24  C   UNL     1      -7.695  13.548  17.801  0.00  0.00    +0.000 C 
ENDBRANCH  22  23
BRANCH  22  25
ATOM     25  C   UNL     1      -6.742  10.405  18.673  0.00  0.00    +0.000 C 
ATOM     26  C   UNL     1      -7.193   9.849  20.011  0.00  0.00    +0.000 C 
ENDBRANCH  22  25
ENDBRANCH   5  22
TORSDOF 5
ENDMDL
MODEL 4
REMARK VINA RESULT:      -6.5      7.686     10.675
REMARK  Name = 
REMARK  9 active torsions:
REMARK  status: ('A' for Active; 'I' for Inactive)
REMARK    1  A    between atoms: C_1  and  C_2
REMARK    2  A    between atoms: C_2  and  C_3
REMARK    3  A    between atoms: N_7  and  C_8
REMARK    4  A    between atoms: C_8  and  C_9
REMARK    5  A    between atoms: C_8  and  C_11
REMARK    6  A    between atoms: C_9  and  C_10
REMARK    7  A    between atoms: C_11  and  C_12
REMARK    8  A    between atoms: N_15  and  C_16
REMARK    9  A    between atoms: N_18  and  C_19
REMARK                            x       y       z     vdW  Elec       q    Type
REMARK                         _______ _______ _______ _____ _____    ______ ____
ROOT
ATOM      1  C   UNL     1      -3.933  11.216  17.484  0.00  0.00    +0.000 A 
ATOM      2  N   UNL     1      -2.716  11.502  17.903  0.00  0.00    +0.000 NA
ATOM      3  C   UNL     1      -2.869  12.108  19.094  0.00  0.00    +0.000 A 
ATOM      4  C   UNL     1      -4.192  12.184  19.467  0.00  0.00    +0.000 A 
ATOM      5  N   UNL     1      -4.903  11.657  18.396  0.00  0.00    +0.000 N 
ATOM      6  C   UNL     1      -4.586  12.869  20.667  0.00  0.00    +0.000 C 
ATOM      7  O   UNL     1      -5.695  12.845  21.179  0.00  0.00    +0.000 OA
ATOM      8  N   UNL     1      -3.557  13.658  21.156  0.00  0.00    +0.000 N 
ATOM      9  C   UNL     1      -3.821  14.789  22.011  0.00  0.00    +0.000 C 
ATOM     10  C   UNL     1      -2.224  13.090  21.168  0.00  0.00    +0.000 C 
ATOM     11  N   UNL     1      -1.853  12.624  19.834  0.00  0.00    +0.000 N 
ENDROOT
BRANCH  11  12
ATOM     12  C   UNL     1      -0.531  12.913  19.399  0.00  0.00    +0.000 A 
ATOM     13  C   UNL     1      -0.190  14.251  19.098  0.00  0.00    +0.000 A 
ATOM     14  C   UNL     1       1.104  14.631  18.731  0.00  0.00    +0.000 A 
ATOM     15  C   UNL     1       2.106  13.675  18.662  0.00  0.00    +0.000 A 
ATOM     16 CL   UNL     1       3.707  14.136  18.240  0.00  0.00    +0.000 Cl
ATOM     17  C   UNL     1       1.815  12.342  18.920  0.00  0.00    +0.000 A 
ATOM     18  C   UNL     1       0.508  11.958  19.257  0.00  0.00    +0.000 A 
ATOM     19 CL   UNL     1       0.263  10.244  19.397  0.00  0.00    +0.000 Cl
ENDBRANCH  11  12
BRANCH   1  21
ATOM     20  C   UNL     1      -2.935  10.738  15.260  0.00  0.00    +0.000 C 
ATOM     21  C   UNL     1      -4.142  10.527  16.172  0.00  0.00    +0.000 C 
ENDBRANCH   1  21
BRANCH   5  22
ATOM     22  C   UNL     1      -6.352  11.661  18.151  0.00  0.00    +0.000 C 
BRANCH  22  23
ATOM     23  C   UNL     1      -7.152  10.852  19.205  0.00  0.00    +0.000 C 
ATOM     24  C   UNL     1      -6.829   9.372  19.301  0.00  0.00    +0.000 C 
ENDBRANCH  22  23
BRANCH  22  25
ATOM     25  C   UNL     1      -7.079  13.031  18.014  0.00  0.00    +0.000 C 
ATOM     26  C   UNL     1      -6.719  13.892  16.818  0.00  0.00    +0.000 C 
ENDBRANCH  22  25
ENDBRANCH   5  22
TORSDOF 5
ENDMDL
MODEL 5
REMARK VINA RESULT:      -6.4      3.137      6.783
REMARK  Name = 
REMARK  9 active torsions:
REMARK  status: ('A' for Active; 'I' for Inactive)
REMARK    1  A    between atoms: C_1  and  C_2
REMARK    2  A    between atoms: C_2  and  C_3
REMARK    3  A    between atoms: N_7  and  C_8
REMARK    4  A    between atoms: C_8  and  C_9
REMARK    5  A    between atoms: C_8  and  C_11
REMARK    6  A    between atoms: C_9  and  C_10
REMARK    7  A    between atoms: C_11  and  C_12
REMARK    8  A    between atoms: N_15  and  C_16
REMARK    9  A    between atoms: N_18  and  C_19
REMARK                            x       y       z     vdW  Elec       q    Type
REMARK                         _______ _______ _______ _____ _____    ______ ____
ROOT
ATOM      1  C   UNL     1       3.958   3.332  19.549  0.00  0.00    +0.000 A 
ATOM      2  N   UNL     1       4.704   3.788  18.562  0.00  0.00    +0.000 NA
ATOM      3  C   UNL     1       4.337   5.070  18.384  0.00  0.00    +0.000 A 
ATOM      4  C   UNL     1       3.371   5.458  19.285  0.00  0.00    +0.000 A 
ATOM      5  N   UNL     1       3.072   4.314  20.014  0.00  0.00    +0.000 N 
ATOM      6  C   UNL     1       2.776   6.764  19.218  0.00  0.00    +0.000 C 
ATOM      7  O   UNL     1       2.051   7.270  20.061  0.00  0.00    +0.000 OA
ATOM      8  N   UNL     1       3.055   7.381  18.009  0.00  0.00    +0.000 N 
ATOM      9  C   UNL     1       2.210   8.429  17.489  0.00  0.00    +0.000 C 
ATOM     10  C   UNL     1       4.409   7.283  17.503  0.00  0.00    +0.000 C 
ATOM     11  N   UNL     1       4.822   5.885  17.411  0.00  0.00    +0.000 N 
ENDROOT
BRANCH  11  12
ATOM     12  C   UNL     1       5.534   5.501  16.242  0.00  0.00    +0.000 A 
ATOM     13  C   UNL     1       4.907   4.635  15.318  0.00  0.00    +0.000 A 
ATOM     14  C   UNL     1       5.508   4.265  14.111  0.00  0.00    +0.000 A 
ATOM     15  C   UNL     1       6.761   4.762  13.788  0.00  0.00    +0.000 A 
ATOM     16 CL   UNL     1       7.496   4.336  12.293  0.00  0.00    +0.000 Cl
ATOM     17  C   UNL     1       7.430   5.594  14.676  0.00  0.00    +0.000 A 
ATOM     18  C   UNL     1       6.839   5.939  15.901  0.00  0.00    +0.000 A 
ATOM     19 CL   UNL     1       7.856   6.853  16.971  0.00  0.00    +0.000 Cl
ENDBRANCH  11  12
BRANCH   1  21
ATOM     20  C   UNL     1       3.914   0.947  18.855  0.00  0.00    +0.000 C 
ATOM     21  C   UNL     1       4.103   1.918  20.018  0.00  0.00    +0.000 C 
ENDBRANCH   1  21
BRANCH   5  22
ATOM     22  C   UNL     1       1.984   4.081  20.974  0.00  0.00    +0.000 C 
BRANCH  22  23
ATOM     23  C   UNL     1       0.640   3.709  20.296  0.00  0.00    +0.000 C 
ATOM     24  C   UNL     1       0.737   2.926  19.000  0.00  0.00    +0.000 C 
ENDBRANCH  22  23
BRANCH  22  25
ATOM     25  C   UNL     1       2.203   3.033  22.105  0.00  0.00    +0.000 C 
ATOM     26  C   UNL     1       1.074   2.057  22.375  0.00  0.00    +0.000 C 
ENDBRANCH  22  25
ENDBRANCH   5  22
TORSDOF 5
ENDMDL
MODEL 6
REMARK VINA RESULT:      -6.2      7.840     10.730
REMARK  Name = 
REMARK  9 active torsions:
REMARK  status: ('A' for Active; 'I' for Inactive)
REMARK    1  A    between atoms: C_1  and  C_2
REMARK    2  A    between atoms: C_2  and  C_3
REMARK    3  A    between atoms: N_7  and  C_8
REMARK    4  A    between atoms: C_8  and  C_9
REMARK    5  A    between atoms: C_8  and  C_11
REMARK    6  A    between atoms: C_9  and  C_10
REMARK    7  A    between atoms: C_11  and  C_12
REMARK    8  A    between atoms: N_15  and  C_16
REMARK    9  A    between atoms: N_18  and  C_19
REMARK                            x       y       z     vdW  Elec       q    Type
REMARK                         _______ _______ _______ _____ _____    ______ ____
ROOT
ATOM      1  C   UNL     1      -3.909  11.453  17.583  0.00  0.00    +0.000 A 
ATOM      2  N   UNL     1      -2.700  11.739  18.026  0.00  0.00    +0.000 NA
ATOM      3  C   UNL     1      -2.861  12.150  19.297  0.00  0.00    +0.000 A 
ATOM      4  C   UNL     1      -4.179  12.098  19.692  0.00  0.00    +0.000 A 
ATOM      5  N   UNL     1      -4.882  11.700  18.562  0.00  0.00    +0.000 N 
ATOM      6  C   UNL     1      -4.585  12.573  20.986  0.00  0.00    +0.000 C 
ATOM      7  O   UNL     1      -5.681  12.413  21.501  0.00  0.00    +0.000 OA
ATOM      8  N   UNL     1      -3.588  13.334  21.576  0.00  0.00    +0.000 N 
ATOM      9  C   UNL     1      -3.894  14.308  22.596  0.00  0.00    +0.000 C 
ATOM     10  C   UNL     1      -2.228  12.843  21.488  0.00  0.00    +0.000 C 
ATOM     11  N   UNL     1      -1.859  12.604  20.095  0.00  0.00    +0.000 N 
ENDROOT
BRANCH  11  12
ATOM     12  C   UNL     1      -0.562  13.025  19.693  0.00  0.00    +0.000 A 
ATOM     13  C   UNL     1       0.442  12.050  19.503  0.00  0.00    +0.000 A 
ATOM     14  C   UNL     1       1.722  12.371  19.041  0.00  0.00    +0.000 A 
ATOM     15  C   UNL     1       2.034  13.689  18.746  0.00  0.00    +0.000 A 
ATOM     16 CL   UNL     1       3.595  14.091  18.149  0.00  0.00    +0.000 Cl
ATOM     17  C   UNL     1       1.090  14.689  18.943  0.00  0.00    +0.000 A 
ATOM     18  C   UNL     1      -0.184  14.368  19.437  0.00  0.00    +0.000 A 
ATOM     19 CL   UNL     1      -1.199  15.734  19.780  0.00  0.00    +0.000 Cl
ENDBRANCH  11  12
BRANCH   1  21
ATOM     20  C   UNL     1      -2.924  10.096  15.750  0.00  0.00    +0.000 C 
ATOM     21  C   UNL     1      -4.107  10.959  16.184  0.00  0.00    +0.000 C 
ENDBRANCH   1  21
BRANCH   5  22
ATOM     22  C   UNL     1      -6.334  11.662  18.337  0.00  0.00    +0.000 C 
BRANCH  22  23
ATOM     23  C   UNL     1      -7.091  10.795  19.376  0.00  0.00    +0.000 C 
ATOM     24  C   UNL     1      -6.873   9.296  19.285  0.00  0.00    +0.000 C 
ENDBRANCH  22  23
BRANCH  22  25
ATOM     25  C   UNL     1      -7.108  13.011  18.252  0.00  0.00    +0.000 C 
ATOM     26  C   UNL     1      -6.850  13.885  17.039  0.00  0.00    +0.000 C 
ENDBRANCH  22  25
ENDBRANCH   5  22
TORSDOF 5
ENDMDL
MODEL 7
REMARK VINA RESULT:      -6.2      0.595      1.531
REMARK  Name = 
REMARK  9 active torsions:
REMARK  status: ('A' for Active; 'I' for Inactive)
REMARK    1  A    between atoms: C_1  and  C_2
REMARK    2  A    between atoms: C_2  and  C_3
REMARK    3  A    between atoms: N_7  and  C_8
REMARK    4  A    between atoms: C_8  and  C_9
REMARK    5  A    between atoms: C_8  and  C_11
REMARK    6  A    between atoms: C_9  and  C_10
REMARK    7  A    between atoms: C_11  and  C_12
REMARK    8  A    between atoms: N_15  and  C_16
REMARK    9  A    between atoms: N_18  and  C_19
REMARK                            x       y       z     vdW  Elec       q    Type
REMARK                         _______ _______ _______ _____ _____    ______ ____
ROOT
ATOM      1  C   UNL     1       5.555   7.155  17.397  0.00  0.00    +0.000 A 
ATOM      2  N   UNL     1       4.642   7.515  18.278  0.00  0.00    +0.000 NA
ATOM      3  C   UNL     1       3.880   6.426  18.485  0.00  0.00    +0.000 A 
ATOM      4  C   UNL     1       4.323   5.342  17.760  0.00  0.00    +0.000 A 
ATOM      5  N   UNL     1       5.382   5.821  17.000  0.00  0.00    +0.000 N 
ATOM      6  C   UNL     1       3.603   4.099  17.770  0.00  0.00    +0.000 C 
ATOM      7  O   UNL     1       3.996   3.035  17.314  0.00  0.00    +0.000 OA
ATOM      8  N   UNL     1       2.332   4.259  18.297  0.00  0.00    +0.000 N 
ATOM      9  C   UNL     1       1.266   3.341  17.976  0.00  0.00    +0.000 C 
ATOM     10  C   UNL     1       2.198   5.070  19.490  0.00  0.00    +0.000 C 
ATOM     11  N   UNL     1       2.778   6.393  19.279  0.00  0.00    +0.000 N 
ENDROOT
BRANCH  11  12
ATOM     12  C   UNL     1       2.043   7.503  19.777  0.00  0.00    +0.000 A 
ATOM     13  C   UNL     1       1.697   7.531  21.147  0.00  0.00    +0.000 A 
ATOM     14  C   UNL     1       1.038   8.617  21.732  0.00  0.00    +0.000 A 
ATOM     15  C   UNL     1       0.709   9.718  20.957  0.00  0.00    +0.000 A 
ATOM     16 CL   UNL     1      -0.075  11.070  21.672  0.00  0.00    +0.000 Cl
ATOM     17  C   UNL     1       1.002   9.727  19.600  0.00  0.00    +0.000 A 
ATOM     18  C   UNL     1       1.635   8.623  19.008  0.00  0.00    +0.000 A 
ATOM     19 CL   UNL     1       1.793   8.711  17.281  0.00  0.00    +0.000 Cl
ENDBRANCH  11  12
BRANCH   1  21
ATOM     20  C   UNL     1       7.841   8.043  17.793  0.00  0.00    +0.000 C 
ATOM     21  C   UNL     1       6.585   8.135  16.929  0.00  0.00    +0.000 C 
ENDBRANCH   1  21
BRANCH   5  22
ATOM     22  C   UNL     1       6.110   5.167  15.904  0.00  0.00    +0.000 C 
BRANCH  22  23
ATOM     23  C   UNL     1       7.152   4.129  16.397  0.00  0.00    +0.000 C 
ATOM     24  C   UNL     1       7.826   4.433  17.723  0.00  0.00    +0.000 C 
ENDBRANCH  22  23
BRANCH  22  25
ATOM     25  C   UNL     1       5.291   4.459  14.786  0.00  0.00    +0.000 C 
ATOM     26  C   UNL     1       6.067   3.862  13.627  0.00  0.00    +0.000 C 
ENDBRANCH  22  25
ENDBRANCH   5  22
TORSDOF 5
ENDMDL
MODEL 8
REMARK VINA RESULT:      -6.2      8.106     10.764
REMARK  Name = 
REMARK  9 active torsions:
REMARK  status: ('A' for Active; 'I' for Inactive)
REMARK    1  A    between atoms: C_1  and  C_2
REMARK    2  A    between atoms: C_2  and  C_3
REMARK    3  A    between atoms: N_7  and  C_8
REMARK    4  A    between atoms: C_8  and  C_9
REMARK    5  A    between atoms: C_8  and  C_11
REMARK    6  A    between atoms: C_9  and  C_10
REMARK    7  A    between atoms: C_11  and  C_12
REMARK    8  A    between atoms: N_15  and  C_16
REMARK    9  A    between atoms: N_18  and  C_19
REMARK                            x       y       z     vdW  Elec       q    Type
REMARK                         _______ _______ _______ _____ _____    ______ ____
ROOT
ATOM      1  C   UNL     1      -3.786  11.560  17.972  0.00  0.00    +0.000 A 
ATOM      2  N   UNL     1      -2.568  11.940  18.305  0.00  0.00    +0.000 NA
ATOM      3  C   UNL     1      -2.649  12.361  19.580  0.00  0.00    +0.000 A 
ATOM      4  C   UNL     1      -3.920  12.221  20.088  0.00  0.00    +0.000 A 
ATOM      5  N   UNL     1      -4.687  11.753  19.029  0.00  0.00    +0.000 N 
ATOM      6  C   UNL     1      -4.248  12.689  21.407  0.00  0.00    +0.000 C 
ATOM      7  O   UNL     1      -5.281  12.459  22.017  0.00  0.00    +0.000 OA
ATOM      8  N   UNL     1      -3.263  13.530  21.900  0.00  0.00    +0.000 N 
ATOM      9  C   UNL     1      -3.551  14.498  22.930  0.00  0.00    +0.000 C 
ATOM     10  C   UNL     1      -1.883  13.138  21.699  0.00  0.00    +0.000 C 
ATOM     11  N   UNL     1      -1.618  12.901  20.282  0.00  0.00    +0.000 N 
ENDROOT
BRANCH  11  12
ATOM     12  C   UNL     1      -0.396  13.408  19.764  0.00  0.00    +0.000 A 
ATOM     13  C   UNL     1       0.673  12.511  19.541  0.00  0.00    +0.000 A 
ATOM     14  C   UNL     1       1.884  12.914  18.969  0.00  0.00    +0.000 A 
ATOM     15  C   UNL     1       2.058  14.237  18.593  0.00  0.00    +0.000 A 
ATOM     16 CL   UNL     1       3.531  14.736  17.861  0.00  0.00    +0.000 Cl
ATOM     17  C   UNL     1       1.048  15.163  18.817  0.00  0.00    +0.000 A 
ATOM     18  C   UNL     1      -0.155  14.763  19.421  0.00  0.00    +0.000 A 
ATOM     19 CL   UNL     1      -1.256  16.056  19.780  0.00  0.00    +0.000 Cl
ENDBRANCH  11  12
BRANCH   1  21
ATOM     20  C   UNL     1      -2.762  10.799  15.840  0.00  0.00    +0.000 C 
ATOM     21  C   UNL     1      -4.066  11.027  16.601  0.00  0.00    +0.000 C 
ENDBRANCH   1  21
BRANCH   5  22
ATOM     22  C   UNL     1      -6.146  11.606  18.931  0.00  0.00    +0.000 C 
BRANCH  22  23
ATOM     23  C   UNL     1      -6.749  12.319  17.693  0.00  0.00    +0.000 C 
ATOM     24  C   UNL     1      -7.772  13.404  17.976  0.00  0.00    +0.000 C 
ENDBRANCH  22  23
BRANCH  22  25
ATOM     25  C   UNL     1      -6.750  10.171  18.940  0.00  0.00    +0.000 C 
ATOM     26  C   UNL     1      -7.416   9.706  20.222  0.00  0.00    +0.000 C 
ENDBRANCH  22  25
ENDBRANCH   5  22
TORSDOF 5
ENDMDL
MODEL 9
REMARK VINA RESULT:      -6.1      5.451      9.029
REMARK  Name = 
REMARK  9 active torsions:
REMARK  status: ('A' for Active; 'I' for Inactive)
REMARK    1  A    between atoms: C_1  and  C_2
REMARK    2  A    between atoms: C_2  and  C_3
REMARK    3  A    between atoms: N_7  and  C_8
REMARK    4  A    between atoms: C_8  and  C_9
REMARK    5  A    between atoms: C_8  and  C_11
REMARK    6  A    between atoms: C_9  and  C_10
REMARK    7  A    between atoms: C_11  and  C_12
REMARK    8  A    between atoms: N_15  and  C_16
REMARK    9  A    between atoms: N_18  and  C_19
REMARK                            x       y       z     vdW  Elec       q    Type
REMARK                         _______ _______ _______ _____ _____    ______ ____
ROOT
ATOM      1  C   UNL     1       2.495  13.909  18.701  0.00  0.00    +0.000 A 
ATOM      2  N   UNL     1       2.237  12.619  18.610  0.00  0.00    +0.000 NA
ATOM      3  C   UNL     1       0.967  12.468  19.026  0.00  0.00    +0.000 A 
ATOM      4  C   UNL     1       0.386  13.672  19.356  0.00  0.00    +0.000 A 
ATOM      5  N   UNL     1       1.394  14.616  19.204  0.00  0.00    +0.000 N 
ATOM      6  C   UNL     1      -0.941  13.730  19.905  0.00  0.00    +0.000 C 
ATOM      7  O   UNL     1      -1.611  14.739  20.064  0.00  0.00    +0.000 OA
ATOM      8  N   UNL     1      -1.364  12.481  20.328  0.00  0.00    +0.000 N 
ATOM      9  C   UNL     1      -2.393  12.337  21.329  0.00  0.00    +0.000 C 
ATOM     10  C   UNL     1      -1.094  11.352  19.461  0.00  0.00    +0.000 C 
ATOM     11  N   UNL     1       0.331  11.273  19.150  0.00  0.00    +0.000 N 
ENDROOT
BRANCH  11  12
ATOM     12  C   UNL     1       0.924   9.982  19.180  0.00  0.00    +0.000 A 
ATOM     13  C   UNL     1       1.402   9.425  17.972  0.00  0.00    +0.000 A 
ATOM     14  C   UNL     1       2.061   8.193  17.924  0.00  0.00    +0.000 A 
ATOM     15  C   UNL     1       2.270   7.480  19.095  0.00  0.00    +0.000 A 
ATOM     16 CL   UNL     1       3.105   5.978  19.050  0.00  0.00    +0.000 Cl
ATOM     17  C   UNL     1       1.794   7.972  20.303  0.00  0.00    +0.000 A 
ATOM     18  C   UNL     1       1.104   9.194  20.345  0.00  0.00    +0.000 A 
ATOM     19 CL   UNL     1       0.434   9.601  21.894  0.00  0.00    +0.000 Cl
ENDBRANCH  11  12
BRANCH   1  21
ATOM     20  C   UNL     1       3.699  15.501  17.221  0.00  0.00    +0.000 C 
ATOM     21  C   UNL     1       3.839  14.442  18.313  0.00  0.00    +0.000 C 
ENDBRANCH   1  21
BRANCH   5  22
ATOM     22  C   UNL     1       1.409  16.031  19.599  0.00  0.00    +0.000 C 
BRANCH  22  23
ATOM     23  C   UNL     1       0.407  16.900  18.794  0.00  0.00    +0.000 C 
ATOM     24  C   UNL     1       1.000  18.064  18.021  0.00  0.00    +0.000 C 
ENDBRANCH  22  23
BRANCH  22  25
ATOM     25  C   UNL     1       1.183  16.387  21.098  0.00  0.00    +0.000 C 
ATOM     26  C   UNL     1       1.876  15.519  22.130  0.00  0.00    +0.000 C 
ENDBRANCH  22  25
ENDBRANCH   5  22
TORSDOF 5
ENDMDL
