MODEL 1
REMARK VINA RESULT:      -7.5      0.000      0.000
REMARK  Name = 
REMARK  6 active torsions:
REMARK  status: ('A' for Active; 'I' for Inactive)
REMARK    1  A    between atoms: C_1  and  N_2
REMARK    2  A    between atoms: C_3  and  C_5
REMARK    3  A    between atoms: C_8  and  C_9
REMARK    4  A    between atoms: C_11  and  O_12
REMARK    5  A    between atoms: O_12  and  C_13
REMARK    6  A    between atoms: C_16  and  N_17
REMARK                            x       y       z     vdW  Elec       q    Type
REMARK                         _______ _______ _______ _____ _____    ______ ____
ROOT
ATOM      1  C   UNL     1       6.722   4.549  16.349  0.00  0.00    +0.000 A 
ATOM      2  C   UNL     1       7.625   4.678  17.388  0.00  0.00    +0.000 A 
ATOM      3  C   UNL     1       6.906   4.618  18.604  0.00  0.00    +0.000 A 
ATOM      4  C   UNL     1       5.571   4.384  18.316  0.00  0.00    +0.000 A 
ATOM      5  N   UNL     1       5.484   4.374  16.937  0.00  0.00    +0.000 N 
ATOM      6  H   UNL     1       4.634   4.245  16.402  0.00  0.00    +0.000 HD
ENDROOT
BRANCH   4   7
ATOM      7  C   UNL     1       4.405   4.183  19.205  0.00  0.00    +0.000 A 
ATOM      8  C   UNL     1       3.584   5.286  19.518  0.00  0.00    +0.000 A 
ATOM      9  C   UNL     1       2.470   5.164  20.358  0.00  0.00    +0.000 A 
ATOM     10  C   UNL     1       2.173   3.926  20.916  0.00  0.00    +0.000 A 
ATOM     11  C   UNL     1       2.980   2.825  20.632  0.00  0.00    +0.000 A 
ATOM     12  C   UNL     1       4.063   2.918  19.743  0.00  0.00    +0.000 A 
BRANCH  12  13
ATOM     13  N   UNL     1       4.874   1.773  19.593  0.00  0.00    +0.000 N 
ATOM     14  H   UNL     1       4.425   0.914  19.894  0.00  0.00    +0.000 HD
ATOM     15  H   UNL     1       5.244   1.691  18.651  0.00  0.00    +0.000 HD
ENDBRANCH  12  13
BRANCH   9  16
ATOM     16  O   UNL     1       1.771   6.322  20.563  0.00  0.00    +0.000 OA
ATOM     17  C   UNL     1       2.124   7.434  19.747  0.00  0.00    +0.000 C 
ENDBRANCH   9  16
ENDBRANCH   4   7
BRANCH   1  20
ATOM     18  C   UNL     1       6.291   3.463  12.801  0.00  0.00    +0.000 C 
ATOM     19  N   UNL     1       6.187   3.614  14.228  0.00  0.00    +0.000 N 
ATOM     20  C   UNL     1       6.889   4.582  14.910  0.00  0.00    +0.000 C 
ATOM     21  O   UNL     1       7.603   5.405  14.349  0.00  0.00    +0.000 OA
ATOM     22  H   UNL     1       5.637   2.946  14.744  0.00  0.00    +0.000 HD
ENDBRANCH   1  20
TORSDOF 4
ENDMDL
MODEL 2
REMARK VINA RESULT:      -6.9      1.588      2.476
REMARK  Name = 
REMARK  6 active torsions:
REMARK  status: ('A' for Active; 'I' for Inactive)
REMARK    1  A    between atoms: C_1  and  N_2
REMARK    2  A    between atoms: C_3  and  C_5
REMARK    3  A    between atoms: C_8  and  C_9
REMARK    4  A    between atoms: C_11  and  O_12
REMARK    5  A    between atoms: O_12  and  C_13
REMARK    6  A    between atoms: C_16  and  N_17
REMARK                            x       y       z     vdW  Elec       q    Type
REMARK                         _______ _______ _______ _____ _____    ______ ____
ROOT
ATOM      1  C   UNL     1       6.698   4.661  15.825  0.00  0.00    +0.000 A 
ATOM      2  C   UNL     1       7.545   4.609  16.916  0.00  0.00    +0.000 A 
ATOM      3  C   UNL     1       6.761   4.730  18.086  0.00  0.00    +0.000 A 
ATOM      4  C   UNL     1       5.426   4.786  17.719  0.00  0.00    +0.000 A 
ATOM      5  N   UNL     1       5.420   4.771  16.337  0.00  0.00    +0.000 N 
ATOM      6  H   UNL     1       4.594   4.820  15.752  0.00  0.00    +0.000 HD
ENDROOT
BRANCH   4   7
ATOM      7  C   UNL     1       4.195   4.861  18.536  0.00  0.00    +0.000 A 
ATOM      8  C   UNL     1       3.777   3.721  19.252  0.00  0.00    +0.000 A 
ATOM      9  C   UNL     1       2.618   3.724  20.039  0.00  0.00    +0.000 A 
ATOM     10  C   UNL     1       1.843   4.876  20.101  0.00  0.00    +0.000 A 
ATOM     11  C   UNL     1       2.230   6.012  19.388  0.00  0.00    +0.000 A 
ATOM     12  C   UNL     1       3.421   6.043  18.647  0.00  0.00    +0.000 A 
BRANCH  12  13
ATOM     13  N   UNL     1       3.677   7.204  17.887  0.00  0.00    +0.000 N 
ATOM     14  H   UNL     1       2.893   7.497  17.314  0.00  0.00    +0.000 HD
ATOM     15  H   UNL     1       4.025   7.965  18.462  0.00  0.00    +0.000 HD
ENDBRANCH  12  13
BRANCH   9  16
ATOM     16  O   UNL     1       2.348   2.544  20.676  0.00  0.00    +0.000 OA
ATOM     17  C   UNL     1       1.447   2.604  21.777  0.00  0.00    +0.000 C 
ENDBRANCH   9  16
ENDBRANCH   4   7
BRANCH   1  20
ATOM     18  C   UNL     1       6.437   3.452  12.300  0.00  0.00    +0.000 C 
ATOM     19  N   UNL     1       6.254   3.664  13.711  0.00  0.00    +0.000 N 
ATOM     20  C   UNL     1       6.952   4.631  14.399  0.00  0.00    +0.000 C 
ATOM     21  O   UNL     1       7.731   5.402  13.852  0.00  0.00    +0.000 OA
ATOM     22  H   UNL     1       5.647   3.038  14.217  0.00  0.00    +0.000 HD
ENDBRANCH   1  20
TORSDOF 4
ENDMDL
MODEL 3
REMARK VINA RESULT:      -6.8      1.154      1.173
REMARK  Name = 
REMARK  6 active torsions:
REMARK  status: ('A' for Active; 'I' for Inactive)
REMARK    1  A    between atoms: C_1  and  N_2
REMARK    2  A    between atoms: C_3  and  C_5
REMARK    3  A    between atoms: C_8  and  C_9
REMARK    4  A    between atoms: C_11  and  O_12
REMARK    5  A    between atoms: O_12  and  C_13
REMARK    6  A    between atoms: C_16  and  N_17
REMARK                            x       y       z     vdW  Elec       q    Type
REMARK                         _______ _______ _______ _____ _____    ______ ____
ROOT
ATOM      1  C   UNL     1       6.660   4.561  16.055  0.00  0.00    +0.000 A 
ATOM      2  C   UNL     1       7.562   4.609  17.102  0.00  0.00    +0.000 A 
ATOM      3  C   UNL     1       6.830   4.707  18.307  0.00  0.00    +0.000 A 
ATOM      4  C   UNL     1       5.478   4.649  18.009  0.00  0.00    +0.000 A 
ATOM      5  N   UNL     1       5.404   4.589  16.630  0.00  0.00    +0.000 N 
ATOM      6  H   UNL     1       4.550   4.557  16.088  0.00  0.00    +0.000 HD
ENDROOT
BRANCH   4   7
ATOM      7  C   UNL     1       4.287   4.655  18.886  0.00  0.00    +0.000 A 
ATOM      8  C   UNL     1       3.609   5.871  19.115  0.00  0.00    +0.000 A 
ATOM      9  C   UNL     1       2.480   5.945  19.939  0.00  0.00    +0.000 A 
ATOM     10  C   UNL     1       2.022   4.793  20.568  0.00  0.00    +0.000 A 
ATOM     11  C   UNL     1       2.685   3.582  20.369  0.00  0.00    +0.000 A 
ATOM     12  C   UNL     1       3.781   3.481  19.496  0.00  0.00    +0.000 A 
BRANCH  12  13
ATOM     13  N   UNL     1       4.440   2.235  19.432  0.00  0.00    +0.000 N 
ATOM     14  H   UNL     1       4.220   1.618  20.207  0.00  0.00    +0.000 HD
ATOM     15  H   UNL     1       4.301   1.777  18.537  0.00  0.00    +0.000 HD
ENDBRANCH  12  13
BRANCH   9  16
ATOM     16  O   UNL     1       1.932   7.193  20.058  0.00  0.00    +0.000 OA
ATOM     17  C   UNL     1       2.107   8.075  18.955  0.00  0.00    +0.000 C 
ENDBRANCH   9  16
ENDBRANCH   4   7
BRANCH   1  20
ATOM     18  C   UNL     1       8.040   5.509  12.716  0.00  0.00    +0.000 C 
ATOM     19  N   UNL     1       7.780   5.387  14.126  0.00  0.00    +0.000 N 
ATOM     20  C   UNL     1       6.844   4.505  14.620  0.00  0.00    +0.000 C 
ATOM     21  O   UNL     1       6.213   3.737  13.904  0.00  0.00    +0.000 OA
ATOM     22  H   UNL     1       8.249   6.016  14.758  0.00  0.00    +0.000 HD
ENDBRANCH   1  20
TORSDOF 4
ENDMDL
MODEL 4
REMARK VINA RESULT:      -6.7      2.488      6.849
REMARK  Name = 
REMARK  6 active torsions:
REMARK  status: ('A' for Active; 'I' for Inactive)
REMARK    1  A    between atoms: C_1  and  N_2
REMARK    2  A    between atoms: C_3  and  C_5
REMARK    3  A    between atoms: C_8  and  C_9
REMARK    4  A    between atoms: C_11  and  O_12
REMARK    5  A    between atoms: O_12  and  C_13
REMARK    6  A    between atoms: C_16  and  N_17
REMARK                            x       y       z     vdW  Elec       q    Type
REMARK                         _______ _______ _______ _____ _____    ______ ____
ROOT
ATOM      1  C   UNL     1       4.281   3.849  17.897  0.00  0.00    +0.000 A 
ATOM      2  C   UNL     1       4.038   5.202  17.743  0.00  0.00    +0.000 A 
ATOM      3  C   UNL     1       4.611   5.614  16.519  0.00  0.00    +0.000 A 
ATOM      4  C   UNL     1       5.146   4.503  15.886  0.00  0.00    +0.000 A 
ATOM      5  N   UNL     1       4.956   3.449  16.760  0.00  0.00    +0.000 N 
ATOM      6  H   UNL     1       5.253   2.495  16.603  0.00  0.00    +0.000 HD
ENDROOT
BRANCH   4   7
ATOM      7  C   UNL     1       5.810   4.358  14.572  0.00  0.00    +0.000 A 
ATOM      8  C   UNL     1       5.197   3.567  13.577  0.00  0.00    +0.000 A 
ATOM      9  C   UNL     1       5.776   3.385  12.315  0.00  0.00    +0.000 A 
ATOM     10  C   UNL     1       7.000   3.982  12.038  0.00  0.00    +0.000 A 
ATOM     11  C   UNL     1       7.632   4.757  13.011  0.00  0.00    +0.000 A 
ATOM     12  C   UNL     1       7.034   5.000  14.258  0.00  0.00    +0.000 A 
BRANCH  12  13
ATOM     13  N   UNL     1       7.791   5.717  15.207  0.00  0.00    +0.000 N 
ATOM     14  H   UNL     1       7.394   6.619  15.448  0.00  0.00    +0.000 HD
ATOM     15  H   UNL     1       7.988   5.162  16.034  0.00  0.00    +0.000 HD
ENDBRANCH  12  13
BRANCH   9  16
ATOM     16  O   UNL     1       5.059   2.595  11.459  0.00  0.00    +0.000 OA
ATOM     17  C   UNL     1       3.816   3.115  10.999  0.00  0.00    +0.000 C 
ENDBRANCH   9  16
ENDBRANCH   4   7
BRANCH   1  20
ATOM     18  C   UNL     1       4.932   1.524  20.747  0.00  0.00    +0.000 C 
ATOM     19  N   UNL     1       5.056   2.495  19.692  0.00  0.00    +0.000 N 
ATOM     20  C   UNL     1       3.967   2.924  18.967  0.00  0.00    +0.000 C 
ATOM     21  O   UNL     1       2.824   2.552  19.202  0.00  0.00    +0.000 OA
ATOM     22  H   UNL     1       5.977   2.812  19.436  0.00  0.00    +0.000 HD
ENDBRANCH   1  20
TORSDOF 4
ENDMDL
MODEL 5
REMARK VINA RESULT:      -6.6      2.519      6.867
REMARK  Name = 
REMARK  6 active torsions:
REMARK  status: ('A' for Active; 'I' for Inactive)
REMARK    1  A    between atoms: C_1  and  N_2
REMARK    2  A    between atoms: C_3  and  C_5
REMARK    3  A    between atoms: C_8  and  C_9
REMARK    4  A    between atoms: C_11  and  O_12
REMARK    5  A    between atoms: O_12  and  C_13
REMARK    6  A    between atoms: C_16  and  N_17
REMARK                            x       y       z     vdW  Elec       q    Type
REMARK                         _______ _______ _______ _____ _____    ______ ____
ROOT
ATOM      1  C   UNL     1       4.385   4.159  17.833  0.00  0.00    +0.000 A 
ATOM      2  C   UNL     1       4.258   5.522  17.635  0.00  0.00    +0.000 A 
ATOM      3  C   UNL     1       4.818   5.835  16.375  0.00  0.00    +0.000 A 
ATOM      4  C   UNL     1       5.225   4.659  15.768  0.00  0.00    +0.000 A 
ATOM      5  N   UNL     1       4.976   3.659  16.689  0.00  0.00    +0.000 N 
ATOM      6  H   UNL     1       5.180   2.676  16.559  0.00  0.00    +0.000 HD
ENDROOT
BRANCH   4   7
ATOM      7  C   UNL     1       5.821   4.407  14.437  0.00  0.00    +0.000 A 
ATOM      8  C   UNL     1       5.109   3.624  13.505  0.00  0.00    +0.000 A 
ATOM      9  C   UNL     1       5.620   3.343  12.231  0.00  0.00    +0.000 A 
ATOM     10  C   UNL     1       6.872   3.832  11.879  0.00  0.00    +0.000 A 
ATOM     11  C   UNL     1       7.601   4.596  12.791  0.00  0.00    +0.000 A 
ATOM     12  C   UNL     1       7.075   4.938  14.048  0.00  0.00    +0.000 A 
BRANCH  12  13
ATOM     13  N   UNL     1       7.924   5.635  14.933  0.00  0.00    +0.000 N 
ATOM     14  H   UNL     1       8.888   5.681  14.621  0.00  0.00    +0.000 HD
ATOM     15  H   UNL     1       7.560   6.555  15.163  0.00  0.00    +0.000 HD
ENDBRANCH  12  13
BRANCH   9  16
ATOM     16  O   UNL     1       4.810   2.575  11.440  0.00  0.00    +0.000 OA
ATOM     17  C   UNL     1       3.658   3.211  10.897  0.00  0.00    +0.000 C 
ENDBRANCH   9  16
ENDBRANCH   4   7
BRANCH   1  20
ATOM     18  C   UNL     1       2.154   2.373  20.239  0.00  0.00    +0.000 C 
ATOM     19  N   UNL     1       2.680   3.135  19.137  0.00  0.00    +0.000 N 
ATOM     20  C   UNL     1       4.033   3.306  18.950  0.00  0.00    +0.000 C 
ATOM     21  O   UNL     1       4.874   2.783  19.670  0.00  0.00    +0.000 OA
ATOM     22  H   UNL     1       2.032   3.613  18.531  0.00  0.00    +0.000 HD
ENDBRANCH   1  20
TORSDOF 4
ENDMDL
MODEL 6
REMARK VINA RESULT:      -6.5      2.435      6.559
REMARK  Name = 
REMARK  6 active torsions:
REMARK  status: ('A' for Active; 'I' for Inactive)
REMARK    1  A    between atoms: C_1  and  N_2
REMARK    2  A    between atoms: C_3  and  C_5
REMARK    3  A    between atoms: C_8  and  C_9
REMARK    4  A    between atoms: C_11  and  O_12
REMARK    5  A    between atoms: O_12  and  C_13
REMARK    6  A    between atoms: C_16  and  N_17
REMARK                            x       y       z     vdW  Elec       q    Type
REMARK                         _______ _______ _______ _____ _____    ______ ____
ROOT
ATOM      1  C   UNL     1       2.459   6.674  19.794  0.00  0.00    +0.000 A 
ATOM      2  C   UNL     1       2.263   5.367  20.200  0.00  0.00    +0.000 A 
ATOM      3  C   UNL     1       3.142   4.543  19.460  0.00  0.00    +0.000 A 
ATOM      4  C   UNL     1       3.926   5.347  18.650  0.00  0.00    +0.000 A 
ATOM      5  N   UNL     1       3.470   6.636  18.853  0.00  0.00    +0.000 N 
ATOM      6  H   UNL     1       3.824   7.465  18.392  0.00  0.00    +0.000 HD
ENDROOT
BRANCH   4   7
ATOM      7  C   UNL     1       5.029   5.013  17.723  0.00  0.00    +0.000 A 
ATOM      8  C   UNL     1       4.734   4.766  16.366  0.00  0.00    +0.000 A 
ATOM      9  C   UNL     1       5.731   4.439  15.439  0.00  0.00    +0.000 A 
ATOM     10  C   UNL     1       7.049   4.335  15.868  0.00  0.00    +0.000 A 
ATOM     11  C   UNL     1       7.363   4.560  17.209  0.00  0.00    +0.000 A 
ATOM     12  C   UNL     1       6.383   4.950  18.136  0.00  0.00    +0.000 A 
BRANCH  12  13
ATOM     13  N   UNL     1       6.782   5.064  19.485  0.00  0.00    +0.000 N 
ATOM     14  H   UNL     1       7.748   4.799  19.648  0.00  0.00    +0.000 HD
ATOM     15  H   UNL     1       6.576   5.983  19.865  0.00  0.00    +0.000 HD
ENDBRANCH  12  13
BRANCH   9  16
ATOM     16  O   UNL     1       5.287   4.233  14.161  0.00  0.00    +0.000 OA
ATOM     17  C   UNL     1       6.250   3.777  13.217  0.00  0.00    +0.000 C 
ENDBRANCH   9  16
ENDBRANCH   4   7
BRANCH   1  20
ATOM     18  C   UNL     1       0.847   9.169  22.059  0.00  0.00    +0.000 C 
ATOM     19  N   UNL     1       1.544   8.032  21.520  0.00  0.00    +0.000 N 
ATOM     20  C   UNL     1       1.813   7.914  20.175  0.00  0.00    +0.000 C 
ATOM     21  O   UNL     1       1.524   8.783  19.361  0.00  0.00    +0.000 OA
ATOM     22  H   UNL     1       1.778   7.272  22.139  0.00  0.00    +0.000 HD
ENDBRANCH   1  20
TORSDOF 4
ENDMDL
MODEL 7
REMARK VINA RESULT:      -6.5      1.893      2.470
REMARK  Name = 
REMARK  6 active torsions:
REMARK  status: ('A' for Active; 'I' for Inactive)
REMARK    1  A    between atoms: C_1  and  N_2
REMARK    2  A    between atoms: C_3  and  C_5
REMARK    3  A    between atoms: C_8  and  C_9
REMARK    4  A    between atoms: C_11  and  O_12
REMARK    5  A    between atoms: O_12  and  C_13
REMARK    6  A    between atoms: C_16  and  N_17
REMARK                            x       y       z     vdW  Elec       q    Type
REMARK                         _______ _______ _______ _____ _____    ______ ____
ROOT
ATOM      1  C   UNL     1       6.571   4.893  15.446  0.00  0.00    +0.000 A 
ATOM      2  C   UNL     1       7.268   4.589  16.601  0.00  0.00    +0.000 A 
ATOM      3  C   UNL     1       6.527   5.079  17.701  0.00  0.00    +0.000 A 
ATOM      4  C   UNL     1       5.343   5.621  17.230  0.00  0.00    +0.000 A 
ATOM      5  N   UNL     1       5.409   5.520  15.853  0.00  0.00    +0.000 N 
ATOM      6  H   UNL     1       4.703   5.845  15.205  0.00  0.00    +0.000 HD
ENDROOT
BRANCH   4   7
ATOM      7  C   UNL     1       4.193   6.217  17.945  0.00  0.00    +0.000 A 
ATOM      8  C   UNL     1       3.669   7.447  17.497  0.00  0.00    +0.000 A 
ATOM      9  C   UNL     1       2.587   8.067  18.134  0.00  0.00    +0.000 A 
ATOM     10  C   UNL     1       2.022   7.465  19.252  0.00  0.00    +0.000 A 
ATOM     11  C   UNL     1       2.533   6.255  19.722  0.00  0.00    +0.000 A 
ATOM     12  C   UNL     1       3.577   5.591  19.058  0.00  0.00    +0.000 A 
BRANCH  12  13
ATOM     13  N   UNL     1       4.085   4.422  19.662  0.00  0.00    +0.000 N 
ATOM     14  H   UNL     1       4.866   4.594  20.287  0.00  0.00    +0.000 HD
ATOM     15  H   UNL     1       3.355   3.880  20.114  0.00  0.00    +0.000 HD
ENDBRANCH  12  13
BRANCH   9  16
ATOM     16  O   UNL     1       2.191   9.254  17.579  0.00  0.00    +0.000 OA
ATOM     17  C   UNL     1       1.013   9.847  18.114  0.00  0.00    +0.000 C 
ENDBRANCH   9  16
ENDBRANCH   4   7
BRANCH   1  20
ATOM     18  C   UNL     1       6.440   3.217  12.110  0.00  0.00    +0.000 C 
ATOM     19  N   UNL     1       6.207   3.615  13.473  0.00  0.00    +0.000 N 
ATOM     20  C   UNL     1       6.874   4.674  14.047  0.00  0.00    +0.000 C 
ATOM     21  O   UNL     1       7.665   5.375  13.427  0.00  0.00    +0.000 OA
ATOM     22  H   UNL     1       5.589   3.055  14.039  0.00  0.00    +0.000 HD
ENDBRANCH   1  20
TORSDOF 4
ENDMDL
MODEL 8
REMARK VINA RESULT:      -6.5      2.403      6.832
REMARK  Name = 
REMARK  6 active torsions:
REMARK  status: ('A' for Active; 'I' for Inactive)
REMARK    1  A    between atoms: C_1  and  N_2
REMARK    2  A    between atoms: C_3  and  C_5
REMARK    3  A    between atoms: C_8  and  C_9
REMARK    4  A    between atoms: C_11  and  O_12
REMARK    5  A    between atoms: O_12  and  C_13
REMARK    6  A    between atoms: C_16  and  N_17
REMARK                            x       y       z     vdW  Elec       q    Type
REMARK                         _______ _______ _______ _____ _____    ______ ____
ROOT
ATOM      1  C   UNL     1       4.204   4.050  18.466  0.00  0.00    +0.000 A 
ATOM      2  C   UNL     1       3.707   5.311  18.191  0.00  0.00    +0.000 A 
ATOM      3  C   UNL     1       4.227   5.724  16.944  0.00  0.00    +0.000 A 
ATOM      4  C   UNL     1       4.988   4.693  16.418  0.00  0.00    +0.000 A 
ATOM      5  N   UNL     1       4.979   3.698  17.378  0.00  0.00    +0.000 N 
ATOM      6  H   UNL     1       5.462   2.811  17.309  0.00  0.00    +0.000 HD
ENDROOT
BRANCH   4   7
ATOM      7  C   UNL     1       5.707   4.573  15.131  0.00  0.00    +0.000 A 
ATOM      8  C   UNL     1       5.158   3.769  14.110  0.00  0.00    +0.000 A 
ATOM      9  C   UNL     1       5.793   3.609  12.872  0.00  0.00    +0.000 A 
ATOM     10  C   UNL     1       7.008   4.243  12.645  0.00  0.00    +0.000 A 
ATOM     11  C   UNL     1       7.578   5.032  13.646  0.00  0.00    +0.000 A 
ATOM     12  C   UNL     1       6.923   5.252  14.868  0.00  0.00    +0.000 A 
BRANCH  12  13
ATOM     13  N   UNL     1       7.621   5.987  15.850  0.00  0.00    +0.000 N 
ATOM     14  H   UNL     1       8.086   5.406  16.539  0.00  0.00    +0.000 HD
ATOM     15  H   UNL     1       8.258   6.661  15.437  0.00  0.00    +0.000 HD
ENDBRANCH  12  13
BRANCH   9  16
ATOM     16  O   UNL     1       5.134   2.802  11.984  0.00  0.00    +0.000 OA
ATOM     17  C   UNL     1       5.886   1.740  11.409  0.00  0.00    +0.000 C 
ENDBRANCH   9  16
ENDBRANCH   4   7
BRANCH   1  20
ATOM     18  C   UNL     1       2.560   2.577  21.479  0.00  0.00    +0.000 C 
ATOM     19  N   UNL     1       2.854   3.321  20.283  0.00  0.00    +0.000 N 
ATOM     20  C   UNL     1       4.044   3.173  19.608  0.00  0.00    +0.000 C 
ATOM     21  O   UNL     1       4.904   2.368  19.946  0.00  0.00    +0.000 OA
ATOM     22  H   UNL     1       2.195   4.020  19.977  0.00  0.00    +0.000 HD
ENDBRANCH   1  20
TORSDOF 4
ENDMDL
MODEL 9
REMARK VINA RESULT:      -6.4      1.894      2.600
REMARK  Name = 
REMARK  6 active torsions:
REMARK  status: ('A' for Active; 'I' for Inactive)
REMARK    1  A    between atoms: C_1  and  N_2
REMARK    2  A    between atoms: C_3  and  C_5
REMARK    3  A    between atoms: C_8  and  C_9
REMARK    4  A    between atoms: C_11  and  O_12
REMARK    5  A    between atoms: O_12  and  C_13
REMARK    6  A    between atoms: C_16  and  N_17
REMARK                            x       y       z     vdW  Elec       q    Type
REMARK                         _______ _______ _______ _____ _____    ______ ____
ROOT
ATOM      1  C   UNL     1       5.866   5.145  16.741  0.00  0.00    +0.000 A 
ATOM      2  C   UNL     1       5.459   4.100  15.932  0.00  0.00    +0.000 A 
ATOM      3  C   UNL     1       4.381   3.445  16.571  0.00  0.00    +0.000 A 
ATOM      4  C   UNL     1       4.079   4.128  17.738  0.00  0.00    +0.000 A 
ATOM      5  N   UNL     1       5.016   5.140  17.830  0.00  0.00    +0.000 N 
ATOM      6  H   UNL     1       5.083   5.812  18.584  0.00  0.00    +0.000 HD
ENDROOT
BRANCH   4   7
ATOM      7  C   UNL     1       3.019   3.908  18.747  0.00  0.00    +0.000 A 
ATOM      8  C   UNL     1       2.516   5.013  19.465  0.00  0.00    +0.000 A 
ATOM      9  C   UNL     1       1.518   4.871  20.438  0.00  0.00    +0.000 A 
ATOM     10  C   UNL     1       1.022   3.604  20.720  0.00  0.00    +0.000 A 
ATOM     11  C   UNL     1       1.515   2.495  20.033  0.00  0.00    +0.000 A 
ATOM     12  C   UNL     1       2.469   2.629  19.012  0.00  0.00    +0.000 A 
BRANCH  12  13
ATOM     13  N   UNL     1       2.973   1.442  18.440  0.00  0.00    +0.000 N 
ATOM     14  H   UNL     1       2.765   1.345  17.452  0.00  0.00    +0.000 HD
ATOM     15  H   UNL     1       3.964   1.321  18.628  0.00  0.00    +0.000 HD
ENDBRANCH  12  13
BRANCH   9  16
ATOM     16  O   UNL     1       1.132   6.035  21.044  0.00  0.00    +0.000 OA
ATOM     17  C   UNL     1       1.724   7.235  20.558  0.00  0.00    +0.000 C 
ENDBRANCH   9  16
ENDBRANCH   4   7
BRANCH   1  20
ATOM     18  C   UNL     1       7.947   8.125  17.600  0.00  0.00    +0.000 C 
ATOM     19  N   UNL     1       6.986   7.054  17.610  0.00  0.00    +0.000 N 
ATOM     20  C   UNL     1       6.939   6.109  16.611  0.00  0.00    +0.000 C 
ATOM     21  O   UNL     1       7.737   6.085  15.681  0.00  0.00    +0.000 OA
ATOM     22  H   UNL     1       6.286   7.043  18.335  0.00  0.00    +0.000 HD
ENDBRANCH   1  20
TORSDOF 4
ENDMDL
