MODEL 1
REMARK VINA RESULT:      -7.0      0.000      0.000
REMARK  Name = 
REMARK  9 active torsions:
REMARK  status: ('A' for Active; 'I' for Inactive)
REMARK    1  A    between atoms: C_1  and  C_2
REMARK    2  A    between atoms: C_2  and  C_4
REMARK    3  A    between atoms: C_5  and  C_6
REMARK    4  A    between atoms: N_8  and  C_9
REMARK    5  A    between atoms: N_8  and  C_17
REMARK    6  A    between atoms: C_9  and  C_10
REMARK    7  A    between atoms: C_17  and  C_18
REMARK    8  A    between atoms: C_18  and  C_19
REMARK    9  A    between atoms: C_18  and  C_20
REMARK                            x       y       z     vdW  Elec       q    Type
REMARK                         _______ _______ _______ _____ _____    ______ ____
ROOT
ATOM      1  C   UNL     1       5.602   5.338  15.158  0.00  0.00    +0.000 C 
ATOM      2  O   UNL     1       5.784   6.429  14.619  0.00  0.00    +0.000 OA
ATOM      3  N   UNL     1       5.729   5.143  16.528  0.00  0.00    +0.000 N 
ENDROOT
BRANCH   1   5
ATOM      4  C   UNL     1       5.921   3.822  13.260  0.00  0.00    +0.000 C 
ATOM      5  C   UNL     1       5.179   4.182  14.323  0.00  0.00    +0.000 C 
BRANCH   4   7
ATOM      6  C   UNL     1       4.397   3.252  11.352  0.00  0.00    +0.000 C 
ATOM      7  C   UNL     1       5.515   2.777  12.269  0.00  0.00    +0.000 C 
ATOM      8 BR   UNL     1       7.083   2.333  11.196  0.00  0.00    +0.000 Br
ENDBRANCH   4   7
ENDBRANCH   1   5
BRANCH   3   9
ATOM      9  C   UNL     1       5.631   3.846  17.209  0.00  0.00    +0.000 C 
BRANCH   9  10
ATOM     10  C   UNL     1       4.377   3.629  18.042  0.00  0.00    +0.000 A 
ATOM     11  C   UNL     1       3.078   3.874  17.566  0.00  0.00    +0.000 A 
ATOM     12  C   UNL     1       1.964   3.701  18.398  0.00  0.00    +0.000 A 
ATOM     13  C   UNL     1       2.135   3.269  19.711  0.00  0.00    +0.000 A 
ATOM     14 CL   UNL     1       0.765   3.090  20.740  0.00  0.00    +0.000 Cl
ATOM     15  C   UNL     1       3.408   2.992  20.195  0.00  0.00    +0.000 A 
ATOM     16  C   UNL     1       4.520   3.169  19.366  0.00  0.00    +0.000 A 
ENDBRANCH   9  10
ENDBRANCH   3   9
BRANCH   3  17
ATOM     17  C   UNL     1       5.977   6.328  17.361  0.00  0.00    +0.000 C 
BRANCH  17  18
ATOM     18  C   UNL     1       7.458   6.642  17.666  0.00  0.00    +0.000 C 
ATOM     19  C   UNL     1       7.791   8.135  17.660  0.00  0.00    +0.000 C 
ATOM     20  C   UNL     1       7.815   6.065  19.042  0.00  0.00    +0.000 C 
ENDBRANCH  17  18
ENDBRANCH   3  17
TORSDOF 6
ENDMDL
MODEL 2
REMARK VINA RESULT:      -6.9      0.158      1.082
REMARK  Name = 
REMARK  9 active torsions:
REMARK  status: ('A' for Active; 'I' for Inactive)
REMARK    1  A    between atoms: C_1  and  C_2
REMARK    2  A    between atoms: C_2  and  C_4
REMARK    3  A    between atoms: C_5  and  C_6
REMARK    4  A    between atoms: N_8  and  C_9
REMARK    5  A    between atoms: N_8  and  C_17
REMARK    6  A    between atoms: C_9  and  C_10
REMARK    7  A    between atoms: C_17  and  C_18
REMARK    8  A    between atoms: C_18  and  C_19
REMARK    9  A    between atoms: C_18  and  C_20
REMARK                            x       y       z     vdW  Elec       q    Type
REMARK                         _______ _______ _______ _____ _____    ______ ____
ROOT
ATOM      1  C   UNL     1       5.673   5.266  15.124  0.00  0.00    +0.000 C 
ATOM      2  O   UNL     1       5.887   6.343  14.570  0.00  0.00    +0.000 OA
ATOM      3  N   UNL     1       5.762   5.095  16.499  0.00  0.00    +0.000 N 
ENDROOT
BRANCH   1   5
ATOM      4  C   UNL     1       5.966   3.764  13.210  0.00  0.00    +0.000 C 
ATOM      5  C   UNL     1       5.251   4.102  14.299  0.00  0.00    +0.000 C 
BRANCH   4   7
ATOM      6  C   UNL     1       4.431   3.181  11.314  0.00  0.00    +0.000 C 
ATOM      7  C   UNL     1       5.552   2.712  12.229  0.00  0.00    +0.000 C 
ATOM      8 BR   UNL     1       7.114   2.256  11.152  0.00  0.00    +0.000 Br
ENDBRANCH   4   7
ENDBRANCH   1   5
BRANCH   3   9
ATOM      9  C   UNL     1       5.625   3.812  17.202  0.00  0.00    +0.000 C 
BRANCH   9  10
ATOM     10  C   UNL     1       4.383   3.661  18.068  0.00  0.00    +0.000 A 
ATOM     11  C   UNL     1       4.427   3.405  19.449  0.00  0.00    +0.000 A 
ATOM     12  C   UNL     1       3.249   3.226  20.184  0.00  0.00    +0.000 A 
ATOM     13  C   UNL     1       2.011   3.316  19.551  0.00  0.00    +0.000 A 
ATOM     14 CL   UNL     1       0.566   3.065  20.452  0.00  0.00    +0.000 Cl
ATOM     15  C   UNL     1       1.942   3.599  18.192  0.00  0.00    +0.000 A 
ATOM     16  C   UNL     1       3.120   3.772  17.456  0.00  0.00    +0.000 A 
ENDBRANCH   9  10
ENDBRANCH   3   9
BRANCH   3  17
ATOM     17  C   UNL     1       6.009   6.290  17.317  0.00  0.00    +0.000 C 
BRANCH  17  18
ATOM     18  C   UNL     1       7.486   6.576  17.668  0.00  0.00    +0.000 C 
ATOM     19  C   UNL     1       7.851   8.061  17.659  0.00  0.00    +0.000 C 
ATOM     20  C   UNL     1       7.784   6.006  19.061  0.00  0.00    +0.000 C 
ENDBRANCH  17  18
ENDBRANCH   3  17
TORSDOF 6
ENDMDL
MODEL 3
REMARK VINA RESULT:      -6.9      4.008      5.612
REMARK  Name = 
REMARK  9 active torsions:
REMARK  status: ('A' for Active; 'I' for Inactive)
REMARK    1  A    between atoms: C_1  and  C_2
REMARK    2  A    between atoms: C_2  and  C_4
REMARK    3  A    between atoms: C_5  and  C_6
REMARK    4  A    between atoms: N_8  and  C_9
REMARK    5  A    between atoms: N_8  and  C_17
REMARK    6  A    between atoms: C_9  and  C_10
REMARK    7  A    between atoms: C_17  and  C_18
REMARK    8  A    between atoms: C_18  and  C_19
REMARK    9  A    between atoms: C_18  and  C_20
REMARK                            x       y       z     vdW  Elec       q    Type
REMARK                         _______ _______ _______ _____ _____    ______ ____
ROOT
ATOM      1  C   UNL     1       3.021   4.241  17.390  0.00  0.00    +0.000 C 
ATOM      2  O   UNL     1       2.409   3.362  16.786  0.00  0.00    +0.000 OA
ATOM      3  N   UNL     1       2.634   4.705  18.641  0.00  0.00    +0.000 N 
ENDROOT
BRANCH   1   5
ATOM      4  C   UNL     1       5.421   4.137  16.904  0.00  0.00    +0.000 C 
ATOM      5  C   UNL     1       4.258   4.805  16.787  0.00  0.00    +0.000 C 
BRANCH   4   7
ATOM      6  C   UNL     1       6.848   4.819  14.959  0.00  0.00    +0.000 C 
ATOM      7  C   UNL     1       6.746   4.678  16.470  0.00  0.00    +0.000 C 
ATOM      8 BR   UNL     1       6.974   6.430  17.298  0.00  0.00    +0.000 Br
ENDBRANCH   4   7
ENDBRANCH   1   5
BRANCH   3   9
ATOM      9  C   UNL     1       3.259   5.825  19.357  0.00  0.00    +0.000 C 
BRANCH   9  10
ATOM     10  C   UNL     1       2.513   7.149  19.296  0.00  0.00    +0.000 A 
ATOM     11  C   UNL     1       1.809   7.694  20.384  0.00  0.00    +0.000 A 
ATOM     12  C   UNL     1       1.099   8.894  20.252  0.00  0.00    +0.000 A 
ATOM     13  C   UNL     1       1.095   9.571  19.034  0.00  0.00    +0.000 A 
ATOM     14 CL   UNL     1       0.196  11.030  18.867  0.00  0.00    +0.000 Cl
ATOM     15  C   UNL     1       1.809   9.067  17.953  0.00  0.00    +0.000 A 
ATOM     16  C   UNL     1       2.513   7.866  18.084  0.00  0.00    +0.000 A 
ENDBRANCH   9  10
ENDBRANCH   3   9
BRANCH   3  17
ATOM     17  C   UNL     1       1.514   4.021  19.301  0.00  0.00    +0.000 C 
BRANCH  17  18
ATOM     18  C   UNL     1       1.894   2.873  20.261  0.00  0.00    +0.000 C 
ATOM     19  C   UNL     1       3.276   2.272  19.996  0.00  0.00    +0.000 C 
ATOM     20  C   UNL     1       1.856   3.396  21.703  0.00  0.00    +0.000 C 
ENDBRANCH  17  18
ENDBRANCH   3  17
TORSDOF 6
ENDMDL
MODEL 4
REMARK VINA RESULT:      -6.9      4.019      5.615
REMARK  Name = 
REMARK  9 active torsions:
REMARK  status: ('A' for Active; 'I' for Inactive)
REMARK    1  A    between atoms: C_1  and  C_2
REMARK    2  A    between atoms: C_2  and  C_4
REMARK    3  A    between atoms: C_5  and  C_6
REMARK    4  A    between atoms: N_8  and  C_9
REMARK    5  A    between atoms: N_8  and  C_17
REMARK    6  A    between atoms: C_9  and  C_10
REMARK    7  A    between atoms: C_17  and  C_18
REMARK    8  A    between atoms: C_18  and  C_19
REMARK    9  A    between atoms: C_18  and  C_20
REMARK                            x       y       z     vdW  Elec       q    Type
REMARK                         _______ _______ _______ _____ _____    ______ ____
ROOT
ATOM      1  C   UNL     1       3.002   4.093  17.427  0.00  0.00    +0.000 C 
ATOM      2  O   UNL     1       2.384   3.168  16.902  0.00  0.00    +0.000 OA
ATOM      3  N   UNL     1       2.652   4.632  18.658  0.00  0.00    +0.000 N 
ENDROOT
BRANCH   1   5
ATOM      4  C   UNL     1       5.426   4.166  17.075  0.00  0.00    +0.000 C 
ATOM      5  C   UNL     1       4.208   4.634  16.744  0.00  0.00    +0.000 C 
BRANCH   4   7
ATOM      6  C   UNL     1       6.680   4.988  15.065  0.00  0.00    +0.000 C 
ATOM      7  C   UNL     1       6.711   4.739  16.565  0.00  0.00    +0.000 C 
ATOM      8 BR   UNL     1       7.018   6.428  17.493  0.00  0.00    +0.000 Br
ENDBRANCH   4   7
ENDBRANCH   1   5
BRANCH   3   9
ATOM      9  C   UNL     1       3.283   5.803  19.279  0.00  0.00    +0.000 C 
BRANCH   9  10
ATOM     10  C   UNL     1       2.541   7.121  19.112  0.00  0.00    +0.000 A 
ATOM     11  C   UNL     1       2.493   7.836  17.903  0.00  0.00    +0.000 A 
ATOM     12  C   UNL     1       1.834   9.070  17.825  0.00  0.00    +0.000 A 
ATOM     13  C   UNL     1       1.203   9.596  18.949  0.00  0.00    +0.000 A 
ATOM     14 CL   UNL     1       0.421  11.128  18.856  0.00  0.00    +0.000 Cl
ATOM     15  C   UNL     1       1.211   8.893  20.147  0.00  0.00    +0.000 A 
ATOM     16  C   UNL     1       1.874   7.663  20.227  0.00  0.00    +0.000 A 
ENDBRANCH   9  10
ENDBRANCH   3   9
BRANCH   3  17
ATOM     17  C   UNL     1       1.567   3.976  19.401  0.00  0.00    +0.000 C 
BRANCH  17  18
ATOM     18  C   UNL     1       1.955   2.701  20.181  0.00  0.00    +0.000 C 
ATOM     19  C   UNL     1       3.464   2.501  20.335  0.00  0.00    +0.000 C 
ATOM     20  C   UNL     1       1.325   2.762  21.578  0.00  0.00    +0.000 C 
ENDBRANCH  17  18
ENDBRANCH   3  17
TORSDOF 6
ENDMDL
MODEL 5
REMARK VINA RESULT:      -6.9      1.092      1.454
REMARK  Name = 
REMARK  9 active torsions:
REMARK  status: ('A' for Active; 'I' for Inactive)
REMARK    1  A    between atoms: C_1  and  C_2
REMARK    2  A    between atoms: C_2  and  C_4
REMARK    3  A    between atoms: C_5  and  C_6
REMARK    4  A    between atoms: N_8  and  C_9
REMARK    5  A    between atoms: N_8  and  C_17
REMARK    6  A    between atoms: C_9  and  C_10
REMARK    7  A    between atoms: C_17  and  C_18
REMARK    8  A    between atoms: C_18  and  C_19
REMARK    9  A    between atoms: C_18  and  C_20
REMARK                            x       y       z     vdW  Elec       q    Type
REMARK                         _______ _______ _______ _____ _____    ______ ____
ROOT
ATOM      1  C   UNL     1       6.603   4.757  15.221  0.00  0.00    +0.000 C 
ATOM      2  O   UNL     1       7.735   5.238  15.189  0.00  0.00    +0.000 OA
ATOM      3  N   UNL     1       5.591   5.265  16.026  0.00  0.00    +0.000 N 
ENDROOT
BRANCH   1   5
ATOM      4  C   UNL     1       5.891   3.849  13.060  0.00  0.00    +0.000 C 
ATOM      5  C   UNL     1       6.278   3.614  14.327  0.00  0.00    +0.000 C 
BRANCH   4   7
ATOM      6  C   UNL     1       4.349   3.316  11.155  0.00  0.00    +0.000 C 
ATOM      7  C   UNL     1       5.398   2.790  12.123  0.00  0.00    +0.000 C 
ATOM      8 BR   UNL     1       6.932   2.128  11.115  0.00  0.00    +0.000 Br
ENDBRANCH   4   7
ENDBRANCH   1   5
BRANCH   3   9
ATOM      9  C   UNL     1       4.259   4.667  16.187  0.00  0.00    +0.000 C 
BRANCH   9  10
ATOM     10  C   UNL     1       3.826   4.391  17.619  0.00  0.00    +0.000 A 
ATOM     11  C   UNL     1       4.446   3.439  18.447  0.00  0.00    +0.000 A 
ATOM     12  C   UNL     1       3.970   3.195  19.741  0.00  0.00    +0.000 A 
ATOM     13  C   UNL     1       2.878   3.908  20.229  0.00  0.00    +0.000 A 
ATOM     14 CL   UNL     1       2.277   3.582  21.810  0.00  0.00    +0.000 Cl
ATOM     15  C   UNL     1       2.268   4.876  19.440  0.00  0.00    +0.000 A 
ATOM     16  C   UNL     1       2.740   5.116  18.145  0.00  0.00    +0.000 A 
ENDBRANCH   9  10
ENDBRANCH   3   9
BRANCH   3  17
ATOM     17  C   UNL     1       5.873   6.498  16.773  0.00  0.00    +0.000 C 
BRANCH  17  18
ATOM     18  C   UNL     1       7.250   6.567  17.469  0.00  0.00    +0.000 C 
ATOM     19  C   UNL     1       7.771   7.991  17.676  0.00  0.00    +0.000 C 
ATOM     20  C   UNL     1       7.152   5.878  18.835  0.00  0.00    +0.000 C 
ENDBRANCH  17  18
ENDBRANCH   3  17
TORSDOF 6
ENDMDL
MODEL 6
REMARK VINA RESULT:      -6.8      3.865      5.484
REMARK  Name = 
REMARK  9 active torsions:
REMARK  status: ('A' for Active; 'I' for Inactive)
REMARK    1  A    between atoms: C_1  and  C_2
REMARK    2  A    between atoms: C_2  and  C_4
REMARK    3  A    between atoms: C_5  and  C_6
REMARK    4  A    between atoms: N_8  and  C_9
REMARK    5  A    between atoms: N_8  and  C_17
REMARK    6  A    between atoms: C_9  and  C_10
REMARK    7  A    between atoms: C_17  and  C_18
REMARK    8  A    between atoms: C_18  and  C_19
REMARK    9  A    between atoms: C_18  and  C_20
REMARK                            x       y       z     vdW  Elec       q    Type
REMARK                         _______ _______ _______ _____ _____    ______ ____
ROOT
ATOM      1  C   UNL     1       2.927   4.341  17.607  0.00  0.00    +0.000 C 
ATOM      2  O   UNL     1       2.352   3.369  17.122  0.00  0.00    +0.000 OA
ATOM      3  N   UNL     1       2.644   4.828  18.877  0.00  0.00    +0.000 N 
ENDROOT
BRANCH   1   5
ATOM      4  C   UNL     1       4.870   4.255  16.117  0.00  0.00    +0.000 C 
ATOM      5  C   UNL     1       4.008   5.004  16.830  0.00  0.00    +0.000 C 
BRANCH   4   7
ATOM      6  C   UNL     1       7.355   4.574  16.220  0.00  0.00    +0.000 C 
ATOM      7  C   UNL     1       6.079   4.799  15.423  0.00  0.00    +0.000 C 
ATOM      8 BR   UNL     1       6.229   3.901  13.697  0.00  0.00    +0.000 Br
ENDBRANCH   4   7
ENDBRANCH   1   5
BRANCH   3   9
ATOM      9  C   UNL     1       3.217   6.046  19.463  0.00  0.00    +0.000 C 
BRANCH   9  10
ATOM     10  C   UNL     1       2.386   7.311  19.305  0.00  0.00    +0.000 A 
ATOM     11  C   UNL     1       2.257   8.008  18.092  0.00  0.00    +0.000 A 
ATOM     12  C   UNL     1       1.517   9.195  18.021  0.00  0.00    +0.000 A 
ATOM     13  C   UNL     1       0.885   9.693  19.159  0.00  0.00    +0.000 A 
ATOM     14 CL   UNL     1       0.003  11.168  19.074  0.00  0.00    +0.000 Cl
ATOM     15  C   UNL     1       0.973   9.004  20.363  0.00  0.00    +0.000 A 
ATOM     16  C   UNL     1       1.717   7.821  20.435  0.00  0.00    +0.000 A 
ENDBRANCH   9  10
ENDBRANCH   3   9
BRANCH   3  17
ATOM     17  C   UNL     1       1.699   4.062  19.702  0.00  0.00    +0.000 C 
BRANCH  17  18
ATOM     18  C   UNL     1       2.274   3.446  20.995  0.00  0.00    +0.000 C 
ATOM     19  C   UNL     1       1.261   2.631  21.801  0.00  0.00    +0.000 C 
ATOM     20  C   UNL     1       3.455   2.537  20.630  0.00  0.00    +0.000 C 
ENDBRANCH  17  18
ENDBRANCH   3  17
TORSDOF 6
ENDMDL
MODEL 7
REMARK VINA RESULT:      -6.7      1.218      1.327
REMARK  Name = 
REMARK  9 active torsions:
REMARK  status: ('A' for Active; 'I' for Inactive)
REMARK    1  A    between atoms: C_1  and  C_2
REMARK    2  A    between atoms: C_2  and  C_4
REMARK    3  A    between atoms: C_5  and  C_6
REMARK    4  A    between atoms: N_8  and  C_9
REMARK    5  A    between atoms: N_8  and  C_17
REMARK    6  A    between atoms: C_9  and  C_10
REMARK    7  A    between atoms: C_17  and  C_18
REMARK    8  A    between atoms: C_18  and  C_19
REMARK    9  A    between atoms: C_18  and  C_20
REMARK                            x       y       z     vdW  Elec       q    Type
REMARK                         _______ _______ _______ _____ _____    ______ ____
ROOT
ATOM      1  C   UNL     1       6.550   4.668  15.535  0.00  0.00    +0.000 C 
ATOM      2  O   UNL     1       7.768   4.839  15.539  0.00  0.00    +0.000 OA
ATOM      3  N   UNL     1       5.679   5.434  16.299  0.00  0.00    +0.000 N 
ENDROOT
BRANCH   1   5
ATOM      4  C   UNL     1       6.221   3.676  13.318  0.00  0.00    +0.000 C 
ATOM      5  C   UNL     1       5.969   3.632  14.640  0.00  0.00    +0.000 C 
BRANCH   4   7
ATOM      6  C   UNL     1       4.507   3.499  11.497  0.00  0.00    +0.000 C 
ATOM      7  C   UNL     1       5.573   2.780  12.311  0.00  0.00    +0.000 C 
ATOM      8 BR   UNL     1       6.967   2.125  11.112  0.00  0.00    +0.000 Br
ENDBRANCH   4   7
ENDBRANCH   1   5
BRANCH   3   9
ATOM      9  C   UNL     1       4.233   5.204  16.417  0.00  0.00    +0.000 C 
BRANCH   9  10
ATOM     10  C   UNL     1       3.765   4.595  17.730  0.00  0.00    +0.000 A 
ATOM     11  C   UNL     1       3.040   5.307  18.701  0.00  0.00    +0.000 A 
ATOM     12  C   UNL     1       2.680   4.704  19.913  0.00  0.00    +0.000 A 
ATOM     13  C   UNL     1       3.028   3.379  20.164  0.00  0.00    +0.000 A 
ATOM     14 CL   UNL     1       2.610   2.653  21.668  0.00  0.00    +0.000 Cl
ATOM     15  C   UNL     1       3.719   2.646  19.206  0.00  0.00    +0.000 A 
ATOM     16  C   UNL     1       4.083   3.249  17.998  0.00  0.00    +0.000 A 
ENDBRANCH   9  10
ENDBRANCH   3   9
BRANCH   3  17
ATOM     17  C   UNL     1       6.246   6.566  17.044  0.00  0.00    +0.000 C 
BRANCH  17  18
ATOM     18  C   UNL     1       7.384   6.224  18.030  0.00  0.00    +0.000 C 
ATOM     19  C   UNL     1       8.201   7.436  18.483  0.00  0.00    +0.000 C 
ATOM     20  C   UNL     1       6.781   5.549  19.269  0.00  0.00    +0.000 C 
ENDBRANCH  17  18
ENDBRANCH   3  17
TORSDOF 6
ENDMDL
MODEL 8
REMARK VINA RESULT:      -6.7      2.143      2.424
REMARK  Name = 
REMARK  9 active torsions:
REMARK  status: ('A' for Active; 'I' for Inactive)
REMARK    1  A    between atoms: C_1  and  C_2
REMARK    2  A    between atoms: C_2  and  C_4
REMARK    3  A    between atoms: C_5  and  C_6
REMARK    4  A    between atoms: N_8  and  C_9
REMARK    5  A    between atoms: N_8  and  C_17
REMARK    6  A    between atoms: C_9  and  C_10
REMARK    7  A    between atoms: C_17  and  C_18
REMARK    8  A    between atoms: C_18  and  C_19
REMARK    9  A    between atoms: C_18  and  C_20
REMARK                            x       y       z     vdW  Elec       q    Type
REMARK                         _______ _______ _______ _____ _____    ______ ____
ROOT
ATOM      1  C   UNL     1       6.279   5.173  15.165  0.00  0.00    +0.000 C 
ATOM      2  O   UNL     1       7.345   5.669  14.803  0.00  0.00    +0.000 OA
ATOM      3  N   UNL     1       5.598   5.595  16.300  0.00  0.00    +0.000 N 
ENDROOT
BRANCH   1   5
ATOM      4  C   UNL     1       6.294   3.670  13.229  0.00  0.00    +0.000 C 
ATOM      5  C   UNL     1       5.658   4.109  14.332  0.00  0.00    +0.000 C 
BRANCH   4   7
ATOM      6  C   UNL     1       4.579   3.350  11.428  0.00  0.00    +0.000 C 
ATOM      7  C   UNL     1       5.698   2.717  12.241  0.00  0.00    +0.000 C 
ATOM      8 BR   UNL     1       7.123   2.141  11.038  0.00  0.00    +0.000 Br
ENDBRANCH   4   7
ENDBRANCH   1   5
BRANCH   3   9
ATOM      9  C   UNL     1       4.384   4.969  16.839  0.00  0.00    +0.000 C 
BRANCH   9  10
ATOM     10  C   UNL     1       3.646   5.764  17.905  0.00  0.00    +0.000 A 
ATOM     11  C   UNL     1       3.430   5.295  19.212  0.00  0.00    +0.000 A 
ATOM     12  C   UNL     1       2.700   6.054  20.136  0.00  0.00    +0.000 A 
ATOM     13  C   UNL     1       2.189   7.297  19.769  0.00  0.00    +0.000 A 
ATOM     14 CL   UNL     1       1.266   8.211  20.898  0.00  0.00    +0.000 Cl
ATOM     15  C   UNL     1       2.415   7.794  18.491  0.00  0.00    +0.000 A 
ATOM     16  C   UNL     1       3.140   7.034  17.567  0.00  0.00    +0.000 A 
ENDBRANCH   9  10
ENDBRANCH   3   9
BRANCH   3  17
ATOM     17  C   UNL     1       6.132   6.761  17.017  0.00  0.00    +0.000 C 
BRANCH  17  18
ATOM     18  C   UNL     1       7.461   6.541  17.771  0.00  0.00    +0.000 C 
ATOM     19  C   UNL     1       8.171   7.835  18.172  0.00  0.00    +0.000 C 
ATOM     20  C   UNL     1       7.184   5.721  19.038  0.00  0.00    +0.000 C 
ENDBRANCH  17  18
ENDBRANCH   3  17
TORSDOF 6
ENDMDL
MODEL 9
REMARK VINA RESULT:      -6.7      2.115      2.328
REMARK  Name = 
REMARK  9 active torsions:
REMARK  status: ('A' for Active; 'I' for Inactive)
REMARK    1  A    between atoms: C_1  and  C_2
REMARK    2  A    between atoms: C_2  and  C_4
REMARK    3  A    between atoms: C_5  and  C_6
REMARK    4  A    between atoms: N_8  and  C_9
REMARK    5  A    between atoms: N_8  and  C_17
REMARK    6  A    between atoms: C_9  and  C_10
REMARK    7  A    between atoms: C_17  and  C_18
REMARK    8  A    between atoms: C_18  and  C_19
REMARK    9  A    between atoms: C_18  and  C_20
REMARK                            x       y       z     vdW  Elec       q    Type
REMARK                         _______ _______ _______ _____ _____    ______ ____
ROOT
ATOM      1  C   UNL     1       6.237   5.110  15.042  0.00  0.00    +0.000 C 
ATOM      2  O   UNL     1       7.281   5.615  14.631  0.00  0.00    +0.000 OA
ATOM      3  N   UNL     1       5.645   5.477  16.244  0.00  0.00    +0.000 N 
ENDROOT
BRANCH   1   5
ATOM      4  C   UNL     1       6.177   3.571  13.136  0.00  0.00    +0.000 C 
ATOM      5  C   UNL     1       5.544   4.097  14.202  0.00  0.00    +0.000 C 
BRANCH   4   7
ATOM      6  C   UNL     1       4.495   3.384  11.285  0.00  0.00    +0.000 C 
ATOM      7  C   UNL     1       5.527   2.663  12.139  0.00  0.00    +0.000 C 
ATOM      8 BR   UNL     1       6.929   1.946  10.987  0.00  0.00    +0.000 Br
ENDBRANCH   4   7
ENDBRANCH   1   5
BRANCH   3   9
ATOM      9  C   UNL     1       4.465   4.834  16.836  0.00  0.00    +0.000 C 
BRANCH   9  10
ATOM     10  C   UNL     1       3.654   5.692  17.795  0.00  0.00    +0.000 A 
ATOM     11  C   UNL     1       3.236   7.001  17.500  0.00  0.00    +0.000 A 
ATOM     12  C   UNL     1       2.533   7.760  18.444  0.00  0.00    +0.000 A 
ATOM     13  C   UNL     1       2.228   7.216  19.689  0.00  0.00    +0.000 A 
ATOM     14 CL   UNL     1       1.392   8.164  20.858  0.00  0.00    +0.000 Cl
ATOM     15  C   UNL     1       2.605   5.913  19.992  0.00  0.00    +0.000 A 
ATOM     16  C   UNL     1       3.311   5.156  19.051  0.00  0.00    +0.000 A 
ENDBRANCH   9  10
ENDBRANCH   3   9
BRANCH   3  17
ATOM     17  C   UNL     1       6.244   6.598  16.981  0.00  0.00    +0.000 C 
BRANCH  17  18
ATOM     18  C   UNL     1       7.087   6.221  18.219  0.00  0.00    +0.000 C 
ATOM     19  C   UNL     1       7.785   4.864  18.106  0.00  0.00    +0.000 C 
ATOM     20  C   UNL     1       8.151   7.303  18.444  0.00  0.00    +0.000 C 
ENDBRANCH  17  18
ENDBRANCH   3  17
TORSDOF 6
ENDMDL
