MODEL 1
REMARK VINA RESULT:      -6.6      0.000      0.000
REMARK  Name = 
REMARK  9 active torsions:
REMARK  status: ('A' for Active; 'I' for Inactive)
REMARK    1  A    between atoms: C_1  and  C_2
REMARK    2  A    between atoms: C_2  and  O_3
REMARK    3  A    between atoms: O_3  and  C_4
REMARK    4  A    between atoms: C_8  and  C_9
REMARK    5  A    between atoms: N_11  and  C_12
REMARK    6  A    between atoms: C_18  and  C_19
REMARK    7  A    between atoms: C_26  and  N_27
REMARK    8  A    between atoms: C_28  and  C_30
REMARK    9  A    between atoms: C_34  and  C_35
REMARK                            x       y       z     vdW  Elec       q    Type
REMARK                         _______ _______ _______ _____ _____    ______ ____
ROOT
ATOM      1  C   UNL     1      -3.803  11.619  18.494  0.00  0.00    +0.000 C 
ATOM      2  N   UNL     1      -2.546  11.577  18.804  0.00  0.00    +0.000 NA
ATOM      3  C   UNL     1      -2.231  12.101  20.008  0.00  0.00    +0.000 A 
ATOM      4  C   UNL     1      -3.070  12.560  20.994  0.00  0.00    +0.000 A 
ATOM      5  C   UNL     1      -2.219  12.858  22.093  0.00  0.00    +0.000 A 
ATOM      6  C   UNL     1      -2.565  13.494  23.397  0.00  0.00    +0.000 C 
ATOM      7  N   UNL     1      -0.933  12.623  21.794  0.00  0.00    +0.000 NA
ATOM      8  N   UNL     1      -0.938  12.315  20.464  0.00  0.00    +0.000 N 
ATOM      9  C   UNL     1      -4.530  12.757  20.731  0.00  0.00    +0.000 C 
ATOM     10  C   UNL     1      -4.936  12.292  19.278  0.00  0.00    +0.000 C 
ENDROOT
BRANCH   9  11
ATOM     11  C   UNL     1      -4.798  14.238  21.011  0.00  0.00    +0.000 A 
ATOM     12  C   UNL     1      -3.940  15.266  20.555  0.00  0.00    +0.000 A 
ATOM     13  C   UNL     1      -4.237  16.595  20.774  0.00  0.00    +0.000 A 
ATOM     14  C   UNL     1      -5.431  16.934  21.394  0.00  0.00    +0.000 A 
ATOM     15  F   UNL     1      -5.762  18.223  21.538  0.00  0.00    +0.000 F 
ATOM     16  C   UNL     1      -6.306  15.950  21.852  0.00  0.00    +0.000 A 
ATOM     17  C   UNL     1      -5.975  14.603  21.685  0.00  0.00    +0.000 A 
ENDBRANCH   9  11
BRANCH   8  18
ATOM     18  C   UNL     1       0.258  12.305  19.698  0.00  0.00    +0.000 A 
ATOM     19  C   UNL     1       0.801  11.093  19.276  0.00  0.00    +0.000 A 
ATOM     20  C   UNL     1       1.927  11.094  18.453  0.00  0.00    +0.000 A 
ATOM     21  C   UNL     1       2.539  12.297  18.094  0.00  0.00    +0.000 A 
ATOM     22  C   UNL     1       2.041  13.503  18.568  0.00  0.00    +0.000 A 
ATOM     23  C   UNL     1       0.899  13.514  19.368  0.00  0.00    +0.000 A 
ENDBRANCH   8  18
BRANCH  10  24
ATOM     24  N   UNL     1      -5.469  13.345  18.400  0.00  0.00    +0.000 N 
ATOM     25  C   UNL     1      -6.819  13.467  18.161  0.00  0.00    +0.000 C 
ATOM     26  O   UNL     1      -7.659  12.676  18.575  0.00  0.00    +0.000 OA
ATOM     27  H   UNL     1      -4.859  14.118  18.165  0.00  0.00    +0.000 HD
BRANCH  25  28
ATOM     28  C   UNL     1      -7.218  14.734  17.499  0.00  0.00    +0.000 A 
ATOM     29  C   UNL     1      -7.806  14.761  16.232  0.00  0.00    +0.000 A 
ATOM     30  C   UNL     1      -7.916  15.977  15.552  0.00  0.00    +0.000 A 
ATOM     31  C   UNL     1      -7.427  17.151  16.134  0.00  0.00    +0.000 A 
ATOM     32  C   UNL     1      -6.890  17.133  17.426  0.00  0.00    +0.000 A 
ATOM     33  C   UNL     1      -6.290  18.353  18.060  0.00  0.00    +0.000 C 
ATOM     34  C   UNL     1      -6.826  15.921  18.121  0.00  0.00    +0.000 A 
ENDBRANCH  25  28
ENDBRANCH  10  24
BRANCH   1  35
ATOM     35  O   UNL     1      -4.251  11.067  17.333  0.00  0.00    +0.000 OA
BRANCH  35  37
ATOM     36  C   UNL     1      -2.963   9.887  15.713  0.00  0.00    +0.000 C 
ATOM     37  C   UNL     1      -3.413  11.255  16.183  0.00  0.00    +0.000 C 
ENDBRANCH  35  37
ENDBRANCH   1  35
TORSDOF 6
ENDMDL
MODEL 2
REMARK VINA RESULT:      -6.6      1.435      1.842
REMARK  Name = 
REMARK  9 active torsions:
REMARK  status: ('A' for Active; 'I' for Inactive)
REMARK    1  A    between atoms: C_1  and  C_2
REMARK    2  A    between atoms: C_2  and  O_3
REMARK    3  A    between atoms: O_3  and  C_4
REMARK    4  A    between atoms: C_8  and  C_9
REMARK    5  A    between atoms: N_11  and  C_12
REMARK    6  A    between atoms: C_18  and  C_19
REMARK    7  A    between atoms: C_26  and  N_27
REMARK    8  A    between atoms: C_28  and  C_30
REMARK    9  A    between atoms: C_34  and  C_35
REMARK                            x       y       z     vdW  Elec       q    Type
REMARK                         _______ _______ _______ _____ _____    ______ ____
ROOT
ATOM      1  C   UNL     1      -2.205  11.811  17.974  0.00  0.00    +0.000 C 
ATOM      2  N   UNL     1      -1.009  12.200  18.286  0.00  0.00    +0.000 NA
ATOM      3  C   UNL     1      -0.816  12.479  19.593  0.00  0.00    +0.000 A 
ATOM      4  C   UNL     1      -1.673  12.292  20.649  0.00  0.00    +0.000 A 
ATOM      5  C   UNL     1      -0.909  12.614  21.805  0.00  0.00    +0.000 A 
ATOM      6  C   UNL     1      -1.356  12.699  23.225  0.00  0.00    +0.000 C 
ATOM      7  N   UNL     1       0.333  13.001  21.478  0.00  0.00    +0.000 NA
ATOM      8  N   UNL     1       0.326  13.069  20.115  0.00  0.00    +0.000 N 
ATOM      9  C   UNL     1      -3.110  11.945  20.421  0.00  0.00    +0.000 C 
ATOM     10  C   UNL     1      -3.434  11.746  18.889  0.00  0.00    +0.000 C 
ENDROOT
BRANCH   9  11
ATOM     11  C   UNL     1      -3.910  13.067  21.088  0.00  0.00    +0.000 A 
ATOM     12  C   UNL     1      -3.587  14.435  20.923  0.00  0.00    +0.000 A 
ATOM     13  C   UNL     1      -4.359  15.427  21.490  0.00  0.00    +0.000 A 
ATOM     14  C   UNL     1      -5.513  15.082  22.180  0.00  0.00    +0.000 A 
ATOM     15  F   UNL     1      -6.310  16.043  22.663  0.00  0.00    +0.000 F 
ATOM     16  C   UNL     1      -5.869  13.746  22.358  0.00  0.00    +0.000 A 
ATOM     17  C   UNL     1      -5.053  12.740  21.836  0.00  0.00    +0.000 A 
ENDBRANCH   9  11
BRANCH   8  18
ATOM     18  C   UNL     1       1.354  13.738  19.399  0.00  0.00    +0.000 A 
ATOM     19  C   UNL     1       2.455  13.020  18.933  0.00  0.00    +0.000 A 
ATOM     20  C   UNL     1       3.419  13.665  18.158  0.00  0.00    +0.000 A 
ATOM     21  C   UNL     1       3.312  15.032  17.891  0.00  0.00    +0.000 A 
ATOM     22  C   UNL     1       2.252  15.764  18.409  0.00  0.00    +0.000 A 
ATOM     23  C   UNL     1       1.270  15.123  19.161  0.00  0.00    +0.000 A 
ENDBRANCH   8  18
BRANCH  10  24
ATOM     24  N   UNL     1      -4.415  12.682  18.320  0.00  0.00    +0.000 N 
ATOM     25  C   UNL     1      -5.722  12.310  18.101  0.00  0.00    +0.000 C 
ATOM     26  O   UNL     1      -6.144  11.172  18.272  0.00  0.00    +0.000 OA
ATOM     27  H   UNL     1      -4.180  13.667  18.313  0.00  0.00    +0.000 HD
BRANCH  25  28
ATOM     28  C   UNL     1      -6.643  13.433  17.800  0.00  0.00    +0.000 A 
ATOM     29  C   UNL     1      -7.116  13.686  16.510  0.00  0.00    +0.000 A 
ATOM     30  C   UNL     1      -7.759  14.896  16.238  0.00  0.00    +0.000 A 
ATOM     31  C   UNL     1      -7.911  15.850  17.250  0.00  0.00    +0.000 A 
ATOM     32  C   UNL     1      -7.489  15.574  18.555  0.00  0.00    +0.000 A 
ATOM     33  C   UNL     1      -7.568  16.592  19.654  0.00  0.00    +0.000 C 
ATOM     34  C   UNL     1      -6.890  14.342  18.831  0.00  0.00    +0.000 A 
ENDBRANCH  25  28
ENDBRANCH  10  24
BRANCH   1  35
ATOM     35  O   UNL     1      -2.506  11.444  16.698  0.00  0.00    +0.000 OA
BRANCH  35  37
ATOM     36  C   UNL     1      -2.933   9.832  14.996  0.00  0.00    +0.000 C 
ATOM     37  C   UNL     1      -2.480  10.034  16.427  0.00  0.00    +0.000 C 
ENDBRANCH  35  37
ENDBRANCH   1  35
TORSDOF 6
ENDMDL
MODEL 3
REMARK VINA RESULT:      -6.6      0.931      1.336
REMARK  Name = 
REMARK  9 active torsions:
REMARK  status: ('A' for Active; 'I' for Inactive)
REMARK    1  A    between atoms: C_1  and  C_2
REMARK    2  A    between atoms: C_2  and  O_3
REMARK    3  A    between atoms: O_3  and  C_4
REMARK    4  A    between atoms: C_8  and  C_9
REMARK    5  A    between atoms: N_11  and  C_12
REMARK    6  A    between atoms: C_18  and  C_19
REMARK    7  A    between atoms: C_26  and  N_27
REMARK    8  A    between atoms: C_28  and  C_30
REMARK    9  A    between atoms: C_34  and  C_35
REMARK                            x       y       z     vdW  Elec       q    Type
REMARK                         _______ _______ _______ _____ _____    ______ ____
ROOT
ATOM      1  C   UNL     1      -3.207  11.718  17.855  0.00  0.00    +0.000 C 
ATOM      2  N   UNL     1      -1.984  11.898  18.244  0.00  0.00    +0.000 NA
ATOM      3  C   UNL     1      -1.831  12.170  19.558  0.00  0.00    +0.000 A 
ATOM      4  C   UNL     1      -2.775  12.163  20.555  0.00  0.00    +0.000 A 
ATOM      5  C   UNL     1      -2.045  12.374  21.756  0.00  0.00    +0.000 A 
ATOM      6  C   UNL     1      -2.562  12.570  23.141  0.00  0.00    +0.000 C 
ATOM      7  N   UNL     1      -0.736  12.529  21.512  0.00  0.00    +0.000 NA
ATOM      8  N   UNL     1      -0.640  12.564  20.151  0.00  0.00    +0.000 N 
ATOM      9  C   UNL     1      -4.233  12.068  20.232  0.00  0.00    +0.000 C 
ATOM     10  C   UNL     1      -4.485  11.891  18.684  0.00  0.00    +0.000 C 
ENDROOT
BRANCH   9  11
ATOM     11  C   UNL     1      -4.865  13.328  20.828  0.00  0.00    +0.000 A 
ATOM     12  C   UNL     1      -6.003  13.286  21.667  0.00  0.00    +0.000 A 
ATOM     13  C   UNL     1      -6.517  14.432  22.235  0.00  0.00    +0.000 A 
ATOM     14  C   UNL     1      -5.869  15.643  22.034  0.00  0.00    +0.000 A 
ATOM     15  F   UNL     1      -6.316  16.746  22.647  0.00  0.00    +0.000 F 
ATOM     16  C   UNL     1      -4.741  15.725  21.219  0.00  0.00    +0.000 A 
ATOM     17  C   UNL     1      -4.257  14.572  20.595  0.00  0.00    +0.000 A 
ENDBRANCH   9  11
BRANCH   8  18
ATOM     18  C   UNL     1       0.535  13.025  19.500  0.00  0.00    +0.000 A 
ATOM     19  C   UNL     1       1.436  12.106  18.964  0.00  0.00    +0.000 A 
ATOM     20  C   UNL     1       2.545  12.565  18.251  0.00  0.00    +0.000 A 
ATOM     21  C   UNL     1       2.780  13.936  18.117  0.00  0.00    +0.000 A 
ATOM     22  C   UNL     1       1.921  14.853  18.706  0.00  0.00    +0.000 A 
ATOM     23  C   UNL     1       0.796  14.404  19.397  0.00  0.00    +0.000 A 
ENDBRANCH   8  18
BRANCH  10  24
ATOM     24  N   UNL     1      -5.246  12.971  18.037  0.00  0.00    +0.000 N 
ATOM     25  C   UNL     1      -6.620  12.935  17.958  0.00  0.00    +0.000 C 
ATOM     26  O   UNL     1      -7.299  11.985  18.329  0.00  0.00    +0.000 OA
ATOM     27  H   UNL     1      -4.769  13.847  17.862  0.00  0.00    +0.000 HD
BRANCH  25  28
ATOM     28  C   UNL     1      -7.249  14.214  17.542  0.00  0.00    +0.000 A 
ATOM     29  C   UNL     1      -7.527  14.509  16.206  0.00  0.00    +0.000 A 
ATOM     30  C   UNL     1      -7.869  15.815  15.847  0.00  0.00    +0.000 A 
ATOM     31  C   UNL     1      -7.916  16.819  16.821  0.00  0.00    +0.000 A 
ATOM     32  C   UNL     1      -7.693  16.512  18.168  0.00  0.00    +0.000 A 
ATOM     33  C   UNL     1      -7.664  17.566  19.234  0.00  0.00    +0.000 C 
ATOM     34  C   UNL     1      -7.398  15.193  18.527  0.00  0.00    +0.000 A 
ENDBRANCH  25  28
ENDBRANCH  10  24
BRANCH   1  35
ATOM     35  O   UNL     1      -3.483  11.378  16.566  0.00  0.00    +0.000 OA
BRANCH  35  37
ATOM     36  C   UNL     1      -3.109  10.104  14.588  0.00  0.00    +0.000 C 
ATOM     37  C   UNL     1      -2.833  10.196  16.075  0.00  0.00    +0.000 C 
ENDBRANCH  35  37
ENDBRANCH   1  35
TORSDOF 6
ENDMDL
MODEL 4
REMARK VINA RESULT:      -6.6      3.846      6.661
REMARK  Name = 
REMARK  9 active torsions:
REMARK  status: ('A' for Active; 'I' for Inactive)
REMARK    1  A    between atoms: C_1  and  C_2
REMARK    2  A    between atoms: C_2  and  O_3
REMARK    3  A    between atoms: O_3  and  C_4
REMARK    4  A    between atoms: C_8  and  C_9
REMARK    5  A    between atoms: N_11  and  C_12
REMARK    6  A    between atoms: C_18  and  C_19
REMARK    7  A    between atoms: C_26  and  N_27
REMARK    8  A    between atoms: C_28  and  C_30
REMARK    9  A    between atoms: C_34  and  C_35
REMARK                            x       y       z     vdW  Elec       q    Type
REMARK                         _______ _______ _______ _____ _____    ______ ____
ROOT
ATOM      1  C   UNL     1       1.147  13.802  20.040  0.00  0.00    +0.000 C 
ATOM      2  N   UNL     1       1.191  12.607  19.543  0.00  0.00    +0.000 NA
ATOM      3  C   UNL     1      -0.008  12.059  19.248  0.00  0.00    +0.000 A 
ATOM      4  C   UNL     1      -1.252  12.638  19.290  0.00  0.00    +0.000 A 
ATOM      5  C   UNL     1      -2.130  11.663  18.742  0.00  0.00    +0.000 A 
ATOM      6  C   UNL     1      -3.617  11.698  18.639  0.00  0.00    +0.000 C 
ATOM      7  N   UNL     1      -1.471  10.543  18.408  0.00  0.00    +0.000 NA
ATOM      8  N   UNL     1      -0.202  10.738  18.872  0.00  0.00    +0.000 N 
ATOM      9  C   UNL     1      -1.459  13.972  19.934  0.00  0.00    +0.000 C 
ATOM     10  C   UNL     1      -0.100  14.604  20.432  0.00  0.00    +0.000 C 
ENDROOT
BRANCH   9  11
ATOM     11  C   UNL     1      -2.481  13.733  21.047  0.00  0.00    +0.000 A 
ATOM     12  C   UNL     1      -2.375  12.659  21.961  0.00  0.00    +0.000 A 
ATOM     13  C   UNL     1      -3.280  12.500  22.989  0.00  0.00    +0.000 A 
ATOM     14  C   UNL     1      -4.277  13.449  23.172  0.00  0.00    +0.000 A 
ATOM     15  F   UNL     1      -5.109  13.345  24.215  0.00  0.00    +0.000 F 
ATOM     16  C   UNL     1      -4.411  14.526  22.296  0.00  0.00    +0.000 A 
ATOM     17  C   UNL     1      -3.530  14.651  21.219  0.00  0.00    +0.000 A 
ENDBRANCH   9  11
BRANCH   8  18
ATOM     18  C   UNL     1       0.718   9.663  18.994  0.00  0.00    +0.000 A 
ATOM     19  C   UNL     1       0.915   9.057  20.234  0.00  0.00    +0.000 A 
ATOM     20  C   UNL     1       1.755   7.947  20.330  0.00  0.00    +0.000 A 
ATOM     21  C   UNL     1       2.435   7.475  19.204  0.00  0.00    +0.000 A 
ATOM     22  C   UNL     1       2.292   8.117  17.982  0.00  0.00    +0.000 A 
ATOM     23  C   UNL     1       1.433   9.210  17.870  0.00  0.00    +0.000 A 
ENDBRANCH   8  18
BRANCH  10  24
ATOM     24  N   UNL     1       0.001  14.832  21.881  0.00  0.00    +0.000 N 
ATOM     25  C   UNL     1      -0.244  16.068  22.435  0.00  0.00    +0.000 C 
ATOM     26  O   UNL     1      -0.471  17.076  21.776  0.00  0.00    +0.000 OA
ATOM     27  H   UNL     1       0.020  14.020  22.487  0.00  0.00    +0.000 HD
BRANCH  25  28
ATOM     28  C   UNL     1      -0.384  16.068  23.912  0.00  0.00    +0.000 A 
ATOM     29  C   UNL     1      -1.286  15.233  24.576  0.00  0.00    +0.000 A 
ATOM     30  C   UNL     1      -1.565  15.458  25.926  0.00  0.00    +0.000 A 
ATOM     31  C   UNL     1      -0.954  16.522  26.599  0.00  0.00    +0.000 A 
ATOM     32  C   UNL     1      -0.007  17.323  25.950  0.00  0.00    +0.000 A 
ATOM     33  C   UNL     1       0.620  18.514  26.610  0.00  0.00    +0.000 C 
ATOM     34  C   UNL     1       0.303  17.062  24.612  0.00  0.00    +0.000 A 
ENDBRANCH  25  28
ENDBRANCH  10  24
BRANCH   1  35
ATOM     35  O   UNL     1       2.292  14.482  20.321  0.00  0.00    +0.000 OA
BRANCH  35  37
ATOM     36  C   UNL     1       3.192  15.362  18.298  0.00  0.00    +0.000 C 
ATOM     37  C   UNL     1       3.366  14.318  19.382  0.00  0.00    +0.000 C 
ENDBRANCH  35  37
ENDBRANCH   1  35
TORSDOF 6
ENDMDL
MODEL 5
REMARK VINA RESULT:      -6.5      1.644      2.429
REMARK  Name = 
REMARK  9 active torsions:
REMARK  status: ('A' for Active; 'I' for Inactive)
REMARK    1  A    between atoms: C_1  and  C_2
REMARK    2  A    between atoms: C_2  and  O_3
REMARK    3  A    between atoms: O_3  and  C_4
REMARK    4  A    between atoms: C_8  and  C_9
REMARK    5  A    between atoms: N_11  and  C_12
REMARK    6  A    between atoms: C_18  and  C_19
REMARK    7  A    between atoms: C_26  and  N_27
REMARK    8  A    between atoms: C_28  and  C_30
REMARK    9  A    between atoms: C_34  and  C_35
REMARK                            x       y       z     vdW  Elec       q    Type
REMARK                         _______ _______ _______ _____ _____    ______ ____
ROOT
ATOM      1  C   UNL     1      -1.835  11.977  18.128  0.00  0.00    +0.000 C 
ATOM      2  N   UNL     1      -0.688  12.521  18.384  0.00  0.00    +0.000 NA
ATOM      3  C   UNL     1      -0.512  12.926  19.660  0.00  0.00    +0.000 A 
ATOM      4  C   UNL     1      -1.331  12.731  20.746  0.00  0.00    +0.000 A 
ATOM      5  C   UNL     1      -0.596  13.230  21.856  0.00  0.00    +0.000 A 
ATOM      6  C   UNL     1      -1.032  13.380  23.273  0.00  0.00    +0.000 C 
ATOM      7  N   UNL     1       0.591  13.726  21.474  0.00  0.00    +0.000 NA
ATOM      8  N   UNL     1       0.561  13.681  20.110  0.00  0.00    +0.000 N 
ATOM      9  C   UNL     1      -2.722  12.208  20.576  0.00  0.00    +0.000 C 
ATOM     10  C   UNL     1      -3.038  11.849  19.071  0.00  0.00    +0.000 C 
ENDROOT
BRANCH   9  11
ATOM     11  C   UNL     1      -3.636  13.284  21.166  0.00  0.00    +0.000 A 
ATOM     12  C   UNL     1      -4.662  12.986  22.094  0.00  0.00    +0.000 A 
ATOM     13  C   UNL     1      -5.434  13.982  22.653  0.00  0.00    +0.000 A 
ATOM     14  C   UNL     1      -5.159  15.308  22.351  0.00  0.00    +0.000 A 
ATOM     15  F   UNL     1      -5.852  16.284  22.951  0.00  0.00    +0.000 F 
ATOM     16  C   UNL     1      -4.153  15.643  21.445  0.00  0.00    +0.000 A 
ATOM     17  C   UNL     1      -3.411  14.629  20.833  0.00  0.00    +0.000 A 
ENDBRANCH   9  11
BRANCH   8  18
ATOM     18  C   UNL     1       1.499  14.400  19.322  0.00  0.00    +0.000 A 
ATOM     19  C   UNL     1       1.225  15.716  18.949  0.00  0.00    +0.000 A 
ATOM     20  C   UNL     1       2.186  16.446  18.248  0.00  0.00    +0.000 A 
ATOM     21  C   UNL     1       3.394  15.849  17.877  0.00  0.00    +0.000 A 
ATOM     22  C   UNL     1       3.642  14.520  18.189  0.00  0.00    +0.000 A 
ATOM     23  C   UNL     1       2.699  13.791  18.913  0.00  0.00    +0.000 A 
ENDBRANCH   8  18
BRANCH  10  24
ATOM     24  N   UNL     1      -4.126  12.620  18.449  0.00  0.00    +0.000 N 
ATOM     25  C   UNL     1      -5.424  12.162  18.451  0.00  0.00    +0.000 C 
ATOM     26  O   UNL     1      -5.758  11.063  18.878  0.00  0.00    +0.000 OA
ATOM     27  H   UNL     1      -3.951  13.593  18.231  0.00  0.00    +0.000 HD
BRANCH  25  28
ATOM     28  C   UNL     1      -6.436  13.171  18.049  0.00  0.00    +0.000 A 
ATOM     29  C   UNL     1      -6.799  13.373  16.715  0.00  0.00    +0.000 A 
ATOM     30  C   UNL     1      -7.548  14.500  16.370  0.00  0.00    +0.000 A 
ATOM     31  C   UNL     1      -7.917  15.424  17.355  0.00  0.00    +0.000 A 
ATOM     32  C   UNL     1      -7.602  15.192  18.699  0.00  0.00    +0.000 A 
ATOM     33  C   UNL     1      -7.915  16.187  19.776  0.00  0.00    +0.000 C 
ATOM     34  C   UNL     1      -6.893  14.037  19.043  0.00  0.00    +0.000 A 
ENDBRANCH  25  28
ENDBRANCH  10  24
BRANCH   1  35
ATOM     35  O   UNL     1      -2.107  11.475  16.892  0.00  0.00    +0.000 OA
BRANCH  35  37
ATOM     36  C   UNL     1      -3.335   9.779  15.755  0.00  0.00    +0.000 C 
ATOM     37  C   UNL     1      -2.291  10.053  16.818  0.00  0.00    +0.000 C 
ENDBRANCH  35  37
ENDBRANCH   1  35
TORSDOF 6
ENDMDL
MODEL 6
REMARK VINA RESULT:      -6.5      3.569      5.417
REMARK  Name = 
REMARK  9 active torsions:
REMARK  status: ('A' for Active; 'I' for Inactive)
REMARK    1  A    between atoms: C_1  and  C_2
REMARK    2  A    between atoms: C_2  and  O_3
REMARK    3  A    between atoms: O_3  and  C_4
REMARK    4  A    between atoms: C_8  and  C_9
REMARK    5  A    between atoms: N_11  and  C_12
REMARK    6  A    between atoms: C_18  and  C_19
REMARK    7  A    between atoms: C_26  and  N_27
REMARK    8  A    between atoms: C_28  and  C_30
REMARK    9  A    between atoms: C_34  and  C_35
REMARK                            x       y       z     vdW  Elec       q    Type
REMARK                         _______ _______ _______ _____ _____    ______ ____
ROOT
ATOM      1  C   UNL     1      -0.637  13.467  20.225  0.00  0.00    +0.000 C 
ATOM      2  N   UNL     1      -0.041  14.463  19.649  0.00  0.00    +0.000 NA
ATOM      3  C   UNL     1       0.328  15.468  20.473  0.00  0.00    +0.000 A 
ATOM      4  C   UNL     1       0.269  15.525  21.843  0.00  0.00    +0.000 A 
ATOM      5  C   UNL     1       0.919  16.740  22.191  0.00  0.00    +0.000 A 
ATOM      6  C   UNL     1       1.055  17.376  23.532  0.00  0.00    +0.000 C 
ATOM      7  N   UNL     1       1.330  17.404  21.100  0.00  0.00    +0.000 NA
ATOM      8  N   UNL     1       0.820  16.695  20.051  0.00  0.00    +0.000 N 
ATOM      9  C   UNL     1      -0.481  14.492  22.624  0.00  0.00    +0.000 C 
ATOM     10  C   UNL     1      -1.064  13.357  21.693  0.00  0.00    +0.000 C 
ENDROOT
BRANCH   9  11
ATOM     11  C   UNL     1      -1.545  15.265  23.407  0.00  0.00    +0.000 A 
ATOM     12  C   UNL     1      -2.427  16.183  22.790  0.00  0.00    +0.000 A 
ATOM     13  C   UNL     1      -3.412  16.824  23.510  0.00  0.00    +0.000 A 
ATOM     14  C   UNL     1      -3.586  16.515  24.852  0.00  0.00    +0.000 A 
ATOM     15  F   UNL     1      -4.591  17.073  25.538  0.00  0.00    +0.000 F 
ATOM     16  C   UNL     1      -2.741  15.611  25.495  0.00  0.00    +0.000 A 
ATOM     17  C   UNL     1      -1.704  15.009  24.778  0.00  0.00    +0.000 A 
ENDBRANCH   9  11
BRANCH   8  18
ATOM     18  C   UNL     1       0.768  17.240  18.741  0.00  0.00    +0.000 A 
ATOM     19  C   UNL     1      -0.419  17.799  18.269  0.00  0.00    +0.000 A 
ATOM     20  C   UNL     1      -0.442  18.409  17.015  0.00  0.00    +0.000 A 
ATOM     21  C   UNL     1       0.702  18.417  16.213  0.00  0.00    +0.000 A 
ATOM     22  C   UNL     1       1.868  17.804  16.652  0.00  0.00    +0.000 A 
ATOM     23  C   UNL     1       1.907  17.216  17.915  0.00  0.00    +0.000 A 
ENDBRANCH   8  18
BRANCH  10  24
ATOM     24  N   UNL     1      -2.530  13.236  21.682  0.00  0.00    +0.000 N 
ATOM     25  C   UNL     1      -3.197  12.488  22.626  0.00  0.00    +0.000 C 
ATOM     26  O   UNL     1      -2.637  11.807  23.477  0.00  0.00    +0.000 OA
ATOM     27  H   UNL     1      -3.055  13.895  21.120  0.00  0.00    +0.000 HD
BRANCH  25  28
ATOM     28  C   UNL     1      -4.666  12.697  22.655  0.00  0.00    +0.000 A 
ATOM     29  C   UNL     1      -5.365  12.922  23.844  0.00  0.00    +0.000 A 
ATOM     30  C   UNL     1      -6.760  12.848  23.845  0.00  0.00    +0.000 A 
ATOM     31  C   UNL     1      -7.446  12.536  22.666  0.00  0.00    +0.000 A 
ATOM     32  C   UNL     1      -6.750  12.368  21.463  0.00  0.00    +0.000 A 
ATOM     33  C   UNL     1      -7.436  11.965  20.192  0.00  0.00    +0.000 C 
ATOM     34  C   UNL     1      -5.357  12.491  21.459  0.00  0.00    +0.000 A 
ENDBRANCH  25  28
ENDBRANCH  10  24
BRANCH   1  35
ATOM     35  O   UNL     1      -1.002  12.368  19.509  0.00  0.00    +0.000 OA
BRANCH  35  37
ATOM     36  C   UNL     1      -2.163  11.586  17.581  0.00  0.00    +0.000 C 
ATOM     37  C   UNL     1      -1.111  12.550  18.089  0.00  0.00    +0.000 C 
ENDBRANCH  35  37
ENDBRANCH   1  35
TORSDOF 6
ENDMDL
MODEL 7
REMARK VINA RESULT:      -6.3      3.775      6.579
REMARK  Name = 
REMARK  9 active torsions:
REMARK  status: ('A' for Active; 'I' for Inactive)
REMARK    1  A    between atoms: C_1  and  C_2
REMARK    2  A    between atoms: C_2  and  O_3
REMARK    3  A    between atoms: O_3  and  C_4
REMARK    4  A    between atoms: C_8  and  C_9
REMARK    5  A    between atoms: N_11  and  C_12
REMARK    6  A    between atoms: C_18  and  C_19
REMARK    7  A    between atoms: C_26  and  N_27
REMARK    8  A    between atoms: C_28  and  C_30
REMARK    9  A    between atoms: C_34  and  C_35
REMARK                            x       y       z     vdW  Elec       q    Type
REMARK                         _______ _______ _______ _____ _____    ______ ____
ROOT
ATOM      1  C   UNL     1       1.168  13.811  19.899  0.00  0.00    +0.000 C 
ATOM      2  N   UNL     1       1.206  12.579  19.499  0.00  0.00    +0.000 NA
ATOM      3  C   UNL     1       0.008  12.030  19.205  0.00  0.00    +0.000 A 
ATOM      4  C   UNL     1      -1.226  12.630  19.156  0.00  0.00    +0.000 A 
ATOM      5  C   UNL     1      -2.103  11.630  18.655  0.00  0.00    +0.000 A 
ATOM      6  C   UNL     1      -3.585  11.682  18.497  0.00  0.00    +0.000 C 
ATOM      7  N   UNL     1      -1.455  10.477  18.434  0.00  0.00    +0.000 NA
ATOM      8  N   UNL     1      -0.199  10.687  18.927  0.00  0.00    +0.000 N 
ATOM      9  C   UNL     1      -1.429  14.015  19.686  0.00  0.00    +0.000 C 
ATOM     10  C   UNL     1      -0.076  14.662  20.182  0.00  0.00    +0.000 C 
ENDROOT
BRANCH   9  11
ATOM     11  C   UNL     1      -2.494  13.881  20.778  0.00  0.00    +0.000 A 
ATOM     12  C   UNL     1      -2.446  12.873  21.769  0.00  0.00    +0.000 A 
ATOM     13  C   UNL     1      -3.388  12.811  22.773  0.00  0.00    +0.000 A 
ATOM     14  C   UNL     1      -4.365  13.794  22.854  0.00  0.00    +0.000 A 
ATOM     15  F   UNL     1      -5.234  13.785  23.872  0.00  0.00    +0.000 F 
ATOM     16  C   UNL     1      -4.442  14.807  21.899  0.00  0.00    +0.000 A 
ATOM     17  C   UNL     1      -3.523  14.834  20.847  0.00  0.00    +0.000 A 
ENDBRANCH   9  11
BRANCH   8  18
ATOM     18  C   UNL     1       0.695   9.610  19.165  0.00  0.00    +0.000 A 
ATOM     19  C   UNL     1       0.784   9.050  20.439  0.00  0.00    +0.000 A 
ATOM     20  C   UNL     1       1.600   7.938  20.647  0.00  0.00    +0.000 A 
ATOM     21  C   UNL     1       2.364   7.417  19.600  0.00  0.00    +0.000 A 
ATOM     22  C   UNL     1       2.329   8.012  18.346  0.00  0.00    +0.000 A 
ATOM     23  C   UNL     1       1.496   9.107  18.122  0.00  0.00    +0.000 A 
ENDBRANCH   8  18
BRANCH  10  24
ATOM     24  N   UNL     1      -0.021  15.001  21.612  0.00  0.00    +0.000 N 
ATOM     25  C   UNL     1      -0.042  16.308  22.043  0.00  0.00    +0.000 C 
ATOM     26  O   UNL     1      -0.017  17.274  21.289  0.00  0.00    +0.000 OA
ATOM     27  H   UNL     1      -0.206  14.262  22.280  0.00  0.00    +0.000 HD
BRANCH  25  28
ATOM     28  C   UNL     1      -0.270  16.475  23.500  0.00  0.00    +0.000 A 
ATOM     29  C   UNL     1       0.671  17.078  24.338  0.00  0.00    +0.000 A 
ATOM     30  C   UNL     1       0.524  16.973  25.723  0.00  0.00    +0.000 A 
ATOM     31  C   UNL     1      -0.550  16.255  26.261  0.00  0.00    +0.000 A 
ATOM     32  C   UNL     1      -1.524  15.700  25.423  0.00  0.00    +0.000 A 
ATOM     33  C   UNL     1      -2.652  14.865  25.950  0.00  0.00    +0.000 C 
ATOM     34  C   UNL     1      -1.396  15.850  24.038  0.00  0.00    +0.000 A 
ENDBRANCH  25  28
ENDBRANCH  10  24
BRANCH   1  35
ATOM     35  O   UNL     1       2.316  14.492  20.167  0.00  0.00    +0.000 OA
BRANCH  35  37
ATOM     36  C   UNL     1       3.402  15.052  18.121  0.00  0.00    +0.000 C 
ATOM     37  C   UNL     1       2.611  15.593  19.295  0.00  0.00    +0.000 C 
ENDBRANCH  35  37
ENDBRANCH   1  35
TORSDOF 6
ENDMDL
MODEL 8
REMARK VINA RESULT:      -6.3      3.482      5.176
REMARK  Name = 
REMARK  9 active torsions:
REMARK  status: ('A' for Active; 'I' for Inactive)
REMARK    1  A    between atoms: C_1  and  C_2
REMARK    2  A    between atoms: C_2  and  O_3
REMARK    3  A    between atoms: O_3  and  C_4
REMARK    4  A    between atoms: C_8  and  C_9
REMARK    5  A    between atoms: N_11  and  C_12
REMARK    6  A    between atoms: C_18  and  C_19
REMARK    7  A    between atoms: C_26  and  N_27
REMARK    8  A    between atoms: C_28  and  C_30
REMARK    9  A    between atoms: C_34  and  C_35
REMARK                            x       y       z     vdW  Elec       q    Type
REMARK                         _______ _______ _______ _____ _____    ______ ____
ROOT
ATOM      1  C   UNL     1      -0.595  13.700  20.277  0.00  0.00    +0.000 C 
ATOM      2  N   UNL     1      -0.033  14.736  19.740  0.00  0.00    +0.000 NA
ATOM      3  C   UNL     1       0.117  15.801  20.557  0.00  0.00    +0.000 A 
ATOM      4  C   UNL     1      -0.131  15.894  21.905  0.00  0.00    +0.000 A 
ATOM      5  C   UNL     1       0.338  17.183  22.278  0.00  0.00    +0.000 A 
ATOM      6  C   UNL     1       0.226  17.871  23.596  0.00  0.00    +0.000 C 
ATOM      7  N   UNL     1       0.821  17.852  21.221  0.00  0.00    +0.000 NA
ATOM      8  N   UNL     1       0.532  17.060  20.148  0.00  0.00    +0.000 N 
ATOM      9  C   UNL     1      -0.869  14.810  22.627  0.00  0.00    +0.000 C 
ATOM     10  C   UNL     1      -1.202  13.591  21.681  0.00  0.00    +0.000 C 
ENDROOT
BRANCH   9  11
ATOM     11  C   UNL     1      -2.102  15.489  23.229  0.00  0.00    +0.000 A 
ATOM     12  C   UNL     1      -3.015  16.237  22.450  0.00  0.00    +0.000 A 
ATOM     13  C   UNL     1      -4.148  16.790  23.009  0.00  0.00    +0.000 A 
ATOM     14  C   UNL     1      -4.433  16.554  24.347  0.00  0.00    +0.000 A 
ATOM     15  F   UNL     1      -5.570  17.020  24.876  0.00  0.00    +0.000 F 
ATOM     16  C   UNL     1      -3.560  15.817  25.146  0.00  0.00    +0.000 A 
ATOM     17  C   UNL     1      -2.382  15.309  24.593  0.00  0.00    +0.000 A 
ENDBRANCH   9  11
BRANCH   8  18
ATOM     18  C   UNL     1       0.600  17.555  18.819  0.00  0.00    +0.000 A 
ATOM     19  C   UNL     1       1.786  17.436  18.095  0.00  0.00    +0.000 A 
ATOM     20  C   UNL     1       1.822  17.846  16.762  0.00  0.00    +0.000 A 
ATOM     21  C   UNL     1       0.695  18.419  16.169  0.00  0.00    +0.000 A 
ATOM     22  C   UNL     1      -0.468  18.600  16.906  0.00  0.00    +0.000 A 
ATOM     23  C   UNL     1      -0.521  18.168  18.230  0.00  0.00    +0.000 A 
ENDBRANCH   8  18
BRANCH  10  24
ATOM     24  N   UNL     1      -2.632  13.311  21.485  0.00  0.00    +0.000 N 
ATOM     25  C   UNL     1      -3.348  12.557  22.386  0.00  0.00    +0.000 C 
ATOM     26  O   UNL     1      -2.848  11.994  23.353  0.00  0.00    +0.000 OA
ATOM     27  H   UNL     1      -3.136  13.874  20.809  0.00  0.00    +0.000 HD
BRANCH  25  28
ATOM     28  C   UNL     1      -4.820  12.607  22.204  0.00  0.00    +0.000 A 
ATOM     29  C   UNL     1      -5.428  12.359  20.971  0.00  0.00    +0.000 A 
ATOM     30  C   UNL     1      -6.777  12.676  20.794  0.00  0.00    +0.000 A 
ATOM     31  C   UNL     1      -7.505  13.251  21.841  0.00  0.00    +0.000 A 
ATOM     32  C   UNL     1      -6.911  13.447  23.094  0.00  0.00    +0.000 A 
ATOM     33  C   UNL     1      -7.630  14.123  24.222  0.00  0.00    +0.000 C 
ATOM     34  C   UNL     1      -5.574  13.083  23.278  0.00  0.00    +0.000 A 
ENDBRANCH  25  28
ENDBRANCH  10  24
BRANCH   1  35
ATOM     35  O   UNL     1      -0.746  12.546  19.571  0.00  0.00    +0.000 OA
BRANCH  35  37
ATOM     36  C   UNL     1      -2.044  11.700  17.761  0.00  0.00    +0.000 C 
ATOM     37  C   UNL     1      -0.976  12.698  18.162  0.00  0.00    +0.000 C 
ENDBRANCH  35  37
ENDBRANCH   1  35
TORSDOF 6
ENDMDL
MODEL 9
REMARK VINA RESULT:      -6.2      3.032      5.313
REMARK  Name = 
REMARK  9 active torsions:
REMARK  status: ('A' for Active; 'I' for Inactive)
REMARK    1  A    between atoms: C_1  and  C_2
REMARK    2  A    between atoms: C_2  and  O_3
REMARK    3  A    between atoms: O_3  and  C_4
REMARK    4  A    between atoms: C_8  and  C_9
REMARK    5  A    between atoms: N_11  and  C_12
REMARK    6  A    between atoms: C_18  and  C_19
REMARK    7  A    between atoms: C_26  and  N_27
REMARK    8  A    between atoms: C_28  and  C_30
REMARK    9  A    between atoms: C_34  and  C_35
REMARK                            x       y       z     vdW  Elec       q    Type
REMARK                         _______ _______ _______ _____ _____    ______ ____
ROOT
ATOM      1  C   UNL     1       0.723  12.695  21.053  0.00  0.00    +0.000 C 
ATOM      2  N   UNL     1       1.153  13.843  21.474  0.00  0.00    +0.000 NA
ATOM      3  C   UNL     1       0.342  14.477  22.348  0.00  0.00    +0.000 A 
ATOM      4  C   UNL     1      -0.810  14.022  22.941  0.00  0.00    +0.000 A 
ATOM      5  C   UNL     1      -1.168  15.032  23.874  0.00  0.00    +0.000 A 
ATOM      6  C   UNL     1      -2.391  15.129  24.722  0.00  0.00    +0.000 C 
ATOM      7  N   UNL     1      -0.306  16.059  23.840  0.00  0.00    +0.000 NA
ATOM      8  N   UNL     1       0.520  15.780  22.789  0.00  0.00    +0.000 N 
ATOM      9  C   UNL     1      -1.468  12.762  22.474  0.00  0.00    +0.000 C 
ATOM     10  C   UNL     1      -0.634  12.044  21.343  0.00  0.00    +0.000 C 
ENDROOT
BRANCH   9  11
ATOM     11  C   UNL     1      -2.878  13.175  22.043  0.00  0.00    +0.000 A 
ATOM     12  C   UNL     1      -3.115  14.161  21.057  0.00  0.00    +0.000 A 
ATOM     13  C   UNL     1      -4.394  14.472  20.648  0.00  0.00    +0.000 A 
ATOM     14  C   UNL     1      -5.468  13.761  21.166  0.00  0.00    +0.000 A 
ATOM     15  F   UNL     1      -6.705  14.003  20.715  0.00  0.00    +0.000 F 
ATOM     16  C   UNL     1      -5.275  12.778  22.135  0.00  0.00    +0.000 A 
ATOM     17  C   UNL     1      -3.983  12.505  22.593  0.00  0.00    +0.000 A 
ENDBRANCH   9  11
BRANCH   8  18
ATOM     18  C   UNL     1       1.371  16.771  22.230  0.00  0.00    +0.000 A 
ATOM     19  C   UNL     1       2.610  17.030  22.813  0.00  0.00    +0.000 A 
ATOM     20  C   UNL     1       3.477  17.942  22.210  0.00  0.00    +0.000 A 
ATOM     21  C   UNL     1       3.088  18.631  21.059  0.00  0.00    +0.000 A 
ATOM     22  C   UNL     1       1.828  18.424  20.513  0.00  0.00    +0.000 A 
ATOM     23  C   UNL     1       0.966  17.495  21.093  0.00  0.00    +0.000 A 
ENDBRANCH   8  18
BRANCH  10  24
ATOM     24  N   UNL     1      -1.308  11.913  20.042  0.00  0.00    +0.000 N 
ATOM     25  C   UNL     1      -1.319  10.720  19.354  0.00  0.00    +0.000 C 
ATOM     26  O   UNL     1      -0.709   9.720  19.714  0.00  0.00    +0.000 OA
ATOM     27  H   UNL     1      -1.961  12.639  19.772  0.00  0.00    +0.000 HD
BRANCH  25  28
ATOM     28  C   UNL     1      -2.272  10.671  18.217  0.00  0.00    +0.000 A 
ATOM     29  C   UNL     1      -1.912  10.170  16.963  0.00  0.00    +0.000 A 
ATOM     30  C   UNL     1      -2.752  10.389  15.869  0.00  0.00    +0.000 A 
ATOM     31  C   UNL     1      -3.935  11.118  16.029  0.00  0.00    +0.000 A 
ATOM     32  C   UNL     1      -4.324  11.571  17.295  0.00  0.00    +0.000 A 
ATOM     33  C   UNL     1      -5.546  12.415  17.503  0.00  0.00    +0.000 C 
ATOM     34  C   UNL     1      -3.502  11.307  18.395  0.00  0.00    +0.000 A 
ENDBRANCH  25  28
ENDBRANCH  10  24
BRANCH   1  35
ATOM     35  O   UNL     1       1.481  11.934  20.216  0.00  0.00    +0.000 OA
BRANCH  35  37
ATOM     36  C   UNL     1       2.304  11.590  18.008  0.00  0.00    +0.000 C 
ATOM     37  C   UNL     1       2.057  12.617  19.093  0.00  0.00    +0.000 C 
ENDBRANCH  35  37
ENDBRANCH   1  35
TORSDOF 6
ENDMDL
