MODEL 1
REMARK VINA RESULT:      -9.2      0.000      0.000
REMARK  Name = 
REMARK  4 active torsions:
REMARK  status: ('A' for Active; 'I' for Inactive)
REMARK    1  A    between atoms: C_1  and  C_2
REMARK    2  A    between atoms: C_2  and  C_3
REMARK    3  A    between atoms: C_9  and  C_10
REMARK    4  A    between atoms: C_17  and  O_18
REMARK                            x       y       z     vdW  Elec       q    Type
REMARK                         _______ _______ _______ _____ _____    ______ ____
ROOT
ATOM      1  C   UNL     1       3.532   2.534  19.268  0.00  0.00    +0.000 C 
ATOM      2  C   UNL     1       2.912   3.860  18.787  0.00  0.00    +0.000 C 
ATOM      3  C   UNL     1       1.473   3.568  18.330  0.00  0.00    +0.000 C 
ATOM      4  O   UNL     1       2.867   4.685  19.983  0.00  0.00    +0.000 OA
ATOM      5  C   UNL     1       2.574   6.012  19.747  0.00  0.00    +0.000 A 
ATOM      6  C   UNL     1       1.853   6.691  20.741  0.00  0.00    +0.000 A 
ATOM      7  C   UNL     1       1.470   8.018  20.535  0.00  0.00    +0.000 A 
ATOM      8  O   UNL     1       0.731   8.637  21.514  0.00  0.00    +0.000 OA
ATOM      9  C   UNL     1       0.300   9.939  21.287  0.00  0.00    +0.000 A 
ATOM     10  C   UNL     1       0.580  10.657  20.191  0.00  0.00    +0.000 A 
ATOM     11  C   UNL     1       1.383  10.046  19.142  0.00  0.00    +0.000 A 
ATOM     12  O   UNL     1       1.689  10.648  18.117  0.00  0.00    +0.000 OA
ATOM     13  C   UNL     1       1.815   8.656  19.349  0.00  0.00    +0.000 A 
ATOM     14  C   UNL     1       2.548   7.978  18.363  0.00  0.00    +0.000 A 
ATOM     15  C   UNL     1       2.977   6.651  18.556  0.00  0.00    +0.000 A 
ATOM     16  C   UNL     1       3.781   5.880  17.587  0.00  0.00    +0.000 A 
ATOM     17  C   UNL     1       4.583   6.469  16.594  0.00  0.00    +0.000 A 
ATOM     18  C   UNL     1       5.269   5.705  15.652  0.00  0.00    +0.000 A 
ATOM     19  C   UNL     1       5.196   4.324  15.708  0.00  0.00    +0.000 A 
ATOM     20  C   UNL     1       4.448   3.711  16.712  0.00  0.00    +0.000 A 
ATOM     21  C   UNL     1       3.748   4.476  17.669  0.00  0.00    +0.000 A 
ENDROOT
BRANCH   9  22
ATOM     22  C   UNL     1      -0.576  10.606  22.382  0.00  0.00    +0.000 C 
ATOM     23  O   UNL     1      -0.302  10.291  23.573  0.00  0.00    +0.000 OA
ATOM     24  O   UNL     1      -1.466  11.397  21.941  0.00  0.00    +0.000 OA
ENDBRANCH   9  22
BRANCH  14  25
ATOM     25  O   UNL     1       2.808   8.595  17.159  0.00  0.00    +0.000 OA
ATOM     26  H   UNL     1       3.300   9.430  17.335  0.00  0.00    +0.000 HD
ENDBRANCH  14  25
TORSDOF 2
ENDMDL
MODEL 2
REMARK VINA RESULT:      -8.8      1.803      7.476
REMARK  Name = 
REMARK  4 active torsions:
REMARK  status: ('A' for Active; 'I' for Inactive)
REMARK    1  A    between atoms: C_1  and  C_2
REMARK    2  A    between atoms: C_2  and  C_3
REMARK    3  A    between atoms: C_9  and  C_10
REMARK    4  A    between atoms: C_17  and  O_18
REMARK                            x       y       z     vdW  Elec       q    Type
REMARK                         _______ _______ _______ _____ _____    ______ ____
ROOT
ATOM      1  C   UNL     1      -0.413  12.444  18.850  0.00  0.00    +0.000 C 
ATOM      2  C   UNL     1      -0.163  10.936  19.045  0.00  0.00    +0.000 C 
ATOM      3  C   UNL     1      -1.210  10.175  18.213  0.00  0.00    +0.000 C 
ATOM      4  O   UNL     1       1.150  10.716  18.464  0.00  0.00    +0.000 OA
ATOM      5  C   UNL     1       1.694   9.479  18.742  0.00  0.00    +0.000 A 
ATOM      6  C   UNL     1       2.521   8.913  17.760  0.00  0.00    +0.000 A 
ATOM      7  C   UNL     1       3.051   7.635  17.954  0.00  0.00    +0.000 A 
ATOM      8  O   UNL     1       3.823   7.098  16.952  0.00  0.00    +0.000 OA
ATOM      9  C   UNL     1       4.305   5.805  17.118  0.00  0.00    +0.000 A 
ATOM     10  C   UNL     1       4.102   5.045  18.203  0.00  0.00    +0.000 A 
ATOM     11  C   UNL     1       3.311   5.589  19.297  0.00  0.00    +0.000 A 
ATOM     12  O   UNL     1       3.094   4.956  20.326  0.00  0.00    +0.000 OA
ATOM     13  C   UNL     1       2.761   6.942  19.122  0.00  0.00    +0.000 A 
ATOM     14  C   UNL     1       1.945   7.517  20.109  0.00  0.00    +0.000 A 
ATOM     15  C   UNL     1       1.424   8.816  19.958  0.00  0.00    +0.000 A 
ATOM     16  C   UNL     1       0.590   9.507  20.960  0.00  0.00    +0.000 A 
ATOM     17  C   UNL     1       0.577   9.178  22.327  0.00  0.00    +0.000 A 
ATOM     18  C   UNL     1      -0.279   9.806  23.229  0.00  0.00    +0.000 A 
ATOM     19  C   UNL     1      -1.121  10.812  22.784  0.00  0.00    +0.000 A 
ATOM     20  C   UNL     1      -1.094  11.194  21.444  0.00  0.00    +0.000 A 
ATOM     21  C   UNL     1      -0.232  10.562  20.523  0.00  0.00    +0.000 A 
ENDROOT
BRANCH   9  22
ATOM     22  C   UNL     1       5.134   5.193  15.956  0.00  0.00    +0.000 C 
ATOM     23  O   UNL     1       5.576   6.015  15.104  0.00  0.00    +0.000 OA
ATOM     24  O   UNL     1       5.270   3.932  16.006  0.00  0.00    +0.000 OA
ENDBRANCH   9  22
BRANCH  14  25
ATOM     25  O   UNL     1       1.597   6.784  21.222  0.00  0.00    +0.000 OA
ATOM     26  H   UNL     1       2.327   6.849  21.880  0.00  0.00    +0.000 HD
ENDBRANCH  14  25
TORSDOF 2
ENDMDL
MODEL 3
REMARK VINA RESULT:      -8.4      1.593      3.771
REMARK  Name = 
REMARK  4 active torsions:
REMARK  status: ('A' for Active; 'I' for Inactive)
REMARK    1  A    between atoms: C_1  and  C_2
REMARK    2  A    between atoms: C_2  and  C_3
REMARK    3  A    between atoms: C_9  and  C_10
REMARK    4  A    between atoms: C_17  and  O_18
REMARK                            x       y       z     vdW  Elec       q    Type
REMARK                         _______ _______ _______ _____ _____    ______ ____
ROOT
ATOM      1  C   UNL     1       4.765   4.182  16.952  0.00  0.00    +0.000 C 
ATOM      2  C   UNL     1       4.354   5.180  18.052  0.00  0.00    +0.000 C 
ATOM      3  C   UNL     1       5.624   5.906  18.527  0.00  0.00    +0.000 C 
ATOM      4  O   UNL     1       3.498   6.133  17.365  0.00  0.00    +0.000 OA
ATOM      5  C   UNL     1       2.809   6.985  18.202  0.00  0.00    +0.000 A 
ATOM      6  C   UNL     1       2.552   8.278  17.722  0.00  0.00    +0.000 A 
ATOM      7  C   UNL     1       1.915   9.209  18.546  0.00  0.00    +0.000 A 
ATOM      8  O   UNL     1       1.717  10.477  18.056  0.00  0.00    +0.000 OA
ATOM      9  C   UNL     1       1.134  11.420  18.893  0.00  0.00    +0.000 A 
ATOM     10  C   UNL     1       0.715  11.180  20.144  0.00  0.00    +0.000 A 
ATOM     11  C   UNL     1       0.884   9.841  20.690  0.00  0.00    +0.000 A 
ATOM     12  O   UNL     1       0.513   9.545  21.822  0.00  0.00    +0.000 OA
ATOM     13  C   UNL     1       1.534   8.840  19.831  0.00  0.00    +0.000 A 
ATOM     14  C   UNL     1       1.780   7.542  20.303  0.00  0.00    +0.000 A 
ATOM     15  C   UNL     1       2.389   6.572  19.484  0.00  0.00    +0.000 A 
ATOM     16  C   UNL     1       2.651   5.177  19.889  0.00  0.00    +0.000 A 
ATOM     17  C   UNL     1       1.954   4.519  20.918  0.00  0.00    +0.000 A 
ATOM     18  C   UNL     1       2.281   3.224  21.318  0.00  0.00    +0.000 A 
ATOM     19  C   UNL     1       3.295   2.543  20.666  0.00  0.00    +0.000 A 
ATOM     20  C   UNL     1       3.970   3.152  19.610  0.00  0.00    +0.000 A 
ATOM     21  C   UNL     1       3.647   4.463  19.199  0.00  0.00    +0.000 A 
ENDROOT
BRANCH   9  22
ATOM     22  C   UNL     1       0.962  12.862  18.342  0.00  0.00    +0.000 C 
ATOM     23  O   UNL     1       2.032  13.485  18.090  0.00  0.00    +0.000 OA
ATOM     24  O   UNL     1      -0.242  13.240  18.206  0.00  0.00    +0.000 OA
ENDBRANCH   9  22
BRANCH  14  25
ATOM     25  O   UNL     1       1.474   7.218  21.606  0.00  0.00    +0.000 OA
ATOM     26  H   UNL     1       2.238   7.462  22.177  0.00  0.00    +0.000 HD
ENDBRANCH  14  25
TORSDOF 2
ENDMDL
MODEL 4
REMARK VINA RESULT:      -7.7      1.479      3.489
REMARK  Name = 
REMARK  4 active torsions:
REMARK  status: ('A' for Active; 'I' for Inactive)
REMARK    1  A    between atoms: C_1  and  C_2
REMARK    2  A    between atoms: C_2  and  C_3
REMARK    3  A    between atoms: C_9  and  C_10
REMARK    4  A    between atoms: C_17  and  O_18
REMARK                            x       y       z     vdW  Elec       q    Type
REMARK                         _______ _______ _______ _____ _____    ______ ____
ROOT
ATOM      1  C   UNL     1       5.210   5.658  15.943  0.00  0.00    +0.000 C 
ATOM      2  C   UNL     1       4.704   6.304  17.247  0.00  0.00    +0.000 C 
ATOM      3  C   UNL     1       5.840   7.177  17.810  0.00  0.00    +0.000 C 
ATOM      4  O   UNL     1       3.618   7.168  16.817  0.00  0.00    +0.000 OA
ATOM      5  C   UNL     1       2.847   7.667  17.847  0.00  0.00    +0.000 A 
ATOM      6  C   UNL     1       2.294   8.944  17.665  0.00  0.00    +0.000 A 
ATOM      7  C   UNL     1       1.558   9.533  18.696  0.00  0.00    +0.000 A 
ATOM      8  O   UNL     1       1.065  10.800  18.496  0.00  0.00    +0.000 OA
ATOM      9  C   UNL     1       0.381  11.410  19.540  0.00  0.00    +0.000 A 
ATOM     10  C   UNL     1       0.131  10.841  20.728  0.00  0.00    +0.000 A 
ATOM     11  C   UNL     1       0.613   9.488  20.968  0.00  0.00    +0.000 A 
ATOM     12  O   UNL     1       0.411   8.900  22.027  0.00  0.00    +0.000 OA
ATOM     13  C   UNL     1       1.373   8.843  19.888  0.00  0.00    +0.000 A 
ATOM     14  C   UNL     1       1.916   7.560  20.061  0.00  0.00    +0.000 A 
ATOM     15  C   UNL     1       2.634   6.927  19.028  0.00  0.00    +0.000 A 
ATOM     16  C   UNL     1       3.205   5.569  19.114  0.00  0.00    +0.000 A 
ATOM     17  C   UNL     1       2.749   4.585  20.009  0.00  0.00    +0.000 A 
ATOM     18  C   UNL     1       3.364   3.338  20.110  0.00  0.00    +0.000 A 
ATOM     19  C   UNL     1       4.433   3.035  19.284  0.00  0.00    +0.000 A 
ATOM     20  C   UNL     1       4.875   3.973  18.352  0.00  0.00    +0.000 A 
ATOM     21  C   UNL     1       4.261   5.238  18.245  0.00  0.00    +0.000 A 
ENDROOT
BRANCH   9  22
ATOM     22  C   UNL     1      -0.125  12.861  19.317  0.00  0.00    +0.000 C 
ATOM     23  O   UNL     1       0.099  13.672  20.258  0.00  0.00    +0.000 OA
ATOM     24  O   UNL     1      -0.704  13.056  18.204  0.00  0.00    +0.000 OA
ENDBRANCH   9  22
BRANCH  14  25
ATOM     25  O   UNL     1       1.797   6.925  21.277  0.00  0.00    +0.000 OA
ATOM     26  H   UNL     1       2.620   6.410  21.444  0.00  0.00    +0.000 HD
ENDBRANCH  14  25
TORSDOF 2
ENDMDL
MODEL 5
REMARK VINA RESULT:      -7.7      1.621      6.784
REMARK  Name = 
REMARK  4 active torsions:
REMARK  status: ('A' for Active; 'I' for Inactive)
REMARK    1  A    between atoms: C_1  and  C_2
REMARK    2  A    between atoms: C_2  and  C_3
REMARK    3  A    between atoms: C_9  and  C_10
REMARK    4  A    between atoms: C_17  and  O_18
REMARK                            x       y       z     vdW  Elec       q    Type
REMARK                         _______ _______ _______ _____ _____    ______ ____
ROOT
ATOM      1  C   UNL     1      -0.630   9.626  23.007  0.00  0.00    +0.000 C 
ATOM      2  C   UNL     1       0.557   9.259  22.096  0.00  0.00    +0.000 C 
ATOM      3  C   UNL     1       1.846   9.392  22.926  0.00  0.00    +0.000 C 
ATOM      4  O   UNL     1       0.344   7.856  21.782  0.00  0.00    +0.000 OA
ATOM      5  C   UNL     1       1.152   7.369  20.776  0.00  0.00    +0.000 A 
ATOM      6  C   UNL     1       1.534   6.022  20.863  0.00  0.00    +0.000 A 
ATOM      7  C   UNL     1       2.404   5.486  19.911  0.00  0.00    +0.000 A 
ATOM      8  O   UNL     1       2.786   4.173  20.051  0.00  0.00    +0.000 OA
ATOM      9  C   UNL     1       3.695   3.653  19.138  0.00  0.00    +0.000 A 
ATOM     10  C   UNL     1       4.208   4.328  18.099  0.00  0.00    +0.000 A 
ATOM     11  C   UNL     1       3.806   5.713  17.901  0.00  0.00    +0.000 A 
ATOM     12  O   UNL     1       4.225   6.388  16.965  0.00  0.00    +0.000 OA
ATOM     13  C   UNL     1       2.875   6.291  18.881  0.00  0.00    +0.000 A 
ATOM     14  C   UNL     1       2.480   7.635  18.789  0.00  0.00    +0.000 A 
ATOM     15  C   UNL     1       1.578   8.194  19.714  0.00  0.00    +0.000 A 
ATOM     16  C   UNL     1       1.085   9.585  19.669  0.00  0.00    +0.000 A 
ATOM     17  C   UNL     1       1.076  10.373  18.504  0.00  0.00    +0.000 A 
ATOM     18  C   UNL     1       0.670  11.706  18.519  0.00  0.00    +0.000 A 
ATOM     19  C   UNL     1       0.225  12.271  19.702  0.00  0.00    +0.000 A 
ATOM     20  C   UNL     1       0.175  11.499  20.862  0.00  0.00    +0.000 A 
ATOM     21  C   UNL     1       0.587  10.149  20.857  0.00  0.00    +0.000 A 
ENDROOT
BRANCH   9  22
ATOM     22  C   UNL     1       4.156   2.184  19.340  0.00  0.00    +0.000 C 
ATOM     23  O   UNL     1       3.714   1.349  18.501  0.00  0.00    +0.000 OA
ATOM     24  O   UNL     1       4.929   2.001  20.330  0.00  0.00    +0.000 OA
ENDBRANCH   9  22
BRANCH  14  25
ATOM     25  O   UNL     1       3.022   8.442  17.814  0.00  0.00    +0.000 OA
ATOM     26  H   UNL     1       2.951   7.977  16.948  0.00  0.00    +0.000 HD
ENDBRANCH  14  25
TORSDOF 2
ENDMDL
MODEL 6
REMARK VINA RESULT:      -6.9      6.525     10.422
REMARK  Name = 
REMARK  4 active torsions:
REMARK  status: ('A' for Active; 'I' for Inactive)
REMARK    1  A    between atoms: C_1  and  C_2
REMARK    2  A    between atoms: C_2  and  C_3
REMARK    3  A    between atoms: C_9  and  C_10
REMARK    4  A    between atoms: C_17  and  O_18
REMARK                            x       y       z     vdW  Elec       q    Type
REMARK                         _______ _______ _______ _____ _____    ______ ____
ROOT
ATOM      1  C   UNL     1      -7.645  13.839  20.944  0.00  0.00    +0.000 C 
ATOM      2  C   UNL     1      -6.589  12.801  20.518  0.00  0.00    +0.000 C 
ATOM      3  C   UNL     1      -7.218  11.404  20.661  0.00  0.00    +0.000 C 
ATOM      4  O   UNL     1      -6.370  13.075  19.108  0.00  0.00    +0.000 OA
ATOM      5  C   UNL     1      -5.280  12.428  18.565  0.00  0.00    +0.000 A 
ATOM      6  C   UNL     1      -5.369  12.055  17.216  0.00  0.00    +0.000 A 
ATOM      7  C   UNL     1      -4.325  11.339  16.625  0.00  0.00    +0.000 A 
ATOM      8  O   UNL     1      -4.465  10.957  15.312  0.00  0.00    +0.000 OA
ATOM      9  C   UNL     1      -3.452  10.197  14.739  0.00  0.00    +0.000 A 
ATOM     10  C   UNL     1      -2.323   9.832  15.361  0.00  0.00    +0.000 A 
ATOM     11  C   UNL     1      -2.125  10.241  16.744  0.00  0.00    +0.000 A 
ATOM     12  O   UNL     1      -1.110   9.954  17.372  0.00  0.00    +0.000 OA
ATOM     13  C   UNL     1      -3.204  11.013  17.378  0.00  0.00    +0.000 A 
ATOM     14  C   UNL     1      -3.112  11.400  18.724  0.00  0.00    +0.000 A 
ATOM     15  C   UNL     1      -4.133  12.150  19.338  0.00  0.00    +0.000 A 
ATOM     16  C   UNL     1      -4.099  12.628  20.735  0.00  0.00    +0.000 A 
ATOM     17  C   UNL     1      -2.915  12.796  21.474  0.00  0.00    +0.000 A 
ATOM     18  C   UNL     1      -2.931  13.179  22.814  0.00  0.00    +0.000 A 
ATOM     19  C   UNL     1      -4.141  13.440  23.435  0.00  0.00    +0.000 A 
ATOM     20  C   UNL     1      -5.328  13.330  22.712  0.00  0.00    +0.000 A 
ATOM     21  C   UNL     1      -5.321  12.941  21.356  0.00  0.00    +0.000 A 
ENDROOT
BRANCH   9  22
ATOM     22  C   UNL     1      -3.649   9.730  13.271  0.00  0.00    +0.000 C 
ATOM     23  O   UNL     1      -2.593   9.453  12.636  0.00  0.00    +0.000 OA
ATOM     24  O   UNL     1      -4.858   9.681  12.886  0.00  0.00    +0.000 OA
ENDBRANCH   9  22
BRANCH  14  25
ATOM     25  O   UNL     1      -2.035  10.995  19.480  0.00  0.00    +0.000 OA
ATOM     26  H   UNL     1      -1.666  11.781  19.946  0.00  0.00    +0.000 HD
ENDBRANCH  14  25
TORSDOF 2
ENDMDL
MODEL 7
REMARK VINA RESULT:      -6.7      4.904      7.804
REMARK  Name = 
REMARK  4 active torsions:
REMARK  status: ('A' for Active; 'I' for Inactive)
REMARK    1  A    between atoms: C_1  and  C_2
REMARK    2  A    between atoms: C_2  and  C_3
REMARK    3  A    between atoms: C_9  and  C_10
REMARK    4  A    between atoms: C_17  and  O_18
REMARK                            x       y       z     vdW  Elec       q    Type
REMARK                         _______ _______ _______ _____ _____    ______ ____
ROOT
ATOM      1  C   UNL     1       1.294  10.317  18.525  0.00  0.00    +0.000 C 
ATOM      2  C   UNL     1       0.114  10.629  19.466  0.00  0.00    +0.000 C 
ATOM      3  C   UNL     1       0.086   9.547  20.560  0.00  0.00    +0.000 C 
ATOM      4  O   UNL     1       0.471  11.900  20.072  0.00  0.00    +0.000 OA
ATOM      5  C   UNL     1      -0.554  12.504  20.771  0.00  0.00    +0.000 A 
ATOM      6  C   UNL     1      -0.194  13.271  21.890  0.00  0.00    +0.000 A 
ATOM      7  C   UNL     1      -1.189  13.855  22.677  0.00  0.00    +0.000 A 
ATOM      8  O   UNL     1      -0.801  14.566  23.787  0.00  0.00    +0.000 OA
ATOM      9  C   UNL     1      -1.790  15.100  24.604  0.00  0.00    +0.000 A 
ATOM     10  C   UNL     1      -3.107  15.005  24.373  0.00  0.00    +0.000 A 
ATOM     11  C   UNL     1      -3.558  14.282  23.193  0.00  0.00    +0.000 A 
ATOM     12  O   UNL     1      -4.747  14.165  22.912  0.00  0.00    +0.000 OA
ATOM     13  C   UNL     1      -2.525  13.677  22.339  0.00  0.00    +0.000 A 
ATOM     14  C   UNL     1      -2.880  12.921  21.211  0.00  0.00    +0.000 A 
ATOM     15  C   UNL     1      -1.900  12.348  20.379  0.00  0.00    +0.000 A 
ATOM     16  C   UNL     1      -2.186  11.571  19.157  0.00  0.00    +0.000 A 
ATOM     17  C   UNL     1      -3.385  11.674  18.430  0.00  0.00    +0.000 A 
ATOM     18  C   UNL     1      -3.646  10.868  17.322  0.00  0.00    +0.000 A 
ATOM     19  C   UNL     1      -2.689   9.964  16.895  0.00  0.00    +0.000 A 
ATOM     20  C   UNL     1      -1.471   9.875  17.567  0.00  0.00    +0.000 A 
ATOM     21  C   UNL     1      -1.199  10.685  18.690  0.00  0.00    +0.000 A 
ENDROOT
BRANCH   9  22
ATOM     22  C   UNL     1      -1.336  15.858  25.881  0.00  0.00    +0.000 C 
ATOM     23  O   UNL     1      -0.448  15.284  26.573  0.00  0.00    +0.000 OA
ATOM     24  O   UNL     1      -1.914  16.971  26.073  0.00  0.00    +0.000 OA
ENDBRANCH   9  22
BRANCH  14  25
ATOM     25  O   UNL     1      -4.209  12.683  20.938  0.00  0.00    +0.000 OA
ATOM     26  H   UNL     1      -4.282  11.825  20.459  0.00  0.00    +0.000 HD
ENDBRANCH  14  25
TORSDOF 2
ENDMDL
