MODEL 1
REMARK VINA RESULT:      -7.9      0.000      0.000
REMARK  Name = 
REMARK  3 active torsions:
REMARK  status: ('A' for Active; 'I' for Inactive)
REMARK    1  A    between atoms: N_1  and  C_2
REMARK    2  A    between atoms: C_5  and  N_6
REMARK    3  A    between atoms: C_10  and  C_11
REMARK                            x       y       z     vdW  Elec       q    Type
REMARK                         _______ _______ _______ _____ _____    ______ ____
ROOT
ATOM      1  N   UNL     1       5.733   4.549  18.703  0.00  0.00    +0.000 N 
ATOM      2  N   UNL     1       6.149   5.089  19.875  0.00  0.00    +0.000 NA
ATOM      3  N   UNL     1       7.439   5.343  19.718  0.00  0.00    +0.000 NA
ATOM      4  N   UNL     1       7.844   5.080  18.433  0.00  0.00    +0.000 NA
ATOM      5  C   UNL     1       6.769   4.668  17.792  0.00  0.00    +0.000 A 
ENDROOT
BRANCH   1   9
ATOM      6  C   UNL     1       1.858   2.887  18.466  0.00  0.00    +0.000 A 
ATOM      7  C   UNL     1       2.940   2.124  18.919  0.00  0.00    +0.000 A 
ATOM      8  C   UNL     1       4.239   2.643  18.924  0.00  0.00    +0.000 A 
ATOM      9  C   UNL     1       4.449   3.974  18.555  0.00  0.00    +0.000 A 
ATOM     10  C   UNL     1       3.374   4.745  18.093  0.00  0.00    +0.000 A 
ATOM     11  C   UNL     1       2.087   4.207  18.074  0.00  0.00    +0.000 A 
BRANCH   6  12
ATOM     12  N   UNL     1       0.548   2.428  18.633  0.00  0.00    +0.000 N 
ATOM     13  H   UNL     1       0.391   1.921  19.497  0.00  0.00    +0.000 HD
ATOM     14  H   UNL     1       0.171   1.946  17.823  0.00  0.00    +0.000 HD
ENDBRANCH   6  12
ENDBRANCH   1   9
BRANCH   5  15
ATOM     15  C   UNL     1       6.659   4.542  16.374  0.00  0.00    +0.000 A 
ATOM     16  C   UNL     1       5.893   3.664  15.624  0.00  0.00    +0.000 A 
ATOM     17  C   UNL     1       6.142   3.955  14.257  0.00  0.00    +0.000 A 
ATOM     18  C   UNL     1       7.061   4.972  14.243  0.00  0.00    +0.000 A 
ATOM     19  O   UNL     1       7.386   5.322  15.509  0.00  0.00    +0.000 OA
ENDBRANCH   5  15
TORSDOF 3
ENDMDL
MODEL 2
REMARK VINA RESULT:      -7.6      0.478      1.262
REMARK  Name = 
REMARK  3 active torsions:
REMARK  status: ('A' for Active; 'I' for Inactive)
REMARK    1  A    between atoms: N_1  and  C_2
REMARK    2  A    between atoms: C_5  and  N_6
REMARK    3  A    between atoms: C_10  and  C_11
REMARK                            x       y       z     vdW  Elec       q    Type
REMARK                         _______ _______ _______ _____ _____    ______ ____
ROOT
ATOM      1  N   UNL     1       6.104   4.741  18.794  0.00  0.00    +0.000 N 
ATOM      2  N   UNL     1       6.723   5.257  19.884  0.00  0.00    +0.000 NA
ATOM      3  N   UNL     1       8.006   5.336  19.567  0.00  0.00    +0.000 NA
ATOM      4  N   UNL     1       8.217   4.985  18.257  0.00  0.00    +0.000 NA
ATOM      5  C   UNL     1       7.029   4.697  17.764  0.00  0.00    +0.000 A 
ENDROOT
BRANCH   1   9
ATOM      6  C   UNL     1       2.081   3.462  18.677  0.00  0.00    +0.000 A 
ATOM      7  C   UNL     1       2.437   4.750  18.262  0.00  0.00    +0.000 A 
ATOM      8  C   UNL     1       3.755   5.208  18.374  0.00  0.00    +0.000 A 
ATOM      9  C   UNL     1       4.750   4.335  18.822  0.00  0.00    +0.000 A 
ATOM     10  C   UNL     1       4.402   3.046  19.248  0.00  0.00    +0.000 A 
ATOM     11  C   UNL     1       3.081   2.610  19.150  0.00  0.00    +0.000 A 
BRANCH   6  12
ATOM     12  N   UNL     1       0.809   2.953  18.397  0.00  0.00    +0.000 N 
ATOM     13  H   UNL     1       0.793   1.959  18.198  0.00  0.00    +0.000 HD
ATOM     14  H   UNL     1       0.285   3.496  17.718  0.00  0.00    +0.000 HD
ENDBRANCH   6  12
ENDBRANCH   1   9
BRANCH   5  15
ATOM     15  C   UNL     1       6.733   4.545  16.376  0.00  0.00    +0.000 A 
ATOM     16  C   UNL     1       5.821   3.707  15.756  0.00  0.00    +0.000 A 
ATOM     17  C   UNL     1       5.914   3.945  14.360  0.00  0.00    +0.000 A 
ATOM     18  C   UNL     1       6.893   4.893  14.198  0.00  0.00    +0.000 A 
ATOM     19  O   UNL     1       7.397   5.250  15.402  0.00  0.00    +0.000 OA
ENDBRANCH   5  15
TORSDOF 3
ENDMDL
MODEL 3
REMARK VINA RESULT:      -7.1      2.607      3.450
REMARK  Name = 
REMARK  3 active torsions:
REMARK  status: ('A' for Active; 'I' for Inactive)
REMARK    1  A    between atoms: N_1  and  C_2
REMARK    2  A    between atoms: C_5  and  N_6
REMARK    3  A    between atoms: C_10  and  C_11
REMARK                            x       y       z     vdW  Elec       q    Type
REMARK                         _______ _______ _______ _____ _____    ______ ____
ROOT
ATOM      1  N   UNL     1       5.651   4.719  16.534  0.00  0.00    +0.000 N 
ATOM      2  N   UNL     1       5.622   3.731  15.605  0.00  0.00    +0.000 NA
ATOM      3  N   UNL     1       6.521   4.068  14.692  0.00  0.00    +0.000 NA
ATOM      4  N   UNL     1       7.209   5.196  15.064  0.00  0.00    +0.000 NA
ATOM      5  C   UNL     1       6.722   5.545  16.238  0.00  0.00    +0.000 A 
ENDROOT
BRANCH   1   9
ATOM      6  C   UNL     1       2.929   5.082  19.741  0.00  0.00    +0.000 A 
ATOM      7  C   UNL     1       3.852   4.032  19.699  0.00  0.00    +0.000 A 
ATOM      8  C   UNL     1       4.702   3.860  18.601  0.00  0.00    +0.000 A 
ATOM      9  C   UNL     1       4.692   4.803  17.569  0.00  0.00    +0.000 A 
ATOM     10  C   UNL     1       3.765   5.853  17.598  0.00  0.00    +0.000 A 
ATOM     11  C   UNL     1       2.909   6.000  18.690  0.00  0.00    +0.000 A 
BRANCH   6  12
ATOM     12  N   UNL     1       2.213   5.351  20.912  0.00  0.00    +0.000 N 
ATOM     13  H   UNL     1       1.639   6.186  20.866  0.00  0.00    +0.000 HD
ATOM     14  H   UNL     1       2.771   5.308  21.758  0.00  0.00    +0.000 HD
ENDBRANCH   6  12
ENDBRANCH   1   9
BRANCH   5  15
ATOM     15  C   UNL     1       7.318   6.495  17.122  0.00  0.00    +0.000 A 
ATOM     16  C   UNL     1       7.840   6.312  18.392  0.00  0.00    +0.000 A 
ATOM     17  C   UNL     1       8.313   7.573  18.837  0.00  0.00    +0.000 A 
ATOM     18  C   UNL     1       8.034   8.464  17.832  0.00  0.00    +0.000 A 
ATOM     19  O   UNL     1       7.426   7.827  16.804  0.00  0.00    +0.000 OA
ENDBRANCH   5  15
TORSDOF 3
ENDMDL
MODEL 4
REMARK VINA RESULT:      -7.0      2.498      3.532
REMARK  Name = 
REMARK  3 active torsions:
REMARK  status: ('A' for Active; 'I' for Inactive)
REMARK    1  A    between atoms: N_1  and  C_2
REMARK    2  A    between atoms: C_5  and  N_6
REMARK    3  A    between atoms: C_10  and  C_11
REMARK                            x       y       z     vdW  Elec       q    Type
REMARK                         _______ _______ _______ _____ _____    ______ ____
ROOT
ATOM      1  N   UNL     1       5.665   4.686  16.533  0.00  0.00    +0.000 N 
ATOM      2  N   UNL     1       5.645   3.699  15.603  0.00  0.00    +0.000 NA
ATOM      3  N   UNL     1       6.539   4.046  14.689  0.00  0.00    +0.000 NA
ATOM      4  N   UNL     1       7.216   5.181  15.062  0.00  0.00    +0.000 NA
ATOM      5  C   UNL     1       6.727   5.523  16.237  0.00  0.00    +0.000 A 
ENDROOT
BRANCH   1   9
ATOM      6  C   UNL     1       2.671   4.781  19.509  0.00  0.00    +0.000 A 
ATOM      7  C   UNL     1       2.689   5.728  18.479  0.00  0.00    +0.000 A 
ATOM      8  C   UNL     1       3.723   5.751  17.536  0.00  0.00    +0.000 A 
ATOM      9  C   UNL     1       4.706   4.758  17.569  0.00  0.00    +0.000 A 
ATOM     10  C   UNL     1       4.701   3.810  18.601  0.00  0.00    +0.000 A 
ATOM     11  C   UNL     1       3.675   3.812  19.547  0.00  0.00    +0.000 A 
BRANCH   6  12
ATOM     12  N   UNL     1       1.549   4.651  20.333  0.00  0.00    +0.000 N 
ATOM     13  H   UNL     1       0.798   4.101  19.931  0.00  0.00    +0.000 HD
ATOM     14  H   UNL     1       1.222   5.527  20.730  0.00  0.00    +0.000 HD
ENDBRANCH   6  12
ENDBRANCH   1   9
BRANCH   5  15
ATOM     15  C   UNL     1       7.315   6.478  17.122  0.00  0.00    +0.000 A 
ATOM     16  C   UNL     1       7.829   6.300  18.395  0.00  0.00    +0.000 A 
ATOM     17  C   UNL     1       8.295   7.564  18.840  0.00  0.00    +0.000 A 
ATOM     18  C   UNL     1       8.019   8.450  17.830  0.00  0.00    +0.000 A 
ATOM     19  O   UNL     1       7.420   7.809  16.800  0.00  0.00    +0.000 OA
ENDBRANCH   5  15
TORSDOF 3
ENDMDL
MODEL 5
REMARK VINA RESULT:      -6.9      2.485      3.432
REMARK  Name = 
REMARK  3 active torsions:
REMARK  status: ('A' for Active; 'I' for Inactive)
REMARK    1  A    between atoms: N_1  and  C_2
REMARK    2  A    between atoms: C_5  and  N_6
REMARK    3  A    between atoms: C_10  and  C_11
REMARK                            x       y       z     vdW  Elec       q    Type
REMARK                         _______ _______ _______ _____ _____    ______ ____
ROOT
ATOM      1  N   UNL     1       5.479   4.610  15.883  0.00  0.00    +0.000 N 
ATOM      2  N   UNL     1       5.471   3.988  14.678  0.00  0.00    +0.000 NA
ATOM      3  N   UNL     1       6.566   4.394  14.054  0.00  0.00    +0.000 NA
ATOM      4  N   UNL     1       7.341   5.180  14.871  0.00  0.00    +0.000 NA
ATOM      5  C   UNL     1       6.703   5.242  16.023  0.00  0.00    +0.000 A 
ENDROOT
BRANCH   1   9
ATOM      6  C   UNL     1       2.296   4.462  18.653  0.00  0.00    +0.000 A 
ATOM      7  C   UNL     1       2.813   3.290  18.091  0.00  0.00    +0.000 A 
ATOM      8  C   UNL     1       3.813   3.337  17.113  0.00  0.00    +0.000 A 
ATOM      9  C   UNL     1       4.368   4.569  16.756  0.00  0.00    +0.000 A 
ATOM     10  C   UNL     1       3.851   5.749  17.307  0.00  0.00    +0.000 A 
ATOM     11  C   UNL     1       2.840   5.688  18.266  0.00  0.00    +0.000 A 
BRANCH   6  12
ATOM     12  N   UNL     1       1.432   4.401  19.751  0.00  0.00    +0.000 N 
ATOM     13  H   UNL     1       0.784   3.621  19.727  0.00  0.00    +0.000 HD
ATOM     14  H   UNL     1       0.977   5.281  19.971  0.00  0.00    +0.000 HD
ENDBRANCH   6  12
ENDBRANCH   1   9
BRANCH   5  15
ATOM     15  C   UNL     1       7.264   5.724  17.244  0.00  0.00    +0.000 A 
ATOM     16  C   UNL     1       7.647   7.009  17.593  0.00  0.00    +0.000 A 
ATOM     17  C   UNL     1       8.141   6.953  18.921  0.00  0.00    +0.000 A 
ATOM     18  C   UNL     1       8.060   5.639  19.306  0.00  0.00    +0.000 A 
ATOM     19  O   UNL     1       7.546   4.892  18.300  0.00  0.00    +0.000 OA
ENDBRANCH   5  15
TORSDOF 3
ENDMDL
MODEL 6
REMARK VINA RESULT:      -6.9      2.424      3.519
REMARK  Name = 
REMARK  3 active torsions:
REMARK  status: ('A' for Active; 'I' for Inactive)
REMARK    1  A    between atoms: N_1  and  C_2
REMARK    2  A    between atoms: C_5  and  N_6
REMARK    3  A    between atoms: C_10  and  C_11
REMARK                            x       y       z     vdW  Elec       q    Type
REMARK                         _______ _______ _______ _____ _____    ______ ____
ROOT
ATOM      1  N   UNL     1       5.542   4.458  15.947  0.00  0.00    +0.000 N 
ATOM      2  N   UNL     1       5.538   3.863  14.728  0.00  0.00    +0.000 NA
ATOM      3  N   UNL     1       6.549   4.400  14.062  0.00  0.00    +0.000 NA
ATOM      4  N   UNL     1       7.275   5.250  14.859  0.00  0.00    +0.000 NA
ATOM      5  C   UNL     1       6.696   5.218  16.042  0.00  0.00    +0.000 A 
ENDROOT
BRANCH   1   9
ATOM      6  C   UNL     1       2.261   3.911  18.548  0.00  0.00    +0.000 A 
ATOM      7  C   UNL     1       2.648   5.192  18.141  0.00  0.00    +0.000 A 
ATOM      8  C   UNL     1       3.782   5.386  17.345  0.00  0.00    +0.000 A 
ATOM      9  C   UNL     1       4.489   4.277  16.873  0.00  0.00    +0.000 A 
ATOM     10  C   UNL     1       4.115   2.990  17.282  0.00  0.00    +0.000 A 
ATOM     11  C   UNL     1       2.993   2.813  18.093  0.00  0.00    +0.000 A 
BRANCH   6  12
ATOM     12  N   UNL     1       1.034   3.711  19.188  0.00  0.00    +0.000 N 
ATOM     13  H   UNL     1       0.773   4.453  19.828  0.00  0.00    +0.000 HD
ATOM     14  H   UNL     1       0.924   2.788  19.595  0.00  0.00    +0.000 HD
ENDBRANCH   6  12
ENDBRANCH   1   9
BRANCH   5  15
ATOM     15  C   UNL     1       7.264   5.734  17.246  0.00  0.00    +0.000 A 
ATOM     16  C   UNL     1       7.635   7.031  17.561  0.00  0.00    +0.000 A 
ATOM     17  C   UNL     1       8.145   7.011  18.885  0.00  0.00    +0.000 A 
ATOM     18  C   UNL     1       8.084   5.705  19.300  0.00  0.00    +0.000 A 
ATOM     19  O   UNL     1       7.568   4.930  18.317  0.00  0.00    +0.000 OA
ENDBRANCH   5  15
TORSDOF 3
ENDMDL
MODEL 7
REMARK VINA RESULT:      -6.9      2.814      5.191
REMARK  Name = 
REMARK  3 active torsions:
REMARK  status: ('A' for Active; 'I' for Inactive)
REMARK    1  A    between atoms: N_1  and  C_2
REMARK    2  A    between atoms: C_5  and  N_6
REMARK    3  A    between atoms: C_10  and  C_11
REMARK                            x       y       z     vdW  Elec       q    Type
REMARK                         _______ _______ _______ _____ _____    ______ ____
ROOT
ATOM      1  N   UNL     1       4.163   3.929  18.865  0.00  0.00    +0.000 N 
ATOM      2  N   UNL     1       3.950   2.700  19.398  0.00  0.00    +0.000 NA
ATOM      3  N   UNL     1       3.174   2.893  20.453  0.00  0.00    +0.000 NA
ATOM      4  N   UNL     1       2.789   4.207  20.553  0.00  0.00    +0.000 NA
ATOM      5  C   UNL     1       3.338   4.823  19.525  0.00  0.00    +0.000 A 
ENDROOT
BRANCH   1   9
ATOM      6  C   UNL     1       6.890   4.773  15.754  0.00  0.00    +0.000 A 
ATOM      7  C   UNL     1       5.623   4.250  15.475  0.00  0.00    +0.000 A 
ATOM      8  C   UNL     1       4.745   3.893  16.505  0.00  0.00    +0.000 A 
ATOM      9  C   UNL     1       5.103   4.145  17.832  0.00  0.00    +0.000 A 
ATOM     10  C   UNL     1       6.374   4.661  18.122  0.00  0.00    +0.000 A 
ATOM     11  C   UNL     1       7.246   4.993  17.085  0.00  0.00    +0.000 A 
BRANCH   6  12
ATOM     12  N   UNL     1       7.685   5.292  14.727  0.00  0.00    +0.000 N 
ATOM     13  H   UNL     1       7.366   6.184  14.364  0.00  0.00    +0.000 HD
ATOM     14  H   UNL     1       7.899   4.626  13.992  0.00  0.00    +0.000 HD
ENDBRANCH   6  12
ENDBRANCH   1   9
BRANCH   5  15
ATOM     15  C   UNL     1       2.992   6.134  19.077  0.00  0.00    +0.000 A 
ATOM     16  C   UNL     1       3.372   6.800  17.923  0.00  0.00    +0.000 A 
ATOM     17  C   UNL     1       2.753   8.076  17.953  0.00  0.00    +0.000 A 
ATOM     18  C   UNL     1       2.051   8.134  19.130  0.00  0.00    +0.000 A 
ATOM     19  O   UNL     1       2.200   6.977  19.816  0.00  0.00    +0.000 OA
ENDBRANCH   5  15
TORSDOF 3
ENDMDL
MODEL 8
REMARK VINA RESULT:      -6.9      2.735      3.679
REMARK  Name = 
REMARK  3 active torsions:
REMARK  status: ('A' for Active; 'I' for Inactive)
REMARK    1  A    between atoms: N_1  and  C_2
REMARK    2  A    between atoms: C_5  and  N_6
REMARK    3  A    between atoms: C_10  and  C_11
REMARK                            x       y       z     vdW  Elec       q    Type
REMARK                         _______ _______ _______ _____ _____    ______ ____
ROOT
ATOM      1  N   UNL     1       5.094   4.964  17.050  0.00  0.00    +0.000 N 
ATOM      2  N   UNL     1       4.891   3.782  16.417  0.00  0.00    +0.000 NA
ATOM      3  N   UNL     1       5.879   3.667  15.542  0.00  0.00    +0.000 NA
ATOM      4  N   UNL     1       6.778   4.696  15.671  0.00  0.00    +0.000 NA
ATOM      5  C   UNL     1       6.329   5.447  16.656  0.00  0.00    +0.000 A 
ENDROOT
BRANCH   1   9
ATOM      6  C   UNL     1       2.382   6.712  19.774  0.00  0.00    +0.000 A 
ATOM      7  C   UNL     1       2.943   5.455  20.027  0.00  0.00    +0.000 A 
ATOM      8  C   UNL     1       3.779   4.835  19.091  0.00  0.00    +0.000 A 
ATOM      9  C   UNL     1       4.132   5.519  17.925  0.00  0.00    +0.000 A 
ATOM     10  C   UNL     1       3.569   6.775  17.659  0.00  0.00    +0.000 A 
ATOM     11  C   UNL     1       2.721   7.372  18.592  0.00  0.00    +0.000 A 
BRANCH   6  12
ATOM     12  N   UNL     1       1.699   7.399  20.783  0.00  0.00    +0.000 N 
ATOM     13  H   UNL     1       1.969   8.372  20.881  0.00  0.00    +0.000 HD
ATOM     14  H   UNL     1       1.671   6.911  21.672  0.00  0.00    +0.000 HD
ENDBRANCH   6  12
ENDBRANCH   1   9
BRANCH   5  15
ATOM     15  C   UNL     1       7.079   6.470  17.313  0.00  0.00    +0.000 A 
ATOM     16  C   UNL     1       7.776   6.421  18.509  0.00  0.00    +0.000 A 
ATOM     17  C   UNL     1       8.349   7.703  18.713  0.00  0.00    +0.000 A 
ATOM     18  C   UNL     1       7.953   8.473  17.649  0.00  0.00    +0.000 A 
ATOM     19  O   UNL     1       7.180   7.744  16.811  0.00  0.00    +0.000 OA
ENDBRANCH   5  15
TORSDOF 3
ENDMDL
MODEL 9
REMARK VINA RESULT:      -6.7      0.941      1.280
REMARK  Name = 
REMARK  3 active torsions:
REMARK  status: ('A' for Active; 'I' for Inactive)
REMARK    1  A    between atoms: N_1  and  C_2
REMARK    2  A    between atoms: C_5  and  N_6
REMARK    3  A    between atoms: C_10  and  C_11
REMARK                            x       y       z     vdW  Elec       q    Type
REMARK                         _______ _______ _______ _____ _____    ______ ____
ROOT
ATOM      1  N   UNL     1       5.678   4.519  18.856  0.00  0.00    +0.000 N 
ATOM      2  N   UNL     1       6.213   5.058  19.980  0.00  0.00    +0.000 NA
ATOM      3  N   UNL     1       7.430   5.458  19.644  0.00  0.00    +0.000 NA
ATOM      4  N   UNL     1       7.656   5.289  18.301  0.00  0.00    +0.000 NA
ATOM      5  C   UNL     1       6.543   4.785  17.808  0.00  0.00    +0.000 A 
ENDROOT
BRANCH   1   9
ATOM      6  C   UNL     1       1.942   2.554  18.767  0.00  0.00    +0.000 A 
ATOM      7  C   UNL     1       2.178   3.607  19.658  0.00  0.00    +0.000 A 
ATOM      8  C   UNL     1       3.438   4.209  19.749  0.00  0.00    +0.000 A 
ATOM      9  C   UNL     1       4.453   3.814  18.873  0.00  0.00    +0.000 A 
ATOM     10  C   UNL     1       4.229   2.755  17.984  0.00  0.00    +0.000 A 
ATOM     11  C   UNL     1       2.974   2.150  17.919  0.00  0.00    +0.000 A 
BRANCH   6  12
ATOM     12  N   UNL     1       0.642   2.082  18.556  0.00  0.00    +0.000 N 
ATOM     13  H   UNL     1       0.135   2.572  17.827  0.00  0.00    +0.000 HD
ATOM     14  H   UNL     1       0.097   1.973  19.405  0.00  0.00    +0.000 HD
ENDBRANCH   6  12
ENDBRANCH   1   9
BRANCH   5  15
ATOM     15  C   UNL     1       6.227   4.700  16.418  0.00  0.00    +0.000 A 
ATOM     16  C   UNL     1       5.399   5.502  15.651  0.00  0.00    +0.000 A 
ATOM     17  C   UNL     1       5.431   4.994  14.327  0.00  0.00    +0.000 A 
ATOM     18  C   UNL     1       6.253   3.897  14.358  0.00  0.00    +0.000 A 
ATOM     19  O   UNL     1       6.725   3.706  15.611  0.00  0.00    +0.000 OA
ENDBRANCH   5  15
TORSDOF 3
ENDMDL
