MODEL 1
REMARK VINA RESULT:      -6.6      0.000      0.000
REMARK  Name = 
REMARK  8 active torsions:
REMARK  status: ('A' for Active; 'I' for Inactive)
REMARK    1  A    between atoms: C_1  and  C_2
REMARK    2  A    between atoms: C_2  and  C_3
REMARK    3  A    between atoms: C_2  and  N_11
REMARK    4  A    between atoms: C_3  and  C_4
REMARK    5  A    between atoms: C_4  and  C_5
REMARK    6  A    between atoms: N_9  and  C_10
REMARK    7  A    between atoms: N_11  and  C_12
REMARK    8  A    between atoms: C_17  and  C_18
REMARK                            x       y       z     vdW  Elec       q    Type
REMARK                         _______ _______ _______ _____ _____    ______ ____
ROOT
ATOM      1  C   UNL     1       2.164   6.531  18.171  0.00  0.00    +0.000 C 
ATOM      2  C   UNL     1       2.946   5.228  17.968  0.00  0.00    +0.000 C 
ENDROOT
BRANCH   2   3
ATOM      3  N   UNL     1       4.095   5.538  17.113  0.00  0.00    +0.000 N 
ATOM      4  H   UNL     1       3.959   5.361  16.123  0.00  0.00    +0.000 HD
BRANCH   3   5
ATOM      5  C   UNL     1       5.387   5.266  17.579  0.00  0.00    +0.000 A 
ATOM      6  N   UNL     1       5.741   5.659  18.829  0.00  0.00    +0.000 NA
ATOM      7  C   UNL     1       7.028   5.453  19.206  0.00  0.00    +0.000 A 
ATOM      8  C   UNL     1       7.969   4.879  18.373  0.00  0.00    +0.000 A 
ATOM      9  N   UNL     1       7.663   4.479  17.124  0.00  0.00    +0.000 NA
ATOM     10  C   UNL     1       6.367   4.695  16.748  0.00  0.00    +0.000 A 
BRANCH  10  11
ATOM     11  C   UNL     1       6.049   4.271  15.417  0.00  0.00    +0.000 C 
ATOM     12  N   UNL     1       5.846   3.931  14.325  0.00  0.00    +0.000 NA
ENDBRANCH  10  11
ENDBRANCH   3   5
ENDBRANCH   2   3
BRANCH   2  13
ATOM     13  C   UNL     1       2.028   4.182  17.298  0.00  0.00    +0.000 C 
BRANCH  13  14
ATOM     14  C   UNL     1       2.177   2.777  17.893  0.00  0.00    +0.000 C 
BRANCH  14  15
ATOM     15  C   UNL     1       2.052   2.783  19.390  0.00  0.00    +0.000 A 
ATOM     16  C   UNL     1       0.929   2.991  20.173  0.00  0.00    +0.000 A 
ATOM     17  C   UNL     1       1.327   2.949  21.529  0.00  0.00    +0.000 A 
ATOM     18  C   UNL     1       2.682   2.706  21.548  0.00  0.00    +0.000 A 
ATOM     19  N   UNL     1       3.112   2.597  20.252  0.00  0.00    +0.000 N 
ATOM     20  C   UNL     1       4.484   2.333  19.870  0.00  0.00    +0.000 C 
ENDBRANCH  14  15
ENDBRANCH  13  14
ENDBRANCH   2  13
TORSDOF 6
ENDMDL
MODEL 2
REMARK VINA RESULT:      -6.4      1.562      2.873
REMARK  Name = 
REMARK  8 active torsions:
REMARK  status: ('A' for Active; 'I' for Inactive)
REMARK    1  A    between atoms: C_1  and  C_2
REMARK    2  A    between atoms: C_2  and  C_3
REMARK    3  A    between atoms: C_2  and  N_11
REMARK    4  A    between atoms: C_3  and  C_4
REMARK    5  A    between atoms: C_4  and  C_5
REMARK    6  A    between atoms: N_9  and  C_10
REMARK    7  A    between atoms: N_11  and  C_12
REMARK    8  A    between atoms: C_17  and  C_18
REMARK                            x       y       z     vdW  Elec       q    Type
REMARK                         _______ _______ _______ _____ _____    ______ ____
ROOT
ATOM      1  C   UNL     1       4.034   5.430  17.306  0.00  0.00    +0.000 C 
ATOM      2  C   UNL     1       3.929   3.949  17.684  0.00  0.00    +0.000 C 
ENDROOT
BRANCH   2   3
ATOM      3  N   UNL     1       5.039   3.252  17.027  0.00  0.00    +0.000 N 
ATOM      4  H   UNL     1       5.626   2.698  17.641  0.00  0.00    +0.000 HD
BRANCH   3   5
ATOM      5  C   UNL     1       5.724   3.888  15.984  0.00  0.00    +0.000 A 
ATOM      6  N   UNL     1       5.252   3.786  14.717  0.00  0.00    +0.000 NA
ATOM      7  C   UNL     1       5.995   4.344  13.728  0.00  0.00    +0.000 A 
ATOM      8  C   UNL     1       7.194   4.988  13.965  0.00  0.00    +0.000 A 
ATOM      9  N   UNL     1       7.702   5.108  15.207  0.00  0.00    +0.000 NA
ATOM     10  C   UNL     1       6.953   4.539  16.197  0.00  0.00    +0.000 A 
BRANCH  10  11
ATOM     11  C   UNL     1       7.501   4.667  17.515  0.00  0.00    +0.000 C 
ATOM     12  N   UNL     1       7.917   4.820  18.588  0.00  0.00    +0.000 NA
ENDBRANCH  10  11
ENDBRANCH   3   5
ENDBRANCH   2   3
BRANCH   2  13
ATOM     13  C   UNL     1       2.571   3.395  17.204  0.00  0.00    +0.000 C 
BRANCH  13  14
ATOM     14  C   UNL     1       1.394   3.823  18.089  0.00  0.00    +0.000 C 
BRANCH  14  15
ATOM     15  C   UNL     1       1.636   3.506  19.537  0.00  0.00    +0.000 A 
ATOM     16  C   UNL     1       1.612   2.280  20.180  0.00  0.00    +0.000 A 
ATOM     17  C   UNL     1       1.852   2.501  21.556  0.00  0.00    +0.000 A 
ATOM     18  C   UNL     1       2.029   3.857  21.725  0.00  0.00    +0.000 A 
ATOM     19  N   UNL     1       1.907   4.457  20.499  0.00  0.00    +0.000 N 
ATOM     20  C   UNL     1       2.039   5.881  20.275  0.00  0.00    +0.000 C 
ENDBRANCH  14  15
ENDBRANCH  13  14
ENDBRANCH   2  13
TORSDOF 6
ENDMDL
MODEL 3
REMARK VINA RESULT:      -6.4      1.232      2.505
REMARK  Name = 
REMARK  8 active torsions:
REMARK  status: ('A' for Active; 'I' for Inactive)
REMARK    1  A    between atoms: C_1  and  C_2
REMARK    2  A    between atoms: C_2  and  C_3
REMARK    3  A    between atoms: C_2  and  N_11
REMARK    4  A    between atoms: C_3  and  C_4
REMARK    5  A    between atoms: C_4  and  C_5
REMARK    6  A    between atoms: N_9  and  C_10
REMARK    7  A    between atoms: N_11  and  C_12
REMARK    8  A    between atoms: C_17  and  C_18
REMARK                            x       y       z     vdW  Elec       q    Type
REMARK                         _______ _______ _______ _____ _____    ______ ____
ROOT
ATOM      1  C   UNL     1       4.455   7.056  17.322  0.00  0.00    +0.000 C 
ATOM      2  C   UNL     1       3.896   5.943  18.215  0.00  0.00    +0.000 C 
ENDROOT
BRANCH   2   3
ATOM      3  N   UNL     1       4.595   4.705  17.857  0.00  0.00    +0.000 N 
ATOM      4  H   UNL     1       4.937   4.160  18.641  0.00  0.00    +0.000 HD
BRANCH   3   5
ATOM      5  C   UNL     1       5.427   4.690  16.731  0.00  0.00    +0.000 A 
ATOM      6  N   UNL     1       4.885   4.482  15.505  0.00  0.00    +0.000 NA
ATOM      7  C   UNL     1       5.738   4.388  14.454  0.00  0.00    +0.000 A 
ATOM      8  C   UNL     1       7.109   4.486  14.592  0.00  0.00    +0.000 A 
ATOM      9  N   UNL     1       7.690   4.689  15.791  0.00  0.00    +0.000 NA
ATOM     10  C   UNL     1       6.826   4.775  16.845  0.00  0.00    +0.000 A 
BRANCH  10  11
ATOM     11  C   UNL     1       7.450   4.986  18.118  0.00  0.00    +0.000 C 
ATOM     12  N   UNL     1       8.006   5.140  19.126  0.00  0.00    +0.000 NA
ENDBRANCH  10  11
ENDBRANCH   3   5
ENDBRANCH   2   3
BRANCH   2  13
ATOM     13  C   UNL     1       2.378   5.807  17.970  0.00  0.00    +0.000 C 
BRANCH  13  14
ATOM     14  C   UNL     1       1.913   4.352  17.836  0.00  0.00    +0.000 C 
BRANCH  14  15
ATOM     15  C   UNL     1       1.767   3.683  19.173  0.00  0.00    +0.000 A 
ATOM     16  C   UNL     1       1.079   4.113  20.296  0.00  0.00    +0.000 A 
ATOM     17  C   UNL     1       1.278   3.160  21.323  0.00  0.00    +0.000 A 
ATOM     18  C   UNL     1       2.075   2.164  20.804  0.00  0.00    +0.000 A 
ATOM     19  N   UNL     1       2.359   2.481  19.502  0.00  0.00    +0.000 N 
ATOM     20  C   UNL     1       3.169   1.663  18.624  0.00  0.00    +0.000 C 
ENDBRANCH  14  15
ENDBRANCH  13  14
ENDBRANCH   2  13
TORSDOF 6
ENDMDL
MODEL 4
REMARK VINA RESULT:      -6.4      1.933      4.412
REMARK  Name = 
REMARK  8 active torsions:
REMARK  status: ('A' for Active; 'I' for Inactive)
REMARK    1  A    between atoms: C_1  and  C_2
REMARK    2  A    between atoms: C_2  and  C_3
REMARK    3  A    between atoms: C_2  and  N_11
REMARK    4  A    between atoms: C_3  and  C_4
REMARK    5  A    between atoms: C_4  and  C_5
REMARK    6  A    between atoms: N_9  and  C_10
REMARK    7  A    between atoms: N_11  and  C_12
REMARK    8  A    between atoms: C_17  and  C_18
REMARK                            x       y       z     vdW  Elec       q    Type
REMARK                         _______ _______ _______ _____ _____    ______ ____
ROOT
ATOM      1  C   UNL     1       2.349   2.535  17.922  0.00  0.00    +0.000 C 
ATOM      2  C   UNL     1       2.868   3.967  17.753  0.00  0.00    +0.000 C 
ENDROOT
BRANCH   2   3
ATOM      3  N   UNL     1       4.305   3.947  18.043  0.00  0.00    +0.000 N 
ATOM      4  H   UNL     1       4.563   4.262  18.972  0.00  0.00    +0.000 HD
BRANCH   3   5
ATOM      5  C   UNL     1       5.211   4.300  17.036  0.00  0.00    +0.000 A 
ATOM      6  N   UNL     1       4.915   4.015  15.743  0.00  0.00    +0.000 NA
ATOM      7  C   UNL     1       5.860   4.297  14.810  0.00  0.00    +0.000 A 
ATOM      8  C   UNL     1       7.088   4.842  15.131  0.00  0.00    +0.000 A 
ATOM      9  N   UNL     1       7.426   5.136  16.401  0.00  0.00    +0.000 NA
ATOM     10  C   UNL     1       6.473   4.844  17.336  0.00  0.00    +0.000 A 
BRANCH  10  11
ATOM     11  C   UNL     1       6.839   5.156  18.686  0.00  0.00    +0.000 C 
ATOM     12  N   UNL     1       7.156   5.458  19.761  0.00  0.00    +0.000 NA
ENDBRANCH  10  11
ENDBRANCH   3   5
ENDBRANCH   2   3
BRANCH   2  13
ATOM     13  C   UNL     1       2.122   4.899  18.732  0.00  0.00    +0.000 C 
BRANCH  13  14
ATOM     14  C   UNL     1       2.997   6.037  19.271  0.00  0.00    +0.000 C 
BRANCH  14  15
ATOM     15  C   UNL     1       2.458   7.387  18.898  0.00  0.00    +0.000 A 
ATOM     16  C   UNL     1       2.624   8.102  17.723  0.00  0.00    +0.000 A 
ATOM     17  C   UNL     1       1.963   9.344  17.868  0.00  0.00    +0.000 A 
ATOM     18  C   UNL     1       1.398   9.360  19.124  0.00  0.00    +0.000 A 
ATOM     19  N   UNL     1       1.693   8.170  19.737  0.00  0.00    +0.000 N 
ATOM     20  C   UNL     1       1.260   7.815  21.073  0.00  0.00    +0.000 C 
ENDBRANCH  14  15
ENDBRANCH  13  14
ENDBRANCH   2  13
TORSDOF 6
ENDMDL
MODEL 5
REMARK VINA RESULT:      -6.2      0.942      2.245
REMARK  Name = 
REMARK  8 active torsions:
REMARK  status: ('A' for Active; 'I' for Inactive)
REMARK    1  A    between atoms: C_1  and  C_2
REMARK    2  A    between atoms: C_2  and  C_3
REMARK    3  A    between atoms: C_2  and  N_11
REMARK    4  A    between atoms: C_3  and  C_4
REMARK    5  A    between atoms: C_4  and  C_5
REMARK    6  A    between atoms: N_9  and  C_10
REMARK    7  A    between atoms: N_11  and  C_12
REMARK    8  A    between atoms: C_17  and  C_18
REMARK                            x       y       z     vdW  Elec       q    Type
REMARK                         _______ _______ _______ _____ _____    ______ ____
ROOT
ATOM      1  C   UNL     1       2.104   6.385  17.976  0.00  0.00    +0.000 C 
ATOM      2  C   UNL     1       3.332   5.533  18.316  0.00  0.00    +0.000 C 
ENDROOT
BRANCH   2   3
ATOM      3  N   UNL     1       4.518   6.331  17.992  0.00  0.00    +0.000 N 
ATOM      4  H   UNL     1       4.365   7.332  17.936  0.00  0.00    +0.000 HD
BRANCH   3   5
ATOM      5  C   UNL     1       5.446   5.832  17.070  0.00  0.00    +0.000 A 
ATOM      6  N   UNL     1       5.113   5.768  15.757  0.00  0.00    +0.000 NA
ATOM      7  C   UNL     1       6.010   5.197  14.913  0.00  0.00    +0.000 A 
ATOM      8  C   UNL     1       7.218   4.683  15.342  0.00  0.00    +0.000 A 
ATOM      9  N   UNL     1       7.587   4.720  16.637  0.00  0.00    +0.000 NA
ATOM     10  C   UNL     1       6.678   5.290  17.482  0.00  0.00    +0.000 A 
BRANCH  10  11
ATOM     11  C   UNL     1       7.074   5.324  18.858  0.00  0.00    +0.000 C 
ATOM     12  N   UNL     1       7.446   5.373  19.958  0.00  0.00    +0.000 NA
ENDBRANCH  10  11
ENDBRANCH   3   5
ENDBRANCH   2   3
BRANCH   2  13
ATOM     13  C   UNL     1       3.298   4.234  17.484  0.00  0.00    +0.000 C 
BRANCH  13  14
ATOM     14  C   UNL     1       2.157   3.290  17.880  0.00  0.00    +0.000 C 
BRANCH  14  15
ATOM     15  C   UNL     1       2.055   3.124  19.369  0.00  0.00    +0.000 A 
ATOM     16  C   UNL     1       1.005   3.440  20.215  0.00  0.00    +0.000 A 
ATOM     17  C   UNL     1       1.406   3.146  21.539  0.00  0.00    +0.000 A 
ATOM     18  C   UNL     1       2.688   2.646  21.475  0.00  0.00    +0.000 A 
ATOM     19  N   UNL     1       3.071   2.627  20.160  0.00  0.00    +0.000 N 
ATOM     20  C   UNL     1       4.359   2.157  19.695  0.00  0.00    +0.000 C 
ENDBRANCH  14  15
ENDBRANCH  13  14
ENDBRANCH   2  13
TORSDOF 6
ENDMDL
MODEL 6
REMARK VINA RESULT:      -6.1      1.410      2.849
REMARK  Name = 
REMARK  8 active torsions:
REMARK  status: ('A' for Active; 'I' for Inactive)
REMARK    1  A    between atoms: C_1  and  C_2
REMARK    2  A    between atoms: C_2  and  C_3
REMARK    3  A    between atoms: C_2  and  N_11
REMARK    4  A    between atoms: C_3  and  C_4
REMARK    5  A    between atoms: C_4  and  C_5
REMARK    6  A    between atoms: N_9  and  C_10
REMARK    7  A    between atoms: N_11  and  C_12
REMARK    8  A    between atoms: C_17  and  C_18
REMARK                            x       y       z     vdW  Elec       q    Type
REMARK                         _______ _______ _______ _____ _____    ______ ____
ROOT
ATOM      1  C   UNL     1       2.632   3.333  17.174  0.00  0.00    +0.000 C 
ATOM      2  C   UNL     1       3.505   4.586  17.042  0.00  0.00    +0.000 C 
ENDROOT
BRANCH   2   3
ATOM      3  N   UNL     1       4.902   4.144  17.026  0.00  0.00    +0.000 N 
ATOM      4  H   UNL     1       5.386   4.206  17.915  0.00  0.00    +0.000 HD
BRANCH   3   5
ATOM      5  C   UNL     1       5.697   4.431  15.909  0.00  0.00    +0.000 A 
ATOM      6  N   UNL     1       5.448   3.801  14.734  0.00  0.00    +0.000 NA
ATOM      7  C   UNL     1       6.297   4.044  13.704  0.00  0.00    +0.000 A 
ATOM      8  C   UNL     1       7.387   4.885  13.816  0.00  0.00    +0.000 A 
ATOM      9  N   UNL     1       7.674   5.527  14.965  0.00  0.00    +0.000 NA
ATOM     10  C   UNL     1       6.820   5.273  15.999  0.00  0.00    +0.000 A 
BRANCH  10  11
ATOM     11  C   UNL     1       7.133   5.956  17.220  0.00  0.00    +0.000 C 
ATOM     12  N   UNL     1       7.442   6.494  18.202  0.00  0.00    +0.000 NA
ENDBRANCH  10  11
ENDBRANCH   3   5
ENDBRANCH   2   3
BRANCH   2  13
ATOM     13  C   UNL     1       3.238   5.522  18.240  0.00  0.00    +0.000 C 
BRANCH  13  14
ATOM     14  C   UNL     1       3.901   5.049  19.539  0.00  0.00    +0.000 C 
BRANCH  14  15
ATOM     15  C   UNL     1       3.009   4.129  20.323  0.00  0.00    +0.000 A 
ATOM     16  C   UNL     1       1.766   4.380  20.879  0.00  0.00    +0.000 A 
ATOM     17  C   UNL     1       1.349   3.215  21.564  0.00  0.00    +0.000 A 
ATOM     18  C   UNL     1       2.341   2.273  21.405  0.00  0.00    +0.000 A 
ATOM     19  N   UNL     1       3.337   2.829  20.647  0.00  0.00    +0.000 N 
ATOM     20  C   UNL     1       4.548   2.135  20.261  0.00  0.00    +0.000 C 
ENDBRANCH  14  15
ENDBRANCH  13  14
ENDBRANCH   2  13
TORSDOF 6
ENDMDL
MODEL 7
REMARK VINA RESULT:      -6.1      2.112      4.275
REMARK  Name = 
REMARK  8 active torsions:
REMARK  status: ('A' for Active; 'I' for Inactive)
REMARK    1  A    between atoms: C_1  and  C_2
REMARK    2  A    between atoms: C_2  and  C_3
REMARK    3  A    between atoms: C_2  and  N_11
REMARK    4  A    between atoms: C_3  and  C_4
REMARK    5  A    between atoms: C_4  and  C_5
REMARK    6  A    between atoms: N_9  and  C_10
REMARK    7  A    between atoms: N_11  and  C_12
REMARK    8  A    between atoms: C_17  and  C_18
REMARK                            x       y       z     vdW  Elec       q    Type
REMARK                         _______ _______ _______ _____ _____    ______ ____
ROOT
ATOM      1  C   UNL     1       3.683   2.866  20.080  0.00  0.00    +0.000 C 
ATOM      2  C   UNL     1       4.039   3.822  18.936  0.00  0.00    +0.000 C 
ENDROOT
BRANCH   2   3
ATOM      3  N   UNL     1       5.391   3.478  18.485  0.00  0.00    +0.000 N 
ATOM      4  H   UNL     1       6.085   3.398  19.221  0.00  0.00    +0.000 HD
BRANCH   3   5
ATOM      5  C   UNL     1       5.872   4.022  17.288  0.00  0.00    +0.000 A 
ATOM      6  N   UNL     1       5.302   3.655  16.113  0.00  0.00    +0.000 NA
ATOM      7  C   UNL     1       5.857   4.139  14.973  0.00  0.00    +0.000 A 
ATOM      8  C   UNL     1       6.964   4.966  14.973  0.00  0.00    +0.000 A 
ATOM      9  N   UNL     1       7.564   5.351  16.116  0.00  0.00    +0.000 NA
ATOM     10  C   UNL     1       7.004   4.855  17.259  0.00  0.00    +0.000 A 
BRANCH  10  11
ATOM     11  C   UNL     1       7.649   5.265  18.471  0.00  0.00    +0.000 C 
ATOM     12  N   UNL     1       8.214   5.561  19.442  0.00  0.00    +0.000 NA
ENDBRANCH  10  11
ENDBRANCH   3   5
ENDBRANCH   2   3
BRANCH   2  13
ATOM     13  C   UNL     1       3.984   5.276  19.449  0.00  0.00    +0.000 C 
BRANCH  13  14
ATOM     14  C   UNL     1       3.056   6.176  18.624  0.00  0.00    +0.000 C 
BRANCH  14  15
ATOM     15  C   UNL     1       2.277   7.124  19.489  0.00  0.00    +0.000 A 
ATOM     16  C   UNL     1       1.788   6.939  20.772  0.00  0.00    +0.000 A 
ATOM     17  C   UNL     1       1.077   8.104  21.142  0.00  0.00    +0.000 A 
ATOM     18  C   UNL     1       1.154   8.982  20.084  0.00  0.00    +0.000 A 
ATOM     19  N   UNL     1       1.889   8.387  19.092  0.00  0.00    +0.000 N 
ATOM     20  C   UNL     1       2.192   9.011  17.821  0.00  0.00    +0.000 C 
ENDBRANCH  14  15
ENDBRANCH  13  14
ENDBRANCH   2  13
TORSDOF 6
ENDMDL
MODEL 8
REMARK VINA RESULT:      -6.1      1.520      2.793
REMARK  Name = 
REMARK  8 active torsions:
REMARK  status: ('A' for Active; 'I' for Inactive)
REMARK    1  A    between atoms: C_1  and  C_2
REMARK    2  A    between atoms: C_2  and  C_3
REMARK    3  A    between atoms: C_2  and  N_11
REMARK    4  A    between atoms: C_3  and  C_4
REMARK    5  A    between atoms: C_4  and  C_5
REMARK    6  A    between atoms: N_9  and  C_10
REMARK    7  A    between atoms: N_11  and  C_12
REMARK    8  A    between atoms: C_17  and  C_18
REMARK                            x       y       z     vdW  Elec       q    Type
REMARK                         _______ _______ _______ _____ _____    ______ ____
ROOT
ATOM      1  C   UNL     1       2.929   7.675  17.771  0.00  0.00    +0.000 C 
ATOM      2  C   UNL     1       3.981   6.622  18.138  0.00  0.00    +0.000 C 
ENDROOT
BRANCH   2   3
ATOM      3  N   UNL     1       5.247   7.040  17.530  0.00  0.00    +0.000 N 
ATOM      4  H   UNL     1       5.306   8.023  17.285  0.00  0.00    +0.000 HD
BRANCH   3   5
ATOM      5  C   UNL     1       5.894   6.178  16.637  0.00  0.00    +0.000 A 
ATOM      6  N   UNL     1       5.434   6.066  15.366  0.00  0.00    +0.000 NA
ATOM      7  C   UNL     1       6.038   5.155  14.561  0.00  0.00    +0.000 A 
ATOM      8  C   UNL     1       7.075   4.350  14.990  0.00  0.00    +0.000 A 
ATOM      9  N   UNL     1       7.561   4.424  16.244  0.00  0.00    +0.000 NA
ATOM     10  C   UNL     1       6.944   5.339  17.051  0.00  0.00    +0.000 A 
BRANCH  10  11
ATOM     11  C   UNL     1       7.463   5.410  18.385  0.00  0.00    +0.000 C 
ATOM     12  N   UNL     1       7.936   5.467  19.444  0.00  0.00    +0.000 NA
ENDBRANCH  10  11
ENDBRANCH   3   5
ENDBRANCH   2   3
BRANCH   2  13
ATOM     13  C   UNL     1       3.537   5.247  17.594  0.00  0.00    +0.000 C 
BRANCH  13  14
ATOM     14  C   UNL     1       2.062   4.933  17.872  0.00  0.00    +0.000 C 
BRANCH  14  15
ATOM     15  C   UNL     1       1.893   4.045  19.071  0.00  0.00    +0.000 A 
ATOM     16  C   UNL     1       1.896   2.662  19.144  0.00  0.00    +0.000 A 
ATOM     17  C   UNL     1       1.649   2.293  20.487  0.00  0.00    +0.000 A 
ATOM     18  C   UNL     1       1.510   3.457  21.209  0.00  0.00    +0.000 A 
ATOM     19  N   UNL     1       1.669   4.512  20.350  0.00  0.00    +0.000 N 
ATOM     20  C   UNL     1       1.598   5.902  20.748  0.00  0.00    +0.000 C 
ENDBRANCH  14  15
ENDBRANCH  13  14
ENDBRANCH   2  13
TORSDOF 6
ENDMDL
MODEL 9
REMARK VINA RESULT:      -5.9      1.529      2.042
REMARK  Name = 
REMARK  8 active torsions:
REMARK  status: ('A' for Active; 'I' for Inactive)
REMARK    1  A    between atoms: C_1  and  C_2
REMARK    2  A    between atoms: C_2  and  C_3
REMARK    3  A    between atoms: C_2  and  N_11
REMARK    4  A    between atoms: C_3  and  C_4
REMARK    5  A    between atoms: C_4  and  C_5
REMARK    6  A    between atoms: N_9  and  C_10
REMARK    7  A    between atoms: N_11  and  C_12
REMARK    8  A    between atoms: C_17  and  C_18
REMARK                            x       y       z     vdW  Elec       q    Type
REMARK                         _______ _______ _______ _____ _____    ______ ____
ROOT
ATOM      1  C   UNL     1       3.108   2.739  16.848  0.00  0.00    +0.000 C 
ATOM      2  C   UNL     1       4.021   3.969  16.804  0.00  0.00    +0.000 C 
ENDROOT
BRANCH   2   3
ATOM      3  N   UNL     1       5.350   3.542  17.251  0.00  0.00    +0.000 N 
ATOM      4  H   UNL     1       5.378   2.652  17.736  0.00  0.00    +0.000 HD
BRANCH   3   5
ATOM      5  C   UNL     1       6.248   4.499  17.739  0.00  0.00    +0.000 A 
ATOM      6  N   UNL     1       6.353   4.693  19.077  0.00  0.00    +0.000 NA
ATOM      7  C   UNL     1       7.171   5.690  19.500  0.00  0.00    +0.000 A 
ATOM      8  C   UNL     1       7.875   6.500  18.631  0.00  0.00    +0.000 A 
ATOM      9  N   UNL     1       7.797   6.345  17.295  0.00  0.00    +0.000 NA
ATOM     10  C   UNL     1       6.967   5.345  16.875  0.00  0.00    +0.000 A 
BRANCH  10  11
ATOM     11  C   UNL     1       6.885   5.188  15.453  0.00  0.00    +0.000 C 
ATOM     12  N   UNL     1       6.794   5.112  14.298  0.00  0.00    +0.000 NA
ENDBRANCH  10  11
ENDBRANCH   3   5
ENDBRANCH   2   3
BRANCH   2  13
ATOM     13  C   UNL     1       3.452   5.060  17.737  0.00  0.00    +0.000 C 
BRANCH  13  14
ATOM     14  C   UNL     1       2.004   4.796  18.166  0.00  0.00    +0.000 C 
BRANCH  14  15
ATOM     15  C   UNL     1       1.925   4.206  19.545  0.00  0.00    +0.000 A 
ATOM     16  C   UNL     1       2.503   4.651  20.721  0.00  0.00    +0.000 A 
ATOM     17  C   UNL     1       2.179   3.731  21.745  0.00  0.00    +0.000 A 
ATOM     18  C   UNL     1       1.400   2.747  21.176  0.00  0.00    +0.000 A 
ATOM     19  N   UNL     1       1.243   3.046  19.848  0.00  0.00    +0.000 N 
ATOM     20  C   UNL     1       0.475   2.242  18.920  0.00  0.00    +0.000 C 
ENDBRANCH  14  15
ENDBRANCH  13  14
ENDBRANCH   2  13
TORSDOF 6
ENDMDL
