MODEL 1
REMARK VINA RESULT:      -8.1      0.000      0.000
REMARK  Name = 
REMARK  5 active torsions:
REMARK  status: ('A' for Active; 'I' for Inactive)
REMARK    1  A    between atoms: C_1  and  C_2
REMARK    2  A    between atoms: C_5  and  N_6
REMARK    3  A    between atoms: N_6  and  C_7
REMARK    4  A    between atoms: C_7  and  C_8
REMARK    5  A    between atoms: C_14  and  C_15
REMARK                            x       y       z     vdW  Elec       q    Type
REMARK                         _______ _______ _______ _____ _____    ______ ____
ROOT
ATOM      1  C   UNL     1       5.748   4.565  16.681  0.00  0.00    +0.000 A 
ATOM      2  C   UNL     1       5.320   3.843  15.560  0.00  0.00    +0.000 A 
ATOM      3  C   UNL     1       5.947   4.006  14.320  0.00  0.00    +0.000 A 
ATOM      4  C   UNL     1       5.498   3.304  13.190  0.00  0.00    +0.000 A 
ATOM      5  C   UNL     1       6.125   3.478  11.964  0.00  0.00    +0.000 A 
ATOM      6  C   UNL     1       7.202   4.352  11.859  0.00  0.00    +0.000 A 
ATOM      7  C   UNL     1       7.656   5.059  12.985  0.00  0.00    +0.000 A 
ATOM      8  C   UNL     1       8.825   5.999  12.848  0.00  0.00    +0.000 C 
ATOM      9  C   UNL     1       7.037   4.898  14.231  0.00  0.00    +0.000 A 
ATOM     10  N   UNL     1       7.476   5.576  15.307  0.00  0.00    +0.000 NA
ATOM     11  C   UNL     1       6.838   5.398  16.486  0.00  0.00    +0.000 A 
ATOM     12 CL   UNL     1       7.536   6.342  17.747  0.00  0.00    +0.000 Cl
ENDROOT
BRANCH   1  13
ATOM     13  C   UNL     1       5.091   4.393  18.024  0.00  0.00    +0.000 C 
BRANCH  13  14
ATOM     14  N   UNL     1       3.629   4.516  17.955  0.00  0.00    +0.000 N 
ATOM     15  H   UNL     1       3.173   3.630  18.157  0.00  0.00    +0.000 HD
BRANCH  14  20
ATOM     16  C   UNL     1       1.092   8.680  20.978  0.00  0.00    +0.000 C 
ATOM     17  C   UNL     1       1.739   7.598  20.168  0.00  0.00    +0.000 A 
ATOM     18  C   UNL     1       2.277   7.872  18.910  0.00  0.00    +0.000 A 
ATOM     19  C   UNL     1       2.900   6.863  18.170  0.00  0.00    +0.000 A 
ATOM     20  C   UNL     1       3.029   5.564  18.675  0.00  0.00    +0.000 A 
ATOM     21  C   UNL     1       2.424   5.284  19.907  0.00  0.00    +0.000 A 
ATOM     22  C   UNL     1       1.803   6.291  20.656  0.00  0.00    +0.000 A 
ENDBRANCH  14  20
ENDBRANCH  13  14
ENDBRANCH   1  13
TORSDOF 3
ENDMDL
MODEL 2
REMARK VINA RESULT:      -8.1      0.138      1.055
REMARK  Name = 
REMARK  5 active torsions:
REMARK  status: ('A' for Active; 'I' for Inactive)
REMARK    1  A    between atoms: C_1  and  C_2
REMARK    2  A    between atoms: C_5  and  N_6
REMARK    3  A    between atoms: N_6  and  C_7
REMARK    4  A    between atoms: C_7  and  C_8
REMARK    5  A    between atoms: C_14  and  C_15
REMARK                            x       y       z     vdW  Elec       q    Type
REMARK                         _______ _______ _______ _____ _____    ______ ____
ROOT
ATOM      1  C   UNL     1       5.676   4.665  16.669  0.00  0.00    +0.000 A 
ATOM      2  C   UNL     1       5.251   3.935  15.553  0.00  0.00    +0.000 A 
ATOM      3  C   UNL     1       5.902   4.062  14.321  0.00  0.00    +0.000 A 
ATOM      4  C   UNL     1       5.457   3.351  13.196  0.00  0.00    +0.000 A 
ATOM      5  C   UNL     1       6.109   3.490  11.977  0.00  0.00    +0.000 A 
ATOM      6  C   UNL     1       7.207   4.338  11.876  0.00  0.00    +0.000 A 
ATOM      7  C   UNL     1       7.658   5.053  12.999  0.00  0.00    +0.000 A 
ATOM      8  C   UNL     1       8.850   5.964  12.866  0.00  0.00    +0.000 C 
ATOM      9  C   UNL     1       7.014   4.927  14.236  0.00  0.00    +0.000 A 
ATOM     10  N   UNL     1       7.450   5.613  15.308  0.00  0.00    +0.000 NA
ATOM     11  C   UNL     1       6.789   5.470  16.478  0.00  0.00    +0.000 A 
ATOM     12 CL   UNL     1       7.487   6.419  17.735  0.00  0.00    +0.000 Cl
ENDROOT
BRANCH   1  13
ATOM     13  C   UNL     1       4.994   4.531  18.002  0.00  0.00    +0.000 C 
BRANCH  13  14
ATOM     14  N   UNL     1       3.531   4.621  17.898  0.00  0.00    +0.000 N 
ATOM     15  H   UNL     1       3.098   3.704  17.972  0.00  0.00    +0.000 HD
BRANCH  14  20
ATOM     16  C   UNL     1       0.942   8.549  21.181  0.00  0.00    +0.000 C 
ATOM     17  C   UNL     1       1.633   7.517  20.344  0.00  0.00    +0.000 A 
ATOM     18  C   UNL     1       1.707   6.188  20.764  0.00  0.00    +0.000 A 
ATOM     19  C   UNL     1       2.333   5.225  19.967  0.00  0.00    +0.000 A 
ATOM     20  C   UNL     1       2.875   5.553  18.720  0.00  0.00    +0.000 A 
ATOM     21  C   UNL     1       2.857   6.901  18.340  0.00  0.00    +0.000 A 
ATOM     22  C   UNL     1       2.227   7.870  19.130  0.00  0.00    +0.000 A 
ENDBRANCH  14  20
ENDBRANCH  13  14
ENDBRANCH   1  13
TORSDOF 3
ENDMDL
MODEL 3
REMARK VINA RESULT:      -8.0      2.111      7.401
REMARK  Name = 
REMARK  5 active torsions:
REMARK  status: ('A' for Active; 'I' for Inactive)
REMARK    1  A    between atoms: C_1  and  C_2
REMARK    2  A    between atoms: C_5  and  N_6
REMARK    3  A    between atoms: N_6  and  C_7
REMARK    4  A    between atoms: C_7  and  C_8
REMARK    5  A    between atoms: C_14  and  C_15
REMARK                            x       y       z     vdW  Elec       q    Type
REMARK                         _______ _______ _______ _____ _____    ______ ____
ROOT
ATOM      1  C   UNL     1       2.857   5.074  18.988  0.00  0.00    +0.000 A 
ATOM      2  C   UNL     1       2.860   6.195  18.148  0.00  0.00    +0.000 A 
ATOM      3  C   UNL     1       2.311   7.410  18.571  0.00  0.00    +0.000 A 
ATOM      4  C   UNL     1       2.289   8.525  17.718  0.00  0.00    +0.000 A 
ATOM      5  C   UNL     1       1.737   9.724  18.147  0.00  0.00    +0.000 A 
ATOM      6  C   UNL     1       1.205   9.817  19.429  0.00  0.00    +0.000 A 
ATOM      7  C   UNL     1       1.223   8.706  20.289  0.00  0.00    +0.000 A 
ATOM      8  C   UNL     1       0.643   8.831  21.673  0.00  0.00    +0.000 C 
ATOM      9  C   UNL     1       1.775   7.487  19.874  0.00  0.00    +0.000 A 
ATOM     10  N   UNL     1       1.791   6.426  20.701  0.00  0.00    +0.000 NA
ATOM     11  C   UNL     1       2.322   5.267  20.253  0.00  0.00    +0.000 A 
ATOM     12 CL   UNL     1       2.259   4.023  21.443  0.00  0.00    +0.000 Cl
ENDROOT
BRANCH   1  13
ATOM     13  C   UNL     1       3.453   3.764  18.551  0.00  0.00    +0.000 C 
BRANCH  13  14
ATOM     14  N   UNL     1       4.921   3.801  18.504  0.00  0.00    +0.000 N 
ATOM     15  H   UNL     1       5.326   2.969  18.923  0.00  0.00    +0.000 HD
BRANCH  14  20
ATOM     16  C   UNL     1       7.493   5.061  13.533  0.00  0.00    +0.000 C 
ATOM     17  C   UNL     1       6.801   4.748  14.824  0.00  0.00    +0.000 A 
ATOM     18  C   UNL     1       5.492   4.265  14.835  0.00  0.00    +0.000 A 
ATOM     19  C   UNL     1       4.861   3.952  16.042  0.00  0.00    +0.000 A 
ATOM     20  C   UNL     1       5.525   4.085  17.267  0.00  0.00    +0.000 A 
ATOM     21  C   UNL     1       6.813   4.636  17.249  0.00  0.00    +0.000 A 
ATOM     22  C   UNL     1       7.453   4.946  16.043  0.00  0.00    +0.000 A 
ENDBRANCH  14  20
ENDBRANCH  13  14
ENDBRANCH   1  13
TORSDOF 3
ENDMDL
MODEL 4
REMARK VINA RESULT:      -8.0      1.653      2.358
REMARK  Name = 
REMARK  5 active torsions:
REMARK  status: ('A' for Active; 'I' for Inactive)
REMARK    1  A    between atoms: C_1  and  C_2
REMARK    2  A    between atoms: C_5  and  N_6
REMARK    3  A    between atoms: N_6  and  C_7
REMARK    4  A    between atoms: C_7  and  C_8
REMARK    5  A    between atoms: C_14  and  C_15
REMARK                            x       y       z     vdW  Elec       q    Type
REMARK                         _______ _______ _______ _____ _____    ______ ____
ROOT
ATOM      1  C   UNL     1       5.855   4.968  16.750  0.00  0.00    +0.000 A 
ATOM      2  C   UNL     1       5.361   4.145  15.730  0.00  0.00    +0.000 A 
ATOM      3  C   UNL     1       5.937   4.157  14.456  0.00  0.00    +0.000 A 
ATOM      4  C   UNL     1       5.423   3.353  13.426  0.00  0.00    +0.000 A 
ATOM      5  C   UNL     1       6.001   3.377  12.164  0.00  0.00    +0.000 A 
ATOM      6  C   UNL     1       7.094   4.203  11.923  0.00  0.00    +0.000 A 
ATOM      7  C   UNL     1       7.615   5.010  12.949  0.00  0.00    +0.000 A 
ATOM      8  C   UNL     1       8.801   5.895  12.665  0.00  0.00    +0.000 C 
ATOM      9  C   UNL     1       7.045   5.000  14.228  0.00  0.00    +0.000 A 
ATOM     10  N   UNL     1       7.548   5.775  15.208  0.00  0.00    +0.000 NA
ATOM     11  C   UNL     1       6.958   5.743  16.423  0.00  0.00    +0.000 A 
ATOM     12 CL   UNL     1       7.734   6.792  17.547  0.00  0.00    +0.000 Cl
ENDROOT
BRANCH   1  13
ATOM     13  C   UNL     1       5.253   4.959  18.128  0.00  0.00    +0.000 C 
BRANCH  13  14
ATOM     14  N   UNL     1       3.786   5.027  18.102  0.00  0.00    +0.000 N 
ATOM     15  H   UNL     1       3.419   4.766  17.190  0.00  0.00    +0.000 HD
BRANCH  14  20
ATOM     16  C   UNL     1       1.037   2.236  22.293  0.00  0.00    +0.000 C 
ATOM     17  C   UNL     1       1.736   2.956  21.182  0.00  0.00    +0.000 A 
ATOM     18  C   UNL     1       1.057   3.888  20.395  0.00  0.00    +0.000 A 
ATOM     19  C   UNL     1       1.722   4.574  19.375  0.00  0.00    +0.000 A 
ATOM     20  C   UNL     1       3.085   4.373  19.130  0.00  0.00    +0.000 A 
ATOM     21  C   UNL     1       3.739   3.387  19.879  0.00  0.00    +0.000 A 
ATOM     22  C   UNL     1       3.081   2.699  20.906  0.00  0.00    +0.000 A 
ENDBRANCH  14  20
ENDBRANCH  13  14
ENDBRANCH   1  13
TORSDOF 3
ENDMDL
MODEL 5
REMARK VINA RESULT:      -7.9      2.162      7.356
REMARK  Name = 
REMARK  5 active torsions:
REMARK  status: ('A' for Active; 'I' for Inactive)
REMARK    1  A    between atoms: C_1  and  C_2
REMARK    2  A    between atoms: C_5  and  N_6
REMARK    3  A    between atoms: N_6  and  C_7
REMARK    4  A    between atoms: C_7  and  C_8
REMARK    5  A    between atoms: C_14  and  C_15
REMARK                            x       y       z     vdW  Elec       q    Type
REMARK                         _______ _______ _______ _____ _____    ______ ____
ROOT
ATOM      1  C   UNL     1       3.062   4.963  19.187  0.00  0.00    +0.000 A 
ATOM      2  C   UNL     1       3.088   6.055  18.312  0.00  0.00    +0.000 A 
ATOM      3  C   UNL     1       2.466   7.262  18.651  0.00  0.00    +0.000 A 
ATOM      4  C   UNL     1       2.468   8.347  17.761  0.00  0.00    +0.000 A 
ATOM      5  C   UNL     1       1.844   9.538  18.107  0.00  0.00    +0.000 A 
ATOM      6  C   UNL     1       1.215   9.651  19.343  0.00  0.00    +0.000 A 
ATOM      7  C   UNL     1       1.208   8.569  20.239  0.00  0.00    +0.000 A 
ATOM      8  C   UNL     1       0.522   8.716  21.572  0.00  0.00    +0.000 C 
ATOM      9  C   UNL     1       1.832   7.360  19.908  0.00  0.00    +0.000 A 
ATOM     10  N   UNL     1       1.825   6.327  20.770  0.00  0.00    +0.000 NA
ATOM     11  C   UNL     1       2.428   5.175  20.402  0.00  0.00    +0.000 A 
ATOM     12 CL   UNL     1       2.320   3.968  21.626  0.00  0.00    +0.000 Cl
ENDROOT
BRANCH   1  13
ATOM     13  C   UNL     1       3.735   3.663  18.841  0.00  0.00    +0.000 C 
BRANCH  13  14
ATOM     14  N   UNL     1       5.196   3.790  18.759  0.00  0.00    +0.000 N 
ATOM     15  H   UNL     1       5.661   2.982  19.166  0.00  0.00    +0.000 HD
BRANCH  14  20
ATOM     16  C   UNL     1       7.371   4.990  13.588  0.00  0.00    +0.000 C 
ATOM     17  C   UNL     1       6.825   4.663  14.944  0.00  0.00    +0.000 A 
ATOM     18  C   UNL     1       7.549   4.965  16.098  0.00  0.00    +0.000 A 
ATOM     19  C   UNL     1       7.024   4.679  17.361  0.00  0.00    +0.000 A 
ATOM     20  C   UNL     1       5.753   4.112  17.509  0.00  0.00    +0.000 A 
ATOM     21  C   UNL     1       5.065   3.750  16.344  0.00  0.00    +0.000 A 
ATOM     22  C   UNL     1       5.583   4.038  15.076  0.00  0.00    +0.000 A 
ENDBRANCH  14  20
ENDBRANCH  13  14
ENDBRANCH   1  13
TORSDOF 3
ENDMDL
MODEL 6
REMARK VINA RESULT:      -7.9      2.544      4.425
REMARK  Name = 
REMARK  5 active torsions:
REMARK  status: ('A' for Active; 'I' for Inactive)
REMARK    1  A    between atoms: C_1  and  C_2
REMARK    2  A    between atoms: C_5  and  N_6
REMARK    3  A    between atoms: N_6  and  C_7
REMARK    4  A    between atoms: C_7  and  C_8
REMARK    5  A    between atoms: C_14  and  C_15
REMARK                            x       y       z     vdW  Elec       q    Type
REMARK                         _______ _______ _______ _____ _____    ______ ____
ROOT
ATOM      1  C   UNL     1       3.007   5.239  19.263  0.00  0.00    +0.000 A 
ATOM      2  C   UNL     1       4.333   5.520  19.615  0.00  0.00    +0.000 A 
ATOM      3  C   UNL     1       5.385   5.221  18.742  0.00  0.00    +0.000 A 
ATOM      4  C   UNL     1       6.716   5.476  19.107  0.00  0.00    +0.000 A 
ATOM      5  C   UNL     1       7.752   5.170  18.234  0.00  0.00    +0.000 A 
ATOM      6  C   UNL     1       7.464   4.609  16.994  0.00  0.00    +0.000 A 
ATOM      7  C   UNL     1       6.134   4.351  16.622  0.00  0.00    +0.000 A 
ATOM      8  C   UNL     1       5.847   3.745  15.273  0.00  0.00    +0.000 C 
ATOM      9  C   UNL     1       5.076   4.652  17.488  0.00  0.00    +0.000 A 
ATOM     10  N   UNL     1       3.803   4.404  17.127  0.00  0.00    +0.000 NA
ATOM     11  C   UNL     1       2.815   4.698  18.001  0.00  0.00    +0.000 A 
ATOM     12 CL   UNL     1       1.259   4.317  17.370  0.00  0.00    +0.000 Cl
ENDROOT
BRANCH   1  13
ATOM     13  C   UNL     1       1.864   5.565  20.186  0.00  0.00    +0.000 C 
BRANCH  13  14
ATOM     14  N   UNL     1       2.060   6.834  20.899  0.00  0.00    +0.000 N 
ATOM     15  H   UNL     1       3.039   6.983  21.127  0.00  0.00    +0.000 HD
BRANCH  14  20
ATOM     16  C   UNL     1      -0.377  11.540  18.700  0.00  0.00    +0.000 C 
ATOM     17  C   UNL     1       0.252  10.298  19.253  0.00  0.00    +0.000 A 
ATOM     18  C   UNL     1       1.196   9.584  18.513  0.00  0.00    +0.000 A 
ATOM     19  C   UNL     1       1.797   8.439  19.044  0.00  0.00    +0.000 A 
ATOM     20  C   UNL     1       1.495   7.992  20.335  0.00  0.00    +0.000 A 
ATOM     21  C   UNL     1       0.496   8.674  21.041  0.00  0.00    +0.000 A 
ATOM     22  C   UNL     1      -0.106   9.825  20.517  0.00  0.00    +0.000 A 
ENDBRANCH  14  20
ENDBRANCH  13  14
ENDBRANCH   1  13
TORSDOF 3
ENDMDL
MODEL 7
REMARK VINA RESULT:      -7.9      2.536      4.464
REMARK  Name = 
REMARK  5 active torsions:
REMARK  status: ('A' for Active; 'I' for Inactive)
REMARK    1  A    between atoms: C_1  and  C_2
REMARK    2  A    between atoms: C_5  and  N_6
REMARK    3  A    between atoms: N_6  and  C_7
REMARK    4  A    between atoms: C_7  and  C_8
REMARK    5  A    between atoms: C_14  and  C_15
REMARK                            x       y       z     vdW  Elec       q    Type
REMARK                         _______ _______ _______ _____ _____    ______ ____
ROOT
ATOM      1  C   UNL     1       2.994   5.119  19.269  0.00  0.00    +0.000 A 
ATOM      2  C   UNL     1       4.316   5.415  19.624  0.00  0.00    +0.000 A 
ATOM      3  C   UNL     1       5.370   5.158  18.741  0.00  0.00    +0.000 A 
ATOM      4  C   UNL     1       6.698   5.428  19.108  0.00  0.00    +0.000 A 
ATOM      5  C   UNL     1       7.736   5.164  18.225  0.00  0.00    +0.000 A 
ATOM      6  C   UNL     1       7.455   4.630  16.972  0.00  0.00    +0.000 A 
ATOM      7  C   UNL     1       6.128   4.357  16.597  0.00  0.00    +0.000 A 
ATOM      8  C   UNL     1       5.848   3.780  15.234  0.00  0.00    +0.000 C 
ATOM      9  C   UNL     1       5.068   4.616  17.474  0.00  0.00    +0.000 A 
ATOM     10  N   UNL     1       3.798   4.353  17.110  0.00  0.00    +0.000 NA
ATOM     11  C   UNL     1       2.808   4.606  17.994  0.00  0.00    +0.000 A 
ATOM     12 CL   UNL     1       1.257   4.212  17.358  0.00  0.00    +0.000 Cl
ENDROOT
BRANCH   1  13
ATOM     13  C   UNL     1       1.849   5.399  20.203  0.00  0.00    +0.000 C 
BRANCH  13  14
ATOM     14  N   UNL     1       2.034   6.641  20.965  0.00  0.00    +0.000 N 
ATOM     15  H   UNL     1       3.012   6.785  21.206  0.00  0.00    +0.000 HD
BRANCH  14  20
ATOM     16  C   UNL     1      -0.147  11.452  18.727  0.00  0.00    +0.000 C 
ATOM     17  C   UNL     1       0.431  10.210  19.332  0.00  0.00    +0.000 A 
ATOM     18  C   UNL     1       0.081   9.814  20.624  0.00  0.00    +0.000 A 
ATOM     19  C   UNL     1       0.606   8.641  21.174  0.00  0.00    +0.000 A 
ATOM     20  C   UNL     1       1.469   7.817  20.443  0.00  0.00    +0.000 A 
ATOM     21  C   UNL     1       1.867   8.259  19.175  0.00  0.00    +0.000 A 
ATOM     22  C   UNL     1       1.342   9.430  18.616  0.00  0.00    +0.000 A 
ENDBRANCH  14  20
ENDBRANCH  13  14
ENDBRANCH   1  13
TORSDOF 3
ENDMDL
MODEL 8
REMARK VINA RESULT:      -7.8      4.694      6.546
REMARK  Name = 
REMARK  5 active torsions:
REMARK  status: ('A' for Active; 'I' for Inactive)
REMARK    1  A    between atoms: C_1  and  C_2
REMARK    2  A    between atoms: C_5  and  N_6
REMARK    3  A    between atoms: N_6  and  C_7
REMARK    4  A    between atoms: C_7  and  C_8
REMARK    5  A    between atoms: C_14  and  C_15
REMARK                            x       y       z     vdW  Elec       q    Type
REMARK                         _______ _______ _______ _____ _____    ______ ____
ROOT
ATOM      1  C   UNL     1       2.345   7.056  18.756  0.00  0.00    +0.000 A 
ATOM      2  C   UNL     1       2.540   5.985  17.875  0.00  0.00    +0.000 A 
ATOM      3  C   UNL     1       2.358   4.664  18.301  0.00  0.00    +0.000 A 
ATOM      4  C   UNL     1       2.581   3.590  17.425  0.00  0.00    +0.000 A 
ATOM      5  C   UNL     1       2.402   2.284  17.861  0.00  0.00    +0.000 A 
ATOM      6  C   UNL     1       2.000   2.043  19.170  0.00  0.00    +0.000 A 
ATOM      7  C   UNL     1       1.775   3.114  20.052  0.00  0.00    +0.000 A 
ATOM      8  C   UNL     1       1.338   2.830  21.466  0.00  0.00    +0.000 C 
ATOM      9  C   UNL     1       1.950   4.438  19.632  0.00  0.00    +0.000 A 
ATOM     10  N   UNL     1       1.733   5.461  20.480  0.00  0.00    +0.000 NA
ATOM     11  C   UNL     1       1.928   6.721  20.035  0.00  0.00    +0.000 A 
ATOM     12 CL   UNL     1       1.600   7.895  21.252  0.00  0.00    +0.000 Cl
ENDROOT
BRANCH   1  13
ATOM     13  C   UNL     1       2.526   8.481  18.310  0.00  0.00    +0.000 C 
BRANCH  13  14
ATOM     14  N   UNL     1       1.377   8.982  17.544  0.00  0.00    +0.000 N 
ATOM     15  H   UNL     1       0.863   8.221  17.109  0.00  0.00    +0.000 HD
BRANCH  14  20
ATOM     16  C   UNL     1      -2.083  12.632  20.303  0.00  0.00    +0.000 C 
ATOM     17  C   UNL     1      -1.196  11.659  19.589  0.00  0.00    +0.000 A 
ATOM     18  C   UNL     1      -1.708  10.814  18.604  0.00  0.00    +0.000 A 
ATOM     19  C   UNL     1      -0.870   9.926  17.925  0.00  0.00    +0.000 A 
ATOM     20  C   UNL     1       0.504   9.875  18.188  0.00  0.00    +0.000 A 
ATOM     21  C   UNL     1       0.994  10.677  19.227  0.00  0.00    +0.000 A 
ATOM     22  C   UNL     1       0.161  11.573  19.908  0.00  0.00    +0.000 A 
ENDBRANCH  14  20
ENDBRANCH  13  14
ENDBRANCH   1  13
TORSDOF 3
ENDMDL
MODEL 9
REMARK VINA RESULT:      -7.8      4.700      6.582
REMARK  Name = 
REMARK  5 active torsions:
REMARK  status: ('A' for Active; 'I' for Inactive)
REMARK    1  A    between atoms: C_1  and  C_2
REMARK    2  A    between atoms: C_5  and  N_6
REMARK    3  A    between atoms: N_6  and  C_7
REMARK    4  A    between atoms: C_7  and  C_8
REMARK    5  A    between atoms: C_14  and  C_15
REMARK                            x       y       z     vdW  Elec       q    Type
REMARK                         _______ _______ _______ _____ _____    ______ ____
ROOT
ATOM      1  C   UNL     1       2.303   7.157  18.724  0.00  0.00    +0.000 A 
ATOM      2  C   UNL     1       2.489   6.092  17.834  0.00  0.00    +0.000 A 
ATOM      3  C   UNL     1       2.314   4.769  18.252  0.00  0.00    +0.000 A 
ATOM      4  C   UNL     1       2.528   3.701  17.367  0.00  0.00    +0.000 A 
ATOM      5  C   UNL     1       2.356   2.391  17.795  0.00  0.00    +0.000 A 
ATOM      6  C   UNL     1       1.969   2.141  19.107  0.00  0.00    +0.000 A 
ATOM      7  C   UNL     1       1.753   3.205  20.000  0.00  0.00    +0.000 A 
ATOM      8  C   UNL     1       1.333   2.910  21.416  0.00  0.00    +0.000 C 
ATOM      9  C   UNL     1       1.922   4.533  19.587  0.00  0.00    +0.000 A 
ATOM     10  N   UNL     1       1.713   5.549  20.445  0.00  0.00    +0.000 NA
ATOM     11  C   UNL     1       1.901   6.813  20.006  0.00  0.00    +0.000 A 
ATOM     12 CL   UNL     1       1.587   7.977  21.235  0.00  0.00    +0.000 Cl
ENDROOT
BRANCH   1  13
ATOM     13  C   UNL     1       2.477   8.586  18.287  0.00  0.00    +0.000 C 
BRANCH  13  14
ATOM     14  N   UNL     1       1.320   9.089  17.534  0.00  0.00    +0.000 N 
ATOM     15  H   UNL     1       0.843   8.338  17.043  0.00  0.00    +0.000 HD
BRANCH  14  20
ATOM     16  C   UNL     1      -2.530  12.407  20.195  0.00  0.00    +0.000 C 
ATOM     17  C   UNL     1      -1.509  11.562  19.496  0.00  0.00    +0.000 A 
ATOM     18  C   UNL     1      -0.173  11.575  19.898  0.00  0.00    +0.000 A 
ATOM     19  C   UNL     1       0.769  10.766  19.257  0.00  0.00    +0.000 A 
ATOM     20  C   UNL     1       0.401   9.903  18.219  0.00  0.00    +0.000 A 
ATOM     21  C   UNL     1      -0.927   9.949  17.777  0.00  0.00    +0.000 A 
ATOM     22  C   UNL     1      -1.877  10.753  18.418  0.00  0.00    +0.000 A 
ENDBRANCH  14  20
ENDBRANCH  13  14
ENDBRANCH   1  13
TORSDOF 3
ENDMDL
