MODEL 1
REMARK VINA RESULT:      -6.8      0.000      0.000
REMARK  Name = 
REMARK  5 active torsions:
REMARK  status: ('A' for Active; 'I' for Inactive)
REMARK    1  A    between atoms: C_1  and  C_2
REMARK    2  A    between atoms: C_2  and  C_3
REMARK    3  A    between atoms: C_3  and  C_4
REMARK    4  A    between atoms: C_7  and  C_8
REMARK    5  A    between atoms: N_15  and  C_16
REMARK                            x       y       z     vdW  Elec       q    Type
REMARK                         _______ _______ _______ _____ _____    ______ ____
ROOT
ATOM      1  C   UNL     1       6.682   4.437  15.854  0.00  0.00    +0.000 A 
ATOM      2  C   UNL     1       7.599   4.580  16.871  0.00  0.00    +0.000 A 
ATOM      3  N   UNL     1       6.887   4.398  18.023  0.00  0.00    +0.000 N 
ATOM      4  C   UNL     1       5.586   4.132  17.681  0.00  0.00    +0.000 A 
ATOM      5  N   UNL     1       5.442   4.145  16.373  0.00  0.00    +0.000 NA
ATOM      6  H   UNL     1       7.241   4.449  18.966  0.00  0.00    +0.000 HD
ENDROOT
BRANCH   4   7
ATOM      7  C   UNL     1       4.548   3.866  18.632  0.00  0.00    +0.000 A 
ATOM      8  C   UNL     1       4.475   2.834  19.553  0.00  0.00    +0.000 A 
ATOM      9  C   UNL     1       3.236   2.993  20.234  0.00  0.00    +0.000 A 
ATOM     10  S   UNL     1       2.316   2.210  21.474  0.00  0.00    +0.000 S 
ATOM     11  C   UNL     1       1.079   3.389  21.292  0.00  0.00    +0.000 A 
ATOM     12  C   UNL     1       1.347   4.349  20.339  0.00  0.00    +0.000 A 
ATOM     13  C   UNL     1       2.609   4.095  19.734  0.00  0.00    +0.000 A 
ATOM     14  N   UNL     1       3.416   4.644  18.758  0.00  0.00    +0.000 N 
ATOM     15  C   UNL     1       3.075   5.828  18.004  0.00  0.00    +0.000 C 
ENDBRANCH   4   7
BRANCH   1  16
ATOM     16  C   UNL     1       6.884   4.560  14.385  0.00  0.00    +0.000 C 
BRANCH  16  18
ATOM     17  C   UNL     1       6.192   3.365  12.273  0.00  0.00    +0.000 C 
ATOM     18  C   UNL     1       5.726   3.943  13.598  0.00  0.00    +0.000 C 
ENDBRANCH  16  18
ENDBRANCH   1  16
TORSDOF 3
ENDMDL
MODEL 2
REMARK VINA RESULT:      -6.6      1.066      1.188
REMARK  Name = 
REMARK  5 active torsions:
REMARK  status: ('A' for Active; 'I' for Inactive)
REMARK    1  A    between atoms: C_1  and  C_2
REMARK    2  A    between atoms: C_2  and  C_3
REMARK    3  A    between atoms: C_3  and  C_4
REMARK    4  A    between atoms: C_7  and  C_8
REMARK    5  A    between atoms: N_15  and  C_16
REMARK                            x       y       z     vdW  Elec       q    Type
REMARK                         _______ _______ _______ _____ _____    ______ ____
ROOT
ATOM      1  C   UNL     1       6.327   4.133  14.693  0.00  0.00    +0.000 A 
ATOM      2  C   UNL     1       7.275   4.415  15.649  0.00  0.00    +0.000 A 
ATOM      3  N   UNL     1       6.603   4.398  16.838  0.00  0.00    +0.000 N 
ATOM      4  C   UNL     1       5.292   4.088  16.580  0.00  0.00    +0.000 A 
ATOM      5  N   UNL     1       5.105   3.918  15.288  0.00  0.00    +0.000 NA
ATOM      6  H   UNL     1       6.988   4.580  17.752  0.00  0.00    +0.000 HD
ENDROOT
BRANCH   4   7
ATOM      7  C   UNL     1       4.287   3.959  17.593  0.00  0.00    +0.000 A 
ATOM      8  C   UNL     1       3.774   2.798  18.147  0.00  0.00    +0.000 A 
ATOM      9  C   UNL     1       2.780   3.205  19.079  0.00  0.00    +0.000 A 
ATOM     10  S   UNL     1       1.648   2.493  20.179  0.00  0.00    +0.000 S 
ATOM     11  C   UNL     1       1.101   4.060  20.622  0.00  0.00    +0.000 A 
ATOM     12  C   UNL     1       1.751   5.091  19.976  0.00  0.00    +0.000 A 
ATOM     13  C   UNL     1       2.724   4.567  19.080  0.00  0.00    +0.000 A 
ATOM     14  N   UNL     1       3.656   5.038  18.179  0.00  0.00    +0.000 N 
ATOM     15  C   UNL     1       3.882   6.439  17.911  0.00  0.00    +0.000 C 
ENDBRANCH   4   7
BRANCH   1  16
ATOM     16  C   UNL     1       6.479   4.048  13.215  0.00  0.00    +0.000 C 
BRANCH  16  18
ATOM     17  C   UNL     1       5.503   2.361  11.613  0.00  0.00    +0.000 C 
ATOM     18  C   UNL     1       5.209   3.527  12.541  0.00  0.00    +0.000 C 
ENDBRANCH  16  18
ENDBRANCH   1  16
TORSDOF 3
ENDMDL
MODEL 3
REMARK VINA RESULT:      -6.6      1.279      1.748
REMARK  Name = 
REMARK  5 active torsions:
REMARK  status: ('A' for Active; 'I' for Inactive)
REMARK    1  A    between atoms: C_1  and  C_2
REMARK    2  A    between atoms: C_2  and  C_3
REMARK    3  A    between atoms: C_3  and  C_4
REMARK    4  A    between atoms: C_7  and  C_8
REMARK    5  A    between atoms: N_15  and  C_16
REMARK                            x       y       z     vdW  Elec       q    Type
REMARK                         _______ _______ _______ _____ _____    ______ ____
ROOT
ATOM      1  C   UNL     1       6.341   4.190  15.126  0.00  0.00    +0.000 A 
ATOM      2  C   UNL     1       7.292   4.289  16.116  0.00  0.00    +0.000 A 
ATOM      3  N   UNL     1       6.591   4.288  17.289  0.00  0.00    +0.000 N 
ATOM      4  C   UNL     1       5.259   4.168  16.988  0.00  0.00    +0.000 A 
ATOM      5  N   UNL     1       5.086   4.101  15.684  0.00  0.00    +0.000 NA
ATOM      6  H   UNL     1       6.972   4.362  18.220  0.00  0.00    +0.000 HD
ENDROOT
BRANCH   4   7
ATOM      7  C   UNL     1       4.219   4.111  17.971  0.00  0.00    +0.000 A 
ATOM      8  C   UNL     1       3.648   5.159  18.675  0.00  0.00    +0.000 A 
ATOM      9  C   UNL     1       2.690   4.577  19.550  0.00  0.00    +0.000 A 
ATOM     10  S   UNL     1       1.558   5.071  20.764  0.00  0.00    +0.000 S 
ATOM     11  C   UNL     1       1.104   3.431  21.000  0.00  0.00    +0.000 A 
ATOM     12  C   UNL     1       1.770   2.536  20.189  0.00  0.00    +0.000 A 
ATOM     13  C   UNL     1       2.691   3.229  19.354  0.00  0.00    +0.000 A 
ATOM     14  N   UNL     1       3.619   2.936  18.376  0.00  0.00    +0.000 N 
ATOM     15  C   UNL     1       3.897   1.600  17.903  0.00  0.00    +0.000 C 
ENDBRANCH   4   7
BRANCH   1  16
ATOM     16  C   UNL     1       6.521   4.176  13.650  0.00  0.00    +0.000 C 
BRANCH  16  18
ATOM     17  C   UNL     1       5.595   2.728  11.802  0.00  0.00    +0.000 C 
ATOM     18  C   UNL     1       5.262   3.692  12.928  0.00  0.00    +0.000 C 
ENDBRANCH  16  18
ENDBRANCH   1  16
TORSDOF 3
ENDMDL
MODEL 4
REMARK VINA RESULT:      -6.5      2.738      3.876
REMARK  Name = 
REMARK  5 active torsions:
REMARK  status: ('A' for Active; 'I' for Inactive)
REMARK    1  A    between atoms: C_1  and  C_2
REMARK    2  A    between atoms: C_2  and  C_3
REMARK    3  A    between atoms: C_3  and  C_4
REMARK    4  A    between atoms: C_7  and  C_8
REMARK    5  A    between atoms: N_15  and  C_16
REMARK                            x       y       z     vdW  Elec       q    Type
REMARK                         _______ _______ _______ _____ _____    ______ ____
ROOT
ATOM      1  C   UNL     1       7.363   6.947  18.214  0.00  0.00    +0.000 A 
ATOM      2  C   UNL     1       7.976   5.976  18.974  0.00  0.00    +0.000 A 
ATOM      3  N   UNL     1       6.982   5.098  19.304  0.00  0.00    +0.000 N 
ATOM      4  C   UNL     1       5.818   5.538  18.728  0.00  0.00    +0.000 A 
ATOM      5  N   UNL     1       6.028   6.652  18.059  0.00  0.00    +0.000 NA
ATOM      6  H   UNL     1       7.073   4.269  19.871  0.00  0.00    +0.000 HD
ENDROOT
BRANCH   4   7
ATOM      7  C   UNL     1       4.563   4.856  18.840  0.00  0.00    +0.000 A 
ATOM      8  C   UNL     1       3.591   5.008  19.815  0.00  0.00    +0.000 A 
ATOM      9  C   UNL     1       2.559   4.083  19.497  0.00  0.00    +0.000 A 
ATOM     10  S   UNL     1       1.029   3.565  20.121  0.00  0.00    +0.000 S 
ATOM     11  C   UNL     1       0.890   2.439  18.831  0.00  0.00    +0.000 A 
ATOM     12  C   UNL     1       1.951   2.453  17.950  0.00  0.00    +0.000 A 
ATOM     13  C   UNL     1       2.912   3.418  18.361  0.00  0.00    +0.000 A 
ATOM     14  N   UNL     1       4.137   3.897  17.944  0.00  0.00    +0.000 N 
ATOM     15  C   UNL     1       4.829   3.425  16.768  0.00  0.00    +0.000 C 
ENDBRANCH   4   7
BRANCH   1  16
ATOM     16  C   UNL     1       7.950   8.171  17.605  0.00  0.00    +0.000 C 
BRANCH  16  18
ATOM     17  C   UNL     1       8.856  10.467  18.128  0.00  0.00    +0.000 C 
ATOM     18  C   UNL     1       8.625   9.059  18.651  0.00  0.00    +0.000 C 
ENDBRANCH  16  18
ENDBRANCH   1  16
TORSDOF 3
ENDMDL
MODEL 5
REMARK VINA RESULT:      -6.0      1.902      2.575
REMARK  Name = 
REMARK  5 active torsions:
REMARK  status: ('A' for Active; 'I' for Inactive)
REMARK    1  A    between atoms: C_1  and  C_2
REMARK    2  A    between atoms: C_2  and  C_3
REMARK    3  A    between atoms: C_3  and  C_4
REMARK    4  A    between atoms: C_7  and  C_8
REMARK    5  A    between atoms: N_15  and  C_16
REMARK                            x       y       z     vdW  Elec       q    Type
REMARK                         _______ _______ _______ _____ _____    ______ ____
ROOT
ATOM      1  C   UNL     1       6.122   4.156  14.184  0.00  0.00    +0.000 A 
ATOM      2  C   UNL     1       7.133   4.875  14.779  0.00  0.00    +0.000 A 
ATOM      3  N   UNL     1       6.590   5.371  15.931  0.00  0.00    +0.000 N 
ATOM      4  C   UNL     1       5.295   4.929  16.015  0.00  0.00    +0.000 A 
ATOM      5  N   UNL     1       4.994   4.187  14.970  0.00  0.00    +0.000 NA
ATOM      6  H   UNL     1       7.048   5.960  16.609  0.00  0.00    +0.000 HD
ENDROOT
BRANCH   4   7
ATOM      7  C   UNL     1       4.415   5.233  17.104  0.00  0.00    +0.000 A 
ATOM      8  C   UNL     1       4.014   6.479  17.557  0.00  0.00    +0.000 A 
ATOM      9  C   UNL     1       3.171   6.244  18.678  0.00  0.00    +0.000 A 
ATOM     10  S   UNL     1       2.265   7.147  19.845  0.00  0.00    +0.000 S 
ATOM     11  C   UNL     1       1.767   5.678  20.586  0.00  0.00    +0.000 A 
ATOM     12  C   UNL     1       2.254   4.542  19.975  0.00  0.00    +0.000 A 
ATOM     13  C   UNL     1       3.072   4.898  18.867  0.00  0.00    +0.000 A 
ATOM     14  N   UNL     1       3.824   4.270  17.895  0.00  0.00    +0.000 N 
ATOM     15  C   UNL     1       3.957   2.836  17.780  0.00  0.00    +0.000 C 
ENDBRANCH   4   7
BRANCH   1  16
ATOM     16  C   UNL     1       6.130   3.419  12.891  0.00  0.00    +0.000 C 
BRANCH  16  18
ATOM     17  C   UNL     1       4.171   2.986  11.360  0.00  0.00    +0.000 C 
ATOM     18  C   UNL     1       5.149   4.024  11.886  0.00  0.00    +0.000 C 
ENDBRANCH  16  18
ENDBRANCH   1  16
TORSDOF 3
ENDMDL
MODEL 6
REMARK VINA RESULT:      -6.0      2.697      6.532
REMARK  Name = 
REMARK  5 active torsions:
REMARK  status: ('A' for Active; 'I' for Inactive)
REMARK    1  A    between atoms: C_1  and  C_2
REMARK    2  A    between atoms: C_2  and  C_3
REMARK    3  A    between atoms: C_3  and  C_4
REMARK    4  A    between atoms: C_7  and  C_8
REMARK    5  A    between atoms: N_15  and  C_16
REMARK                            x       y       z     vdW  Elec       q    Type
REMARK                         _______ _______ _______ _____ _____    ______ ____
ROOT
ATOM      1  C   UNL     1       3.623   4.492  19.347  0.00  0.00    +0.000 A 
ATOM      2  C   UNL     1       4.624   3.635  19.743  0.00  0.00    +0.000 A 
ATOM      3  N   UNL     1       5.398   3.449  18.633  0.00  0.00    +0.000 N 
ATOM      4  C   UNL     1       4.871   4.202  17.616  0.00  0.00    +0.000 A 
ATOM      5  N   UNL     1       3.799   4.846  18.029  0.00  0.00    +0.000 NA
ATOM      6  H   UNL     1       6.216   2.864  18.558  0.00  0.00    +0.000 HD
ENDROOT
BRANCH   4   7
ATOM      7  C   UNL     1       5.432   4.274  16.300  0.00  0.00    +0.000 A 
ATOM      8  C   UNL     1       5.068   3.555  15.173  0.00  0.00    +0.000 A 
ATOM      9  C   UNL     1       5.948   3.966  14.135  0.00  0.00    +0.000 A 
ATOM     10  S   UNL     1       6.252   3.621  12.466  0.00  0.00    +0.000 S 
ATOM     11  C   UNL     1       7.540   4.759  12.471  0.00  0.00    +0.000 A 
ATOM     12  C   UNL     1       7.734   5.389  13.682  0.00  0.00    +0.000 A 
ATOM     13  C   UNL     1       6.795   4.908  14.637  0.00  0.00    +0.000 A 
ATOM     14  N   UNL     1       6.475   5.113  15.964  0.00  0.00    +0.000 N 
ATOM     15  C   UNL     1       7.164   6.045  16.824  0.00  0.00    +0.000 C 
ENDBRANCH   4   7
BRANCH   1  16
ATOM     16  C   UNL     1       2.475   5.021  20.131  0.00  0.00    +0.000 C 
BRANCH  16  18
ATOM     17  C   UNL     1       1.302   3.049  21.180  0.00  0.00    +0.000 C 
ATOM     18  C   UNL     1       1.266   4.086  20.070  0.00  0.00    +0.000 C 
ENDBRANCH  16  18
ENDBRANCH   1  16
TORSDOF 3
ENDMDL
MODEL 7
REMARK VINA RESULT:      -6.0      2.931      3.742
REMARK  Name = 
REMARK  5 active torsions:
REMARK  status: ('A' for Active; 'I' for Inactive)
REMARK    1  A    between atoms: C_1  and  C_2
REMARK    2  A    between atoms: C_2  and  C_3
REMARK    3  A    between atoms: C_3  and  C_4
REMARK    4  A    between atoms: C_7  and  C_8
REMARK    5  A    between atoms: N_15  and  C_16
REMARK                            x       y       z     vdW  Elec       q    Type
REMARK                         _______ _______ _______ _____ _____    ______ ____
ROOT
ATOM      1  C   UNL     1       7.486   7.007  18.221  0.00  0.00    +0.000 A 
ATOM      2  C   UNL     1       8.094   6.163  19.122  0.00  0.00    +0.000 A 
ATOM      3  N   UNL     1       7.156   5.213  19.413  0.00  0.00    +0.000 N 
ATOM      4  C   UNL     1       6.032   5.486  18.676  0.00  0.00    +0.000 A 
ATOM      5  N   UNL     1       6.213   6.565  17.944  0.00  0.00    +0.000 NA
ATOM      6  H   UNL     1       7.257   4.441  20.053  0.00  0.00    +0.000 HD
ENDROOT
BRANCH   4   7
ATOM      7  C   UNL     1       4.843   4.688  18.706  0.00  0.00    +0.000 A 
ATOM      8  C   UNL     1       4.739   3.312  18.835  0.00  0.00    +0.000 A 
ATOM      9  C   UNL     1       3.351   3.010  18.773  0.00  0.00    +0.000 A 
ATOM     10  S   UNL     1       2.311   1.626  18.822  0.00  0.00    +0.000 S 
ATOM     11  C   UNL     1       0.946   2.653  18.631  0.00  0.00    +0.000 A 
ATOM     12  C   UNL     1       1.253   3.994  18.543  0.00  0.00    +0.000 A 
ATOM     13  C   UNL     1       2.662   4.177  18.626  0.00  0.00    +0.000 A 
ATOM     14  N   UNL     1       3.572   5.213  18.597  0.00  0.00    +0.000 N 
ATOM     15  C   UNL     1       3.206   6.603  18.452  0.00  0.00    +0.000 C 
ENDBRANCH   4   7
BRANCH   1  16
ATOM     16  C   UNL     1       8.022   8.238  17.579  0.00  0.00    +0.000 C 
BRANCH  16  18
ATOM     17  C   UNL     1       8.931  10.551  18.018  0.00  0.00    +0.000 C 
ATOM     18  C   UNL     1       8.683   9.168  18.598  0.00  0.00    +0.000 C 
ENDBRANCH  16  18
ENDBRANCH   1  16
TORSDOF 3
ENDMDL
MODEL 8
REMARK VINA RESULT:      -5.9      4.006      5.672
REMARK  Name = 
REMARK  5 active torsions:
REMARK  status: ('A' for Active; 'I' for Inactive)
REMARK    1  A    between atoms: C_1  and  C_2
REMARK    2  A    between atoms: C_2  and  C_3
REMARK    3  A    between atoms: C_3  and  C_4
REMARK    4  A    between atoms: C_7  and  C_8
REMARK    5  A    between atoms: N_15  and  C_16
REMARK                            x       y       z     vdW  Elec       q    Type
REMARK                         _______ _______ _______ _____ _____    ______ ____
ROOT
ATOM      1  C   UNL     1       3.129   4.571  18.306  0.00  0.00    +0.000 A 
ATOM      2  C   UNL     1       4.215   4.847  19.105  0.00  0.00    +0.000 A 
ATOM      3  N   UNL     1       3.889   5.997  19.768  0.00  0.00    +0.000 N 
ATOM      4  C   UNL     1       2.628   6.369  19.379  0.00  0.00    +0.000 A 
ATOM      5  N   UNL     1       2.148   5.516  18.498  0.00  0.00    +0.000 NA
ATOM      6  H   UNL     1       4.464   6.496  20.430  0.00  0.00    +0.000 HD
ENDROOT
BRANCH   4   7
ATOM      7  C   UNL     1       1.943   7.522  19.884  0.00  0.00    +0.000 A 
ATOM      8  C   UNL     1       1.401   7.712  21.144  0.00  0.00    +0.000 A 
ATOM      9  C   UNL     1       0.804   9.002  21.132  0.00  0.00    +0.000 A 
ATOM     10  S   UNL     1      -0.084  10.042  22.194  0.00  0.00    +0.000 S 
ATOM     11  C   UNL     1      -0.185  11.220  20.947  0.00  0.00    +0.000 A 
ATOM     12  C   UNL     1       0.435  10.854  19.771  0.00  0.00    +0.000 A 
ATOM     13  C   UNL     1       1.002   9.556  19.903  0.00  0.00    +0.000 A 
ATOM     14  N   UNL     1       1.713   8.657  19.134  0.00  0.00    +0.000 N 
ATOM     15  C   UNL     1       2.109   8.902  17.767  0.00  0.00    +0.000 C 
ENDBRANCH   4   7
BRANCH   1  16
ATOM     16  C   UNL     1       2.934   3.455  17.341  0.00  0.00    +0.000 C 
BRANCH  16  18
ATOM     17  C   UNL     1       1.105   2.324  18.661  0.00  0.00    +0.000 C 
ATOM     18  C   UNL     1       2.484   2.172  18.040  0.00  0.00    +0.000 C 
ENDBRANCH  16  18
ENDBRANCH   1  16
TORSDOF 3
ENDMDL
MODEL 9
REMARK VINA RESULT:      -5.8      1.232      1.428
REMARK  Name = 
REMARK  5 active torsions:
REMARK  status: ('A' for Active; 'I' for Inactive)
REMARK    1  A    between atoms: C_1  and  C_2
REMARK    2  A    between atoms: C_2  and  C_3
REMARK    3  A    between atoms: C_3  and  C_4
REMARK    4  A    between atoms: C_7  and  C_8
REMARK    5  A    between atoms: N_15  and  C_16
REMARK                            x       y       z     vdW  Elec       q    Type
REMARK                         _______ _______ _______ _____ _____    ______ ____
ROOT
ATOM      1  C   UNL     1       5.703   5.221  15.347  0.00  0.00    +0.000 A 
ATOM      2  C   UNL     1       5.329   6.482  15.755  0.00  0.00    +0.000 A 
ATOM      3  N   UNL     1       4.566   6.287  16.871  0.00  0.00    +0.000 N 
ATOM      4  C   UNL     1       4.516   4.939  17.122  0.00  0.00    +0.000 A 
ATOM      5  N   UNL     1       5.202   4.277  16.214  0.00  0.00    +0.000 NA
ATOM      6  H   UNL     1       4.113   6.997  17.425  0.00  0.00    +0.000 HD
ENDROOT
BRANCH   4   7
ATOM      7  C   UNL     1       3.819   4.357  18.230  0.00  0.00    +0.000 A 
ATOM      8  C   UNL     1       4.349   3.661  19.304  0.00  0.00    +0.000 A 
ATOM      9  C   UNL     1       3.244   3.264  20.106  0.00  0.00    +0.000 A 
ATOM     10  S   UNL     1       2.937   2.381  21.564  0.00  0.00    +0.000 S 
ATOM     11  C   UNL     1       1.251   2.643  21.360  0.00  0.00    +0.000 A 
ATOM     12  C   UNL     1       0.923   3.378  20.241  0.00  0.00    +0.000 A 
ATOM     13  C   UNL     1       2.102   3.726  19.524  0.00  0.00    +0.000 A 
ATOM     14  N   UNL     1       2.448   4.410  18.377  0.00  0.00    +0.000 N 
ATOM     15  C   UNL     1       1.494   5.042  17.497  0.00  0.00    +0.000 C 
ENDBRANCH   4   7
BRANCH   1  16
ATOM     16  C   UNL     1       6.516   4.819  14.168  0.00  0.00    +0.000 C 
BRANCH  16  18
ATOM     17  C   UNL     1       5.316   3.607  12.308  0.00  0.00    +0.000 C 
ATOM     18  C   UNL     1       6.081   3.461  13.614  0.00  0.00    +0.000 C 
ENDBRANCH  16  18
ENDBRANCH   1  16
TORSDOF 3
ENDMDL
