MODEL 1
REMARK VINA RESULT:      -8.1      0.000      0.000
REMARK  Name = 
REMARK  6 active torsions:
REMARK  status: ('A' for Active; 'I' for Inactive)
REMARK    1  A    between atoms: C_2  and  C_13
REMARK    2  A    between atoms: N_3  and  C_4
REMARK    3  A    between atoms: C_4  and  C_5
REMARK    4  A    between atoms: C_5  and  C_6
REMARK    5  A    between atoms: C_9  and  O_10
REMARK    6  A    between atoms: C_17  and  O_18
REMARK                            x       y       z     vdW  Elec       q    Type
REMARK                         _______ _______ _______ _____ _____    ______ ____
ROOT
ATOM      1  O   UNL     1       7.510   5.928  16.045  0.00  0.00    +0.000 OA
ATOM      2  C   UNL     1       6.948   5.783  17.122  0.00  0.00    +0.000 C 
ATOM      3  N   UNL     1       7.199   6.537  18.237  0.00  0.00    +0.000 N 
ATOM      4  H   UNL     1       6.610   6.387  19.040  0.00  0.00    +0.000 HD
ENDROOT
BRANCH   2   5
ATOM      5  C   UNL     1       5.940   4.785  17.369  0.00  0.00    +0.000 A 
ATOM      6  C   UNL     1       4.911   4.342  16.552  0.00  0.00    +0.000 A 
ATOM      7  C   UNL     1       3.988   3.661  17.375  0.00  0.00    +0.000 A 
ATOM      8  C   UNL     1       2.634   3.324  17.249  0.00  0.00    +0.000 A 
ATOM      9  C   UNL     1       2.035   2.664  18.318  0.00  0.00    +0.000 A 
ATOM     10  C   UNL     1       2.773   2.154  19.380  0.00  0.00    +0.000 A 
ATOM     11  C   UNL     1       4.121   2.492  19.524  0.00  0.00    +0.000 A 
ATOM     12  C   UNL     1       4.654   3.354  18.561  0.00  0.00    +0.000 A 
ATOM     13  N   UNL     1       5.779   4.145  18.581  0.00  0.00    +0.000 N 
ATOM     14  H   UNL     1       6.328   4.351  19.406  0.00  0.00    +0.000 HD
BRANCH   9  15
ATOM     15  O   UNL     1       0.674   2.598  18.386  0.00  0.00    +0.000 OA
ATOM     16  H   UNL     1       0.369   3.522  18.336  0.00  0.00    +0.000 HD
ENDBRANCH   9  15
ENDBRANCH   2   5
BRANCH   3  17
ATOM     17  C   UNL     1       8.283   7.492  18.356  0.00  0.00    +0.000 C 
BRANCH  17  18
ATOM     18  C   UNL     1       7.829   8.826  17.759  0.00  0.00    +0.000 C 
BRANCH  18  19
ATOM     19  C   UNL     1       8.565  10.034  18.264  0.00  0.00    +0.000 A 
ATOM     20  C   UNL     1       8.464  11.266  17.603  0.00  0.00    +0.000 A 
ATOM     21  C   UNL     1       9.092  12.406  18.127  0.00  0.00    +0.000 A 
ATOM     22  C   UNL     1       9.809  12.305  19.310  0.00  0.00    +0.000 A 
ATOM     23  C   UNL     1       9.910  11.096  19.988  0.00  0.00    +0.000 A 
ATOM     24  C   UNL     1       9.293   9.956  19.463  0.00  0.00    +0.000 A 
BRANCH  22  25
ATOM     25  O   UNL     1      10.420  13.396  19.855  0.00  0.00    +0.000 OA
ATOM     26  H   UNL     1      11.205  13.605  19.330  0.00  0.00    +0.000 HD
ENDBRANCH  22  25
ENDBRANCH  18  19
ENDBRANCH  17  18
ENDBRANCH   3  17
TORSDOF 6
ENDMDL
MODEL 2
REMARK VINA RESULT:      -7.9      1.040      1.062
REMARK  Name = 
REMARK  6 active torsions:
REMARK  status: ('A' for Active; 'I' for Inactive)
REMARK    1  A    between atoms: C_2  and  C_13
REMARK    2  A    between atoms: N_3  and  C_4
REMARK    3  A    between atoms: C_4  and  C_5
REMARK    4  A    between atoms: C_5  and  C_6
REMARK    5  A    between atoms: C_9  and  O_10
REMARK    6  A    between atoms: C_17  and  O_18
REMARK                            x       y       z     vdW  Elec       q    Type
REMARK                         _______ _______ _______ _____ _____    ______ ____
ROOT
ATOM      1  O   UNL     1       7.379   5.981  16.064  0.00  0.00    +0.000 OA
ATOM      2  C   UNL     1       6.688   6.066  17.069  0.00  0.00    +0.000 C 
ATOM      3  N   UNL     1       6.975   6.867  18.143  0.00  0.00    +0.000 N 
ATOM      4  H   UNL     1       6.285   6.924  18.875  0.00  0.00    +0.000 HD
ENDROOT
BRANCH   2   5
ATOM      5  C   UNL     1       5.471   5.324  17.267  0.00  0.00    +0.000 A 
ATOM      6  C   UNL     1       4.156   5.764  17.280  0.00  0.00    +0.000 A 
ATOM      7  C   UNL     1       3.383   4.751  17.890  0.00  0.00    +0.000 A 
ATOM      8  C   UNL     1       2.129   4.726  18.513  0.00  0.00    +0.000 A 
ATOM      9  C   UNL     1       1.702   3.512  19.046  0.00  0.00    +0.000 A 
ATOM     10  C   UNL     1       2.366   2.318  18.791  0.00  0.00    +0.000 A 
ATOM     11  C   UNL     1       3.622   2.330  18.180  0.00  0.00    +0.000 A 
ATOM     12  C   UNL     1       4.148   3.586  17.861  0.00  0.00    +0.000 A 
ATOM     13  N   UNL     1       5.438   3.984  17.596  0.00  0.00    +0.000 N 
ATOM     14  H   UNL     1       6.263   3.423  17.764  0.00  0.00    +0.000 HD
BRANCH   9  15
ATOM     15  O   UNL     1       0.660   3.497  19.926  0.00  0.00    +0.000 OA
ATOM     16  H   UNL     1       0.822   4.247  20.529  0.00  0.00    +0.000 HD
ENDBRANCH   9  15
ENDBRANCH   2   5
BRANCH   3  17
ATOM     17  C   UNL     1       8.219   7.590  18.320  0.00  0.00    +0.000 C 
BRANCH  17  18
ATOM     18  C   UNL     1       8.017   9.034  17.855  0.00  0.00    +0.000 C 
BRANCH  18  19
ATOM     19  C   UNL     1       8.951  10.038  18.468  0.00  0.00    +0.000 A 
ATOM     20  C   UNL     1       9.624  10.975  17.672  0.00  0.00    +0.000 A 
ATOM     21  C   UNL     1      10.433  11.957  18.261  0.00  0.00    +0.000 A 
ATOM     22  C   UNL     1      10.556  11.998  19.642  0.00  0.00    +0.000 A 
ATOM     23  C   UNL     1       9.887  11.088  20.451  0.00  0.00    +0.000 A 
ATOM     24  C   UNL     1       9.087  10.101  19.865  0.00  0.00    +0.000 A 
BRANCH  22  25
ATOM     25  O   UNL     1      11.323  12.948  20.250  0.00  0.00    +0.000 OA
ATOM     26  H   UNL     1      11.458  13.680  19.631  0.00  0.00    +0.000 HD
ENDBRANCH  22  25
ENDBRANCH  18  19
ENDBRANCH  17  18
ENDBRANCH   3  17
TORSDOF 6
ENDMDL
MODEL 3
REMARK VINA RESULT:      -7.8      3.079      4.179
REMARK  Name = 
REMARK  6 active torsions:
REMARK  status: ('A' for Active; 'I' for Inactive)
REMARK    1  A    between atoms: C_2  and  C_13
REMARK    2  A    between atoms: N_3  and  C_4
REMARK    3  A    between atoms: C_4  and  C_5
REMARK    4  A    between atoms: C_5  and  C_6
REMARK    5  A    between atoms: C_9  and  O_10
REMARK    6  A    between atoms: C_17  and  O_18
REMARK                            x       y       z     vdW  Elec       q    Type
REMARK                         _______ _______ _______ _____ _____    ______ ____
ROOT
ATOM      1  O   UNL     1       6.693   5.543  18.248  0.00  0.00    +0.000 OA
ATOM      2  C   UNL     1       7.089   6.092  17.229  0.00  0.00    +0.000 C 
ATOM      3  N   UNL     1       7.874   7.214  17.206  0.00  0.00    +0.000 N 
ATOM      4  H   UNL     1       8.215   7.522  16.310  0.00  0.00    +0.000 HD
ENDROOT
BRANCH   2   5
ATOM      5  C   UNL     1       6.774   5.634  15.902  0.00  0.00    +0.000 A 
ATOM      6  C   UNL     1       5.605   5.074  15.411  0.00  0.00    +0.000 A 
ATOM      7  C   UNL     1       5.924   4.448  14.185  0.00  0.00    +0.000 A 
ATOM      8  C   UNL     1       5.319   3.444  13.419  0.00  0.00    +0.000 A 
ATOM      9  C   UNL     1       5.968   3.050  12.251  0.00  0.00    +0.000 A 
ATOM     10  C   UNL     1       7.047   3.756  11.731  0.00  0.00    +0.000 A 
ATOM     11  C   UNL     1       7.666   4.751  12.490  0.00  0.00    +0.000 A 
ATOM     12  C   UNL     1       7.144   4.976  13.767  0.00  0.00    +0.000 A 
ATOM     13  N   UNL     1       7.691   5.590  14.870  0.00  0.00    +0.000 N 
ATOM     14  H   UNL     1       8.667   5.838  14.971  0.00  0.00    +0.000 HD
BRANCH   9  15
ATOM     15  O   UNL     1       5.606   1.883  11.645  0.00  0.00    +0.000 OA
ATOM     16  H   UNL     1       6.343   1.267  11.813  0.00  0.00    +0.000 HD
ENDBRANCH   9  15
ENDBRANCH   2   5
BRANCH   3  17
ATOM     17  C   UNL     1       8.202   8.012  18.371  0.00  0.00    +0.000 C 
BRANCH  17  18
ATOM     18  C   UNL     1       8.100   9.492  17.997  0.00  0.00    +0.000 C 
BRANCH  18  19
ATOM     19  C   UNL     1       9.201  10.363  18.533  0.00  0.00    +0.000 A 
ATOM     20  C   UNL     1      10.028  11.091  17.668  0.00  0.00    +0.000 A 
ATOM     21  C   UNL     1      11.001  11.961  18.180  0.00  0.00    +0.000 A 
ATOM     22  C   UNL     1      11.133  12.101  19.555  0.00  0.00    +0.000 A 
ATOM     23  C   UNL     1      10.313  11.398  20.430  0.00  0.00    +0.000 A 
ATOM     24  C   UNL     1       9.349  10.523  19.921  0.00  0.00    +0.000 A 
BRANCH  22  25
ATOM     25  O   UNL     1      12.059  12.948  20.088  0.00  0.00    +0.000 OA
ATOM     26  H   UNL     1      12.878  12.873  19.578  0.00  0.00    +0.000 HD
ENDBRANCH  22  25
ENDBRANCH  18  19
ENDBRANCH  17  18
ENDBRANCH   3  17
TORSDOF 6
ENDMDL
MODEL 4
REMARK VINA RESULT:      -7.8      0.942      1.427
REMARK  Name = 
REMARK  6 active torsions:
REMARK  status: ('A' for Active; 'I' for Inactive)
REMARK    1  A    between atoms: C_2  and  C_13
REMARK    2  A    between atoms: N_3  and  C_4
REMARK    3  A    between atoms: C_4  and  C_5
REMARK    4  A    between atoms: C_5  and  C_6
REMARK    5  A    between atoms: C_9  and  O_10
REMARK    6  A    between atoms: C_17  and  O_18
REMARK                            x       y       z     vdW  Elec       q    Type
REMARK                         _______ _______ _______ _____ _____    ______ ____
ROOT
ATOM      1  O   UNL     1       7.521   5.677  16.127  0.00  0.00    +0.000 OA
ATOM      2  C   UNL     1       6.710   5.957  16.998  0.00  0.00    +0.000 C 
ATOM      3  N   UNL     1       6.873   6.958  17.919  0.00  0.00    +0.000 N 
ATOM      4  H   UNL     1       6.097   7.155  18.529  0.00  0.00    +0.000 HD
ENDROOT
BRANCH   2   5
ATOM      5  C   UNL     1       5.464   5.261  17.182  0.00  0.00    +0.000 A 
ATOM      6  C   UNL     1       4.172   5.759  17.259  0.00  0.00    +0.000 A 
ATOM      7  C   UNL     1       3.367   4.746  17.825  0.00  0.00    +0.000 A 
ATOM      8  C   UNL     1       2.129   4.739  18.479  0.00  0.00    +0.000 A 
ATOM      9  C   UNL     1       1.657   3.515  18.945  0.00  0.00    +0.000 A 
ATOM     10  C   UNL     1       2.256   2.310  18.596  0.00  0.00    +0.000 A 
ATOM     11  C   UNL     1       3.496   2.303  17.953  0.00  0.00    +0.000 A 
ATOM     12  C   UNL     1       4.073   3.551  17.700  0.00  0.00    +0.000 A 
ATOM     13  N   UNL     1       5.374   3.905  17.426  0.00  0.00    +0.000 N 
ATOM     14  H   UNL     1       6.175   3.297  17.534  0.00  0.00    +0.000 HD
BRANCH   9  15
ATOM     15  O   UNL     1       0.638   3.491  19.851  0.00  0.00    +0.000 OA
ATOM     16  H   UNL     1       0.324   2.567  19.862  0.00  0.00    +0.000 HD
ENDBRANCH   9  15
ENDBRANCH   2   5
BRANCH   3  17
ATOM     17  C   UNL     1       8.097   7.711  18.106  0.00  0.00    +0.000 C 
BRANCH  17  18
ATOM     18  C   UNL     1       7.886   9.131  17.579  0.00  0.00    +0.000 C 
BRANCH  18  19
ATOM     19  C   UNL     1       8.618  10.206  18.329  0.00  0.00    +0.000 A 
ATOM     20  C   UNL     1       9.214   9.940  19.570  0.00  0.00    +0.000 A 
ATOM     21  C   UNL     1       9.961  10.928  20.226  0.00  0.00    +0.000 A 
ATOM     22  C   UNL     1      10.114  12.173  19.631  0.00  0.00    +0.000 A 
ATOM     23  C   UNL     1       9.543  12.453  18.396  0.00  0.00    +0.000 A 
ATOM     24  C   UNL     1       8.789  11.472  17.745  0.00  0.00    +0.000 A 
BRANCH  22  25
ATOM     25  O   UNL     1      10.845  13.153  20.234  0.00  0.00    +0.000 OA
ATOM     26  H   UNL     1      10.826  13.943  19.675  0.00  0.00    +0.000 HD
ENDBRANCH  22  25
ENDBRANCH  18  19
ENDBRANCH  17  18
ENDBRANCH   3  17
TORSDOF 6
ENDMDL
MODEL 5
REMARK VINA RESULT:      -7.7      1.459      9.222
REMARK  Name = 
REMARK  6 active torsions:
REMARK  status: ('A' for Active; 'I' for Inactive)
REMARK    1  A    between atoms: C_2  and  C_13
REMARK    2  A    between atoms: N_3  and  C_4
REMARK    3  A    between atoms: C_4  and  C_5
REMARK    4  A    between atoms: C_5  and  C_6
REMARK    5  A    between atoms: C_9  and  O_10
REMARK    6  A    between atoms: C_17  and  O_18
REMARK                            x       y       z     vdW  Elec       q    Type
REMARK                         _______ _______ _______ _____ _____    ______ ____
ROOT
ATOM      1  O   UNL     1       7.046   7.700  16.743  0.00  0.00    +0.000 OA
ATOM      2  C   UNL     1       7.740   7.820  17.743  0.00  0.00    +0.000 C 
ATOM      3  N   UNL     1       8.078   6.792  18.583  0.00  0.00    +0.000 N 
ATOM      4  H   UNL     1       8.730   6.994  19.322  0.00  0.00    +0.000 HD
ENDROOT
BRANCH   2   5
ATOM      5  C   UNL     1       8.297   9.073  18.183  0.00  0.00    +0.000 A 
ATOM      6  C   UNL     1       8.367  10.291  17.525  0.00  0.00    +0.000 A 
ATOM      7  C   UNL     1       9.330  11.075  18.200  0.00  0.00    +0.000 A 
ATOM      8  C   UNL     1      10.100  12.189  17.845  0.00  0.00    +0.000 A 
ATOM      9  C   UNL     1      10.997  12.677  18.791  0.00  0.00    +0.000 A 
ATOM     10  C   UNL     1      10.991  12.239  20.110  0.00  0.00    +0.000 A 
ATOM     11  C   UNL     1      10.236  11.122  20.475  0.00  0.00    +0.000 A 
ATOM     12  C   UNL     1       9.517  10.495  19.453  0.00  0.00    +0.000 A 
ATOM     13  N   UNL     1       8.982   9.230  19.371  0.00  0.00    +0.000 N 
ATOM     14  H   UNL     1       9.182   8.473  20.011  0.00  0.00    +0.000 HD
BRANCH   9  15
ATOM     15  O   UNL     1      11.981  13.537  18.401  0.00  0.00    +0.000 OA
ATOM     16  H   UNL     1      11.775  13.759  17.473  0.00  0.00    +0.000 HD
ENDBRANCH   9  15
ENDBRANCH   2   5
BRANCH   3  17
ATOM     17  C   UNL     1       7.522   5.455  18.510  0.00  0.00    +0.000 C 
BRANCH  17  18
ATOM     18  C   UNL     1       6.262   5.400  19.376  0.00  0.00    +0.000 C 
BRANCH  18  19
ATOM     19  C   UNL     1       5.181   4.487  18.873  0.00  0.00    +0.000 A 
ATOM     20  C   UNL     1       4.694   4.602  17.563  0.00  0.00    +0.000 A 
ATOM     21  C   UNL     1       3.740   3.695  17.079  0.00  0.00    +0.000 A 
ATOM     22  C   UNL     1       3.289   2.676  17.905  0.00  0.00    +0.000 A 
ATOM     23  C   UNL     1       3.769   2.536  19.201  0.00  0.00    +0.000 A 
ATOM     24  C   UNL     1       4.712   3.445  19.690  0.00  0.00    +0.000 A 
BRANCH  22  25
ATOM     25  O   UNL     1       2.372   1.768  17.462  0.00  0.00    +0.000 OA
ATOM     26  H   UNL     1       1.519   2.213  17.363  0.00  0.00    +0.000 HD
ENDBRANCH  22  25
ENDBRANCH  18  19
ENDBRANCH  17  18
ENDBRANCH   3  17
TORSDOF 6
ENDMDL
MODEL 6
REMARK VINA RESULT:      -7.7      1.594      9.047
REMARK  Name = 
REMARK  6 active torsions:
REMARK  status: ('A' for Active; 'I' for Inactive)
REMARK    1  A    between atoms: C_2  and  C_13
REMARK    2  A    between atoms: N_3  and  C_4
REMARK    3  A    between atoms: C_4  and  C_5
REMARK    4  A    between atoms: C_5  and  C_6
REMARK    5  A    between atoms: C_9  and  O_10
REMARK    6  A    between atoms: C_17  and  O_18
REMARK                            x       y       z     vdW  Elec       q    Type
REMARK                         _______ _______ _______ _____ _____    ______ ____
ROOT
ATOM      1  O   UNL     1       7.124   7.702  16.708  0.00  0.00    +0.000 OA
ATOM      2  C   UNL     1       7.776   7.840  17.733  0.00  0.00    +0.000 C 
ATOM      3  N   UNL     1       8.086   6.826  18.599  0.00  0.00    +0.000 N 
ATOM      4  H   UNL     1       8.706   7.042  19.363  0.00  0.00    +0.000 HD
ENDROOT
BRANCH   2   5
ATOM      5  C   UNL     1       8.305   9.102  18.179  0.00  0.00    +0.000 A 
ATOM      6  C   UNL     1       8.285  10.342  17.557  0.00  0.00    +0.000 A 
ATOM      7  C   UNL     1       9.253  11.146  18.199  0.00  0.00    +0.000 A 
ATOM      8  C   UNL     1       9.954  12.303  17.835  0.00  0.00    +0.000 A 
ATOM      9  C   UNL     1      10.884  12.801  18.743  0.00  0.00    +0.000 A 
ATOM     10  C   UNL     1      10.975  12.325  20.045  0.00  0.00    +0.000 A 
ATOM     11  C   UNL     1      10.290  11.167  20.418  0.00  0.00    +0.000 A 
ATOM     12  C   UNL     1       9.538  10.539  19.421  0.00  0.00    +0.000 A 
ATOM     13  N   UNL     1       9.052   9.255  19.330  0.00  0.00    +0.000 N 
ATOM     14  H   UNL     1       9.321   8.489  19.934  0.00  0.00    +0.000 HD
BRANCH   9  15
ATOM     15  O   UNL     1      11.807  13.714  18.323  0.00  0.00    +0.000 OA
ATOM     16  H   UNL     1      12.123  13.383  17.462  0.00  0.00    +0.000 HD
ENDBRANCH   9  15
ENDBRANCH   2   5
BRANCH   3  17
ATOM     17  C   UNL     1       7.543   5.484  18.521  0.00  0.00    +0.000 C 
BRANCH  17  18
ATOM     18  C   UNL     1       6.392   5.362  19.522  0.00  0.00    +0.000 C 
BRANCH  18  19
ATOM     19  C   UNL     1       5.087   4.900  18.939  0.00  0.00    +0.000 A 
ATOM     20  C   UNL     1       3.869   5.229  19.551  0.00  0.00    +0.000 A 
ATOM     21  C   UNL     1       2.654   4.859  18.957  0.00  0.00    +0.000 A 
ATOM     22  C   UNL     1       2.666   4.171  17.753  0.00  0.00    +0.000 A 
ATOM     23  C   UNL     1       3.862   3.847  17.123  0.00  0.00    +0.000 A 
ATOM     24  C   UNL     1       5.075   4.205  17.718  0.00  0.00    +0.000 A 
BRANCH  22  25
ATOM     25  O   UNL     1       1.503   3.807  17.140  0.00  0.00    +0.000 OA
ATOM     26  H   UNL     1       1.052   4.606  16.835  0.00  0.00    +0.000 HD
ENDBRANCH  22  25
ENDBRANCH  18  19
ENDBRANCH  17  18
ENDBRANCH   3  17
TORSDOF 6
ENDMDL
MODEL 7
REMARK VINA RESULT:      -7.7      2.416      8.638
REMARK  Name = 
REMARK  6 active torsions:
REMARK  status: ('A' for Active; 'I' for Inactive)
REMARK    1  A    between atoms: C_2  and  C_13
REMARK    2  A    between atoms: N_3  and  C_4
REMARK    3  A    between atoms: C_4  and  C_5
REMARK    4  A    between atoms: C_5  and  C_6
REMARK    5  A    between atoms: C_9  and  O_10
REMARK    6  A    between atoms: C_17  and  O_18
REMARK                            x       y       z     vdW  Elec       q    Type
REMARK                         _______ _______ _______ _____ _____    ______ ____
ROOT
ATOM      1  O   UNL     1       8.243   6.730  18.923  0.00  0.00    +0.000 OA
ATOM      2  C   UNL     1       7.977   7.690  18.213  0.00  0.00    +0.000 C 
ATOM      3  N   UNL     1       7.194   7.634  17.091  0.00  0.00    +0.000 N 
ATOM      4  H   UNL     1       6.970   8.505  16.639  0.00  0.00    +0.000 HD
ENDROOT
BRANCH   2   5
ATOM      5  C   UNL     1       8.462   9.023  18.459  0.00  0.00    +0.000 A 
ATOM      6  C   UNL     1       8.460  10.134  17.630  0.00  0.00    +0.000 A 
ATOM      7  C   UNL     1       9.378  11.061  18.171  0.00  0.00    +0.000 A 
ATOM      8  C   UNL     1      10.082  12.153  17.648  0.00  0.00    +0.000 A 
ATOM      9  C   UNL     1      10.953  12.824  18.502  0.00  0.00    +0.000 A 
ATOM     10  C   UNL     1      10.976  12.584  19.871  0.00  0.00    +0.000 A 
ATOM     11  C   UNL     1      10.288  11.492  20.404  0.00  0.00    +0.000 A 
ATOM     12  C   UNL     1       9.603  10.682  19.493  0.00  0.00    +0.000 A 
ATOM     13  N   UNL     1       9.141   9.391  19.603  0.00  0.00    +0.000 N 
ATOM     14  H   UNL     1       9.387   8.749  20.345  0.00  0.00    +0.000 HD
BRANCH   9  15
ATOM     15  O   UNL     1      11.884  13.672  17.978  0.00  0.00    +0.000 OA
ATOM     16  H   UNL     1      12.713  13.158  17.950  0.00  0.00    +0.000 HD
ENDBRANCH   9  15
ENDBRANCH   2   5
BRANCH   3  17
ATOM     17  C   UNL     1       6.715   6.408  16.484  0.00  0.00    +0.000 C 
BRANCH  17  18
ATOM     18  C   UNL     1       5.211   6.540  16.235  0.00  0.00    +0.000 C 
BRANCH  18  19
ATOM     19  C   UNL     1       4.356   6.534  17.471  0.00  0.00    +0.000 A 
ATOM     20  C   UNL     1       3.327   7.470  17.639  0.00  0.00    +0.000 A 
ATOM     21  C   UNL     1       2.486   7.407  18.759  0.00  0.00    +0.000 A 
ATOM     22  C   UNL     1       2.676   6.403  19.697  0.00  0.00    +0.000 A 
ATOM     23  C   UNL     1       3.681   5.457  19.542  0.00  0.00    +0.000 A 
ATOM     24  C   UNL     1       4.528   5.523  18.432  0.00  0.00    +0.000 A 
BRANCH  22  25
ATOM     25  O   UNL     1       1.867   6.303  20.791  0.00  0.00    +0.000 OA
ATOM     26  H   UNL     1       1.746   5.367  21.002  0.00  0.00    +0.000 HD
ENDBRANCH  22  25
ENDBRANCH  18  19
ENDBRANCH  17  18
ENDBRANCH   3  17
TORSDOF 6
ENDMDL
MODEL 8
REMARK VINA RESULT:      -7.6      1.305      1.737
REMARK  Name = 
REMARK  6 active torsions:
REMARK  status: ('A' for Active; 'I' for Inactive)
REMARK    1  A    between atoms: C_2  and  C_13
REMARK    2  A    between atoms: N_3  and  C_4
REMARK    3  A    between atoms: C_4  and  C_5
REMARK    4  A    between atoms: C_5  and  C_6
REMARK    5  A    between atoms: C_9  and  O_10
REMARK    6  A    between atoms: C_17  and  O_18
REMARK                            x       y       z     vdW  Elec       q    Type
REMARK                         _______ _______ _______ _____ _____    ______ ____
ROOT
ATOM      1  O   UNL     1       7.536   6.296  16.077  0.00  0.00    +0.000 OA
ATOM      2  C   UNL     1       6.885   6.682  17.037  0.00  0.00    +0.000 C 
ATOM      3  N   UNL     1       7.125   7.844  17.722  0.00  0.00    +0.000 N 
ATOM      4  H   UNL     1       6.466   8.104  18.438  0.00  0.00    +0.000 HD
ENDROOT
BRANCH   2   5
ATOM      5  C   UNL     1       5.772   5.957  17.591  0.00  0.00    +0.000 A 
ATOM      6  C   UNL     1       5.761   4.814  18.376  0.00  0.00    +0.000 A 
ATOM      7  C   UNL     1       4.451   4.288  18.329  0.00  0.00    +0.000 A 
ATOM      8  C   UNL     1       3.899   3.025  18.579  0.00  0.00    +0.000 A 
ATOM      9  C   UNL     1       2.529   2.874  18.383  0.00  0.00    +0.000 A 
ATOM     10  C   UNL     1       1.689   3.959  18.166  0.00  0.00    +0.000 A 
ATOM     11  C   UNL     1       2.226   5.221  17.904  0.00  0.00    +0.000 A 
ATOM     12  C   UNL     1       3.621   5.310  17.872  0.00  0.00    +0.000 A 
ATOM     13  N   UNL     1       4.452   6.258  17.320  0.00  0.00    +0.000 N 
ATOM     14  H   UNL     1       4.159   6.985  16.682  0.00  0.00    +0.000 HD
BRANCH   9  15
ATOM     15  O   UNL     1       1.999   1.620  18.300  0.00  0.00    +0.000 OA
ATOM     16  H   UNL     1       1.161   1.661  18.798  0.00  0.00    +0.000 HD
ENDBRANCH   9  15
ENDBRANCH   2   5
BRANCH   3  17
ATOM     17  C   UNL     1       8.283   8.692  17.521  0.00  0.00    +0.000 C 
BRANCH  17  18
ATOM     18  C   UNL     1       8.606   9.402  18.837  0.00  0.00    +0.000 C 
BRANCH  18  19
ATOM     19  C   UNL     1       9.301  10.726  18.695  0.00  0.00    +0.000 A 
ATOM     20  C   UNL     1       8.790  11.719  17.848  0.00  0.00    +0.000 A 
ATOM     21  C   UNL     1       9.403  12.979  17.781  0.00  0.00    +0.000 A 
ATOM     22  C   UNL     1      10.516  13.237  18.568  0.00  0.00    +0.000 A 
ATOM     23  C   UNL     1      11.029  12.271  19.425  0.00  0.00    +0.000 A 
ATOM     24  C   UNL     1      10.426  11.011  19.486  0.00  0.00    +0.000 A 
BRANCH  22  25
ATOM     25  O   UNL     1      11.128  14.455  18.539  0.00  0.00    +0.000 OA
ATOM     26  H   UNL     1      11.838  14.429  17.882  0.00  0.00    +0.000 HD
ENDBRANCH  22  25
ENDBRANCH  18  19
ENDBRANCH  17  18
ENDBRANCH   3  17
TORSDOF 6
ENDMDL
MODEL 9
REMARK VINA RESULT:      -7.6      7.306      9.807
REMARK  Name = 
REMARK  6 active torsions:
REMARK  status: ('A' for Active; 'I' for Inactive)
REMARK    1  A    between atoms: C_2  and  C_13
REMARK    2  A    between atoms: N_3  and  C_4
REMARK    3  A    between atoms: C_4  and  C_5
REMARK    4  A    between atoms: C_5  and  C_6
REMARK    5  A    between atoms: C_9  and  O_10
REMARK    6  A    between atoms: C_17  and  O_18
REMARK                            x       y       z     vdW  Elec       q    Type
REMARK                         _______ _______ _______ _____ _____    ______ ____
ROOT
ATOM      1  O   UNL     1       1.028   9.865  20.142  0.00  0.00    +0.000 OA
ATOM      2  C   UNL     1       0.707   9.753  18.967  0.00  0.00    +0.000 C 
ATOM      3  N   UNL     1       1.416   9.049  18.031  0.00  0.00    +0.000 N 
ATOM      4  H   UNL     1       1.006   8.951  17.117  0.00  0.00    +0.000 HD
ENDROOT
BRANCH   2   5
ATOM      5  C   UNL     1      -0.470  10.358  18.400  0.00  0.00    +0.000 A 
ATOM      6  C   UNL     1      -1.402  11.202  18.985  0.00  0.00    +0.000 A 
ATOM      7  C   UNL     1      -2.545  11.200  18.156  0.00  0.00    +0.000 A 
ATOM      8  C   UNL     1      -3.893  11.523  18.355  0.00  0.00    +0.000 A 
ATOM      9  C   UNL     1      -4.760  11.353  17.279  0.00  0.00    +0.000 A 
ATOM     10  C   UNL     1      -4.300  11.090  15.994  0.00  0.00    +0.000 A 
ATOM     11  C   UNL     1      -2.961  10.756  15.783  0.00  0.00    +0.000 A 
ATOM     12  C   UNL     1      -2.146  10.701  16.917  0.00  0.00    +0.000 A 
ATOM     13  N   UNL     1      -0.931  10.089  17.128  0.00  0.00    +0.000 N 
ATOM     14  H   UNL     1      -0.505   9.417  16.503  0.00  0.00    +0.000 HD
BRANCH   9  15
ATOM     15  O   UNL     1      -6.106  11.343  17.498  0.00  0.00    +0.000 OA
ATOM     16  H   UNL     1      -6.274  10.544  18.032  0.00  0.00    +0.000 HD
ENDBRANCH   9  15
ENDBRANCH   2   5
BRANCH   3  17
ATOM     17  C   UNL     1       2.733   8.485  18.251  0.00  0.00    +0.000 C 
BRANCH  17  18
ATOM     18  C   UNL     1       2.783   7.093  17.618  0.00  0.00    +0.000 C 
BRANCH  18  19
ATOM     19  C   UNL     1       2.311   5.974  18.501  0.00  0.00    +0.000 A 
ATOM     20  C   UNL     1       2.244   6.133  19.892  0.00  0.00    +0.000 A 
ATOM     21  C   UNL     1       1.728   5.110  20.700  0.00  0.00    +0.000 A 
ATOM     22  C   UNL     1       1.276   3.939  20.110  0.00  0.00    +0.000 A 
ATOM     23  C   UNL     1       1.321   3.766  18.732  0.00  0.00    +0.000 A 
ATOM     24  C   UNL     1       1.844   4.780  17.925  0.00  0.00    +0.000 A 
BRANCH  22  25
ATOM     25  O   UNL     1       0.756   2.928  20.864  0.00  0.00    +0.000 OA
ATOM     26  H   UNL     1       0.690   2.134  20.315  0.00  0.00    +0.000 HD
ENDBRANCH  22  25
ENDBRANCH  18  19
ENDBRANCH  17  18
ENDBRANCH   3  17
TORSDOF 6
ENDMDL
