MODEL 1
REMARK VINA RESULT:      -7.4      0.000      0.000
REMARK  Name = 
REMARK  2 active torsions:
REMARK  status: ('A' for Active; 'I' for Inactive)
REMARK    1  A    between atoms: C_6  and  O_7
REMARK    2  A    between atoms: O_7  and  C_8
REMARK                            x       y       z     vdW  Elec       q    Type
REMARK                         _______ _______ _______ _____ _____    ______ ____
ROOT
ATOM      1  C   UNL     1       6.162   4.439  16.690  0.00  0.00    +0.000 A 
ATOM      2  C   UNL     1       7.092   5.451  16.545  0.00  0.00    +0.000 A 
ATOM      3  N   UNL     1       7.641   5.766  15.348  0.00  0.00    +0.000 NA
ATOM      4  C   UNL     1       7.234   5.027  14.295  0.00  0.00    +0.000 A 
ATOM      5  C   UNL     1       7.703   5.317  13.019  0.00  0.00    +0.000 A 
ATOM      6  C   UNL     1       7.287   4.582  11.906  0.00  0.00    +0.000 A 
ATOM      7  C   UNL     1       6.393   3.531  12.071  0.00  0.00    +0.000 A 
ATOM      8  C   UNL     1       5.918   3.228  13.346  0.00  0.00    +0.000 A 
ATOM      9  C   UNL     1       6.314   3.960  14.456  0.00  0.00    +0.000 A 
ATOM     10  N   UNL     1       5.793   3.652  15.656  0.00  0.00    +0.000 NA
ENDROOT
BRANCH   1  11
ATOM     11  O   UNL     1       5.608   4.239  17.943  0.00  0.00    +0.000 OA
BRANCH  11  17
ATOM     12 CL   UNL     1       0.958   2.142  18.647  0.00  0.00    +0.000 Cl
ATOM     13  C   UNL     1       2.008   3.475  18.360  0.00  0.00    +0.000 A 
ATOM     14  C   UNL     1       1.478   4.757  18.225  0.00  0.00    +0.000 A 
ATOM     15  C   UNL     1       2.329   5.837  17.995  0.00  0.00    +0.000 A 
ATOM     16  C   UNL     1       3.708   5.633  17.915  0.00  0.00    +0.000 A 
ATOM     17  C   UNL     1       4.240   4.351  18.070  0.00  0.00    +0.000 A 
ATOM     18  C   UNL     1       3.382   3.263  18.263  0.00  0.00    +0.000 A 
ENDBRANCH  11  17
ENDBRANCH   1  11
TORSDOF 2
ENDMDL
MODEL 2
REMARK VINA RESULT:      -7.3      1.029      1.598
REMARK  Name = 
REMARK  2 active torsions:
REMARK  status: ('A' for Active; 'I' for Inactive)
REMARK    1  A    between atoms: C_6  and  O_7
REMARK    2  A    between atoms: O_7  and  C_8
REMARK                            x       y       z     vdW  Elec       q    Type
REMARK                         _______ _______ _______ _____ _____    ______ ____
ROOT
ATOM      1  C   UNL     1       5.344   5.290  16.535  0.00  0.00    +0.000 A 
ATOM      2  C   UNL     1       6.587   5.891  16.494  0.00  0.00    +0.000 A 
ATOM      3  N   UNL     1       7.413   5.779  15.426  0.00  0.00    +0.000 NA
ATOM      4  C   UNL     1       6.955   5.035  14.397  0.00  0.00    +0.000 A 
ATOM      5  C   UNL     1       7.712   4.911  13.238  0.00  0.00    +0.000 A 
ATOM      6  C   UNL     1       7.258   4.163  12.149  0.00  0.00    +0.000 A 
ATOM      7  C   UNL     1       6.030   3.517  12.223  0.00  0.00    +0.000 A 
ATOM      8  C   UNL     1       5.263   3.630  13.381  0.00  0.00    +0.000 A 
ATOM      9  C   UNL     1       5.698   4.382  14.463  0.00  0.00    +0.000 A 
ATOM     10  N   UNL     1       4.900   4.493  15.538  0.00  0.00    +0.000 NA
ENDROOT
BRANCH   1  11
ATOM     11  O   UNL     1       4.546   5.520  17.643  0.00  0.00    +0.000 OA
BRANCH  11  17
ATOM     12 CL   UNL     1       0.537   2.488  18.761  0.00  0.00    +0.000 Cl
ATOM     13  C   UNL     1       2.187   2.959  18.903  0.00  0.00    +0.000 A 
ATOM     14  C   UNL     1       3.047   2.227  19.719  0.00  0.00    +0.000 A 
ATOM     15  C   UNL     1       4.384   2.607  19.833  0.00  0.00    +0.000 A 
ATOM     16  C   UNL     1       4.858   3.709  19.118  0.00  0.00    +0.000 A 
ATOM     17  C   UNL     1       3.999   4.429  18.284  0.00  0.00    +0.000 A 
ATOM     18  C   UNL     1       2.650   4.070  18.201  0.00  0.00    +0.000 A 
ENDBRANCH  11  17
ENDBRANCH   1  11
TORSDOF 2
ENDMDL
MODEL 3
REMARK VINA RESULT:      -7.2      2.418      6.043
REMARK  Name = 
REMARK  2 active torsions:
REMARK  status: ('A' for Active; 'I' for Inactive)
REMARK    1  A    between atoms: C_6  and  O_7
REMARK    2  A    between atoms: O_7  and  C_8
REMARK                            x       y       z     vdW  Elec       q    Type
REMARK                         _______ _______ _______ _____ _____    ______ ____
ROOT
ATOM      1  C   UNL     1       5.380   4.553  16.597  0.00  0.00    +0.000 A 
ATOM      2  C   UNL     1       4.757   5.758  16.860  0.00  0.00    +0.000 A 
ATOM      3  N   UNL     1       3.553   5.834  17.476  0.00  0.00    +0.000 NA
ATOM      4  C   UNL     1       2.985   4.658  17.816  0.00  0.00    +0.000 A 
ATOM      5  C   UNL     1       1.776   4.643  18.503  0.00  0.00    +0.000 A 
ATOM      6  C   UNL     1       1.172   3.442  18.884  0.00  0.00    +0.000 A 
ATOM      7  C   UNL     1       1.781   2.235  18.567  0.00  0.00    +0.000 A 
ATOM      8  C   UNL     1       2.991   2.236  17.876  0.00  0.00    +0.000 A 
ATOM      9  C   UNL     1       3.607   3.422  17.503  0.00  0.00    +0.000 A 
ATOM     10  N   UNL     1       4.794   3.368  16.877  0.00  0.00    +0.000 NA
ENDROOT
BRANCH   1  11
ATOM     11  O   UNL     1       6.641   4.584  16.025  0.00  0.00    +0.000 OA
BRANCH  11  17
ATOM     12 CL   UNL     1       5.261   2.420  11.560  0.00  0.00    +0.000 Cl
ATOM     13  C   UNL     1       6.183   3.523  12.506  0.00  0.00    +0.000 A 
ATOM     14  C   UNL     1       7.097   4.372  11.883  0.00  0.00    +0.000 A 
ATOM     15  C   UNL     1       7.842   5.268  12.648  0.00  0.00    +0.000 A 
ATOM     16  C   UNL     1       7.660   5.322  14.032  0.00  0.00    +0.000 A 
ATOM     17  C   UNL     1       6.729   4.485  14.653  0.00  0.00    +0.000 A 
ATOM     18  C   UNL     1       6.010   3.560  13.888  0.00  0.00    +0.000 A 
ENDBRANCH  11  17
ENDBRANCH   1  11
TORSDOF 2
ENDMDL
MODEL 4
REMARK VINA RESULT:      -7.0      3.933      6.677
REMARK  Name = 
REMARK  2 active torsions:
REMARK  status: ('A' for Active; 'I' for Inactive)
REMARK    1  A    between atoms: C_6  and  O_7
REMARK    2  A    between atoms: O_7  and  C_8
REMARK                            x       y       z     vdW  Elec       q    Type
REMARK                         _______ _______ _______ _____ _____    ______ ____
ROOT
ATOM      1  C   UNL     1       4.240   4.649  17.248  0.00  0.00    +0.000 A 
ATOM      2  C   UNL     1       3.901   3.397  16.771  0.00  0.00    +0.000 A 
ATOM      3  N   UNL     1       2.927   2.645  17.337  0.00  0.00    +0.000 NA
ATOM      4  C   UNL     1       2.304   3.185  18.405  0.00  0.00    +0.000 A 
ATOM      5  C   UNL     1       1.253   2.508  19.013  0.00  0.00    +0.000 A 
ATOM      6  C   UNL     1       0.577   3.049  20.109  0.00  0.00    +0.000 A 
ATOM      7  C   UNL     1       0.962   4.284  20.613  0.00  0.00    +0.000 A 
ATOM      8  C   UNL     1       2.015   4.973  20.015  0.00  0.00    +0.000 A 
ATOM      9  C   UNL     1       2.686   4.451  18.917  0.00  0.00    +0.000 A 
ATOM     10  N   UNL     1       3.666   5.175  18.352  0.00  0.00    +0.000 NA
ENDROOT
BRANCH   1  11
ATOM     11  O   UNL     1       5.203   5.369  16.559  0.00  0.00    +0.000 OA
BRANCH  11  17
ATOM     12 CL   UNL     1       8.129   9.439  17.737  0.00  0.00    +0.000 Cl
ATOM     13  C   UNL     1       7.664   7.790  17.900  0.00  0.00    +0.000 A 
ATOM     14  C   UNL     1       8.337   6.967  18.801  0.00  0.00    +0.000 A 
ATOM     15  C   UNL     1       7.960   5.631  18.934  0.00  0.00    +0.000 A 
ATOM     16  C   UNL     1       6.900   5.128  18.177  0.00  0.00    +0.000 A 
ATOM     17  C   UNL     1       6.212   5.959  17.288  0.00  0.00    +0.000 A 
ATOM     18  C   UNL     1       6.617   7.288  17.128  0.00  0.00    +0.000 A 
ENDBRANCH  11  17
ENDBRANCH   1  11
TORSDOF 2
ENDMDL
MODEL 5
REMARK VINA RESULT:      -7.0      1.434      1.762
REMARK  Name = 
REMARK  2 active torsions:
REMARK  status: ('A' for Active; 'I' for Inactive)
REMARK    1  A    between atoms: C_6  and  O_7
REMARK    2  A    between atoms: O_7  and  C_8
REMARK                            x       y       z     vdW  Elec       q    Type
REMARK                         _______ _______ _______ _____ _____    ______ ____
ROOT
ATOM      1  C   UNL     1       5.304   5.331  16.401  0.00  0.00    +0.000 A 
ATOM      2  C   UNL     1       6.562   5.900  16.358  0.00  0.00    +0.000 A 
ATOM      3  N   UNL     1       7.397   5.735  15.304  0.00  0.00    +0.000 NA
ATOM      4  C   UNL     1       6.934   4.972  14.292  0.00  0.00    +0.000 A 
ATOM      5  C   UNL     1       7.701   4.795  13.147  0.00  0.00    +0.000 A 
ATOM      6  C   UNL     1       7.242   4.026  12.075  0.00  0.00    +0.000 A 
ATOM      7  C   UNL     1       5.997   3.413  12.152  0.00  0.00    +0.000 A 
ATOM      8  C   UNL     1       5.219   3.580  13.297  0.00  0.00    +0.000 A 
ATOM      9  C   UNL     1       5.660   4.353  14.362  0.00  0.00    +0.000 A 
ATOM     10  N   UNL     1       4.853   4.515  15.423  0.00  0.00    +0.000 NA
ENDROOT
BRANCH   1  11
ATOM     11  O   UNL     1       4.499   5.614  17.492  0.00  0.00    +0.000 OA
BRANCH  11  17
ATOM     12 CL   UNL     1       4.843   1.595  20.692  0.00  0.00    +0.000 Cl
ATOM     13  C   UNL     1       3.978   2.632  19.626  0.00  0.00    +0.000 A 
ATOM     14  C   UNL     1       2.623   2.409  19.392  0.00  0.00    +0.000 A 
ATOM     15  C   UNL     1       1.920   3.250  18.530  0.00  0.00    +0.000 A 
ATOM     16  C   UNL     1       2.575   4.321  17.915  0.00  0.00    +0.000 A 
ATOM     17  C   UNL     1       3.929   4.556  18.166  0.00  0.00    +0.000 A 
ATOM     18  C   UNL     1       4.640   3.688  19.002  0.00  0.00    +0.000 A 
ENDBRANCH  11  17
ENDBRANCH   1  11
TORSDOF 2
ENDMDL
MODEL 6
REMARK VINA RESULT:      -7.0      3.465      6.673
REMARK  Name = 
REMARK  2 active torsions:
REMARK  status: ('A' for Active; 'I' for Inactive)
REMARK    1  A    between atoms: C_6  and  O_7
REMARK    2  A    between atoms: O_7  and  C_8
REMARK                            x       y       z     vdW  Elec       q    Type
REMARK                         _______ _______ _______ _____ _____    ______ ____
ROOT
ATOM      1  C   UNL     1       3.023   5.477  18.938  0.00  0.00    +0.000 A 
ATOM      2  C   UNL     1       2.498   5.510  20.216  0.00  0.00    +0.000 A 
ATOM      3  N   UNL     1       1.866   6.601  20.712  0.00  0.00    +0.000 NA
ATOM      4  C   UNL     1       1.781   7.665  19.887  0.00  0.00    +0.000 A 
ATOM      5  C   UNL     1       1.100   8.807  20.293  0.00  0.00    +0.000 A 
ATOM      6  C   UNL     1       0.980   9.919  19.455  0.00  0.00    +0.000 A 
ATOM      7  C   UNL     1       1.559   9.894  18.193  0.00  0.00    +0.000 A 
ATOM      8  C   UNL     1       2.248   8.757  17.775  0.00  0.00    +0.000 A 
ATOM      9  C   UNL     1       2.362   7.642  18.593  0.00  0.00    +0.000 A 
ATOM     10  N   UNL     1       2.999   6.556  18.125  0.00  0.00    +0.000 NA
ENDROOT
BRANCH   1  11
ATOM     11  O   UNL     1       3.591   4.292  18.499  0.00  0.00    +0.000 OA
BRANCH  11  17
ATOM     12 CL   UNL     1       6.162   3.851  14.059  0.00  0.00    +0.000 Cl
ATOM     13  C   UNL     1       6.069   4.161  15.750  0.00  0.00    +0.000 A 
ATOM     14  C   UNL     1       7.223   4.493  16.457  0.00  0.00    +0.000 A 
ATOM     15  C   UNL     1       7.147   4.747  17.826  0.00  0.00    +0.000 A 
ATOM     16  C   UNL     1       5.915   4.681  18.480  0.00  0.00    +0.000 A 
ATOM     17  C   UNL     1       4.755   4.367  17.766  0.00  0.00    +0.000 A 
ATOM     18  C   UNL     1       4.839   4.076  16.400  0.00  0.00    +0.000 A 
ENDBRANCH  11  17
ENDBRANCH   1  11
TORSDOF 2
ENDMDL
MODEL 7
REMARK VINA RESULT:      -6.9      5.263      7.771
REMARK  Name = 
REMARK  2 active torsions:
REMARK  status: ('A' for Active; 'I' for Inactive)
REMARK    1  A    between atoms: C_6  and  O_7
REMARK    2  A    between atoms: O_7  and  C_8
REMARK                            x       y       z     vdW  Elec       q    Type
REMARK                         _______ _______ _______ _____ _____    ______ ____
ROOT
ATOM      1  C   UNL     1       2.197   7.736  19.261  0.00  0.00    +0.000 A 
ATOM      2  C   UNL     1       2.043   8.508  18.126  0.00  0.00    +0.000 A 
ATOM      3  N   UNL     1       1.320   9.653  18.120  0.00  0.00    +0.000 NA
ATOM      4  C   UNL     1       0.747  10.000  19.292  0.00  0.00    +0.000 A 
ATOM      5  C   UNL     1       0.034  11.189  19.392  0.00  0.00    +0.000 A 
ATOM      6  C   UNL     1      -0.555  11.584  20.595  0.00  0.00    +0.000 A 
ATOM      7  C   UNL     1      -0.439  10.773  21.717  0.00  0.00    +0.000 A 
ATOM      8  C   UNL     1       0.270   9.577  21.629  0.00  0.00    +0.000 A 
ATOM      9  C   UNL     1       0.871   9.180  20.443  0.00  0.00    +0.000 A 
ATOM     10  N   UNL     1       1.579   8.039  20.423  0.00  0.00    +0.000 NA
ENDROOT
BRANCH   1  11
ATOM     11  O   UNL     1       3.012   6.618  19.182  0.00  0.00    +0.000 OA
BRANCH  11  17
ATOM     12 CL   UNL     1       1.380   2.526  21.849  0.00  0.00    +0.000 Cl
ATOM     13  C   UNL     1       1.640   3.395  20.386  0.00  0.00    +0.000 A 
ATOM     14  C   UNL     1       1.251   2.836  19.171  0.00  0.00    +0.000 A 
ATOM     15  C   UNL     1       1.459   3.540  17.985  0.00  0.00    +0.000 A 
ATOM     16  C   UNL     1       2.043   4.809  18.023  0.00  0.00    +0.000 A 
ATOM     17  C   UNL     1       2.414   5.378  19.244  0.00  0.00    +0.000 A 
ATOM     18  C   UNL     1       2.239   4.653  20.428  0.00  0.00    +0.000 A 
ENDBRANCH  11  17
ENDBRANCH   1  11
TORSDOF 2
ENDMDL
MODEL 8
REMARK VINA RESULT:      -6.9      3.100      4.077
REMARK  Name = 
REMARK  2 active torsions:
REMARK  status: ('A' for Active; 'I' for Inactive)
REMARK    1  A    between atoms: C_6  and  O_7
REMARK    2  A    between atoms: O_7  and  C_8
REMARK                            x       y       z     vdW  Elec       q    Type
REMARK                         _______ _______ _______ _____ _____    ______ ____
ROOT
ATOM      1  C   UNL     1       5.030   4.197  17.590  0.00  0.00    +0.000 A 
ATOM      2  C   UNL     1       4.594   5.106  16.645  0.00  0.00    +0.000 A 
ATOM      3  N   UNL     1       5.191   6.308  16.465  0.00  0.00    +0.000 NA
ATOM      4  C   UNL     1       6.240   6.577  17.270  0.00  0.00    +0.000 A 
ATOM      5  C   UNL     1       6.948   7.763  17.116  0.00  0.00    +0.000 A 
ATOM      6  C   UNL     1       8.050   8.062  17.922  0.00  0.00    +0.000 A 
ATOM      7  C   UNL     1       8.445   7.165  18.906  0.00  0.00    +0.000 A 
ATOM      8  C   UNL     1       7.742   5.973  19.073  0.00  0.00    +0.000 A 
ATOM      9  C   UNL     1       6.655   5.660  18.269  0.00  0.00    +0.000 A 
ATOM     10  N   UNL     1       6.039   4.479  18.443  0.00  0.00    +0.000 NA
ENDROOT
BRANCH   1  11
ATOM     11  O   UNL     1       4.395   2.968  17.652  0.00  0.00    +0.000 OA
BRANCH  11  17
ATOM     12 CL   UNL     1       2.094   3.130  22.255  0.00  0.00    +0.000 Cl
ATOM     13  C   UNL     1       2.095   2.875  20.553  0.00  0.00    +0.000 A 
ATOM     14  C   UNL     1       0.914   2.519  19.906  0.00  0.00    +0.000 A 
ATOM     15  C   UNL     1       0.914   2.314  18.527  0.00  0.00    +0.000 A 
ATOM     16  C   UNL     1       2.094   2.481  17.798  0.00  0.00    +0.000 A 
ATOM     17  C   UNL     1       3.273   2.858  18.445  0.00  0.00    +0.000 A 
ATOM     18  C   UNL     1       3.279   3.026  19.833  0.00  0.00    +0.000 A 
ENDBRANCH  11  17
ENDBRANCH   1  11
TORSDOF 2
ENDMDL
MODEL 9
REMARK VINA RESULT:      -6.9      2.995      6.480
REMARK  Name = 
REMARK  2 active torsions:
REMARK  status: ('A' for Active; 'I' for Inactive)
REMARK    1  A    between atoms: C_6  and  O_7
REMARK    2  A    between atoms: O_7  and  C_8
REMARK                            x       y       z     vdW  Elec       q    Type
REMARK                         _______ _______ _______ _____ _____    ______ ____
ROOT
ATOM      1  C   UNL     1       3.317   6.149  17.870  0.00  0.00    +0.000 A 
ATOM      2  C   UNL     1       2.912   6.830  19.003  0.00  0.00    +0.000 A 
ATOM      3  N   UNL     1       2.186   6.240  19.983  0.00  0.00    +0.000 NA
ATOM      4  C   UNL     1       1.870   4.943  19.789  0.00  0.00    +0.000 A 
ATOM      5  C   UNL     1       1.176   4.243  20.769  0.00  0.00    +0.000 A 
ATOM      6  C   UNL     1       0.850   2.894  20.606  0.00  0.00    +0.000 A 
ATOM      7  C   UNL     1       1.214   2.235  19.439  0.00  0.00    +0.000 A 
ATOM      8  C   UNL     1       1.908   2.926  18.447  0.00  0.00    +0.000 A 
ATOM      9  C   UNL     1       2.249   4.262  18.604  0.00  0.00    +0.000 A 
ATOM     10  N   UNL     1       2.955   4.869  17.636  0.00  0.00    +0.000 NA
ENDROOT
BRANCH   1  11
ATOM     11  O   UNL     1       4.114   6.821  16.958  0.00  0.00    +0.000 OA
BRANCH  11  17
ATOM     12 CL   UNL     1       6.500   4.173  13.242  0.00  0.00    +0.000 Cl
ATOM     13  C   UNL     1       6.428   4.892  14.804  0.00  0.00    +0.000 A 
ATOM     14  C   UNL     1       7.530   4.813  15.653  0.00  0.00    +0.000 A 
ATOM     15  C   UNL     1       7.473   5.397  16.918  0.00  0.00    +0.000 A 
ATOM     16  C   UNL     1       6.318   6.071  17.323  0.00  0.00    +0.000 A 
ATOM     17  C   UNL     1       5.221   6.167  16.462  0.00  0.00    +0.000 A 
ATOM     18  C   UNL     1       5.267   5.548  15.209  0.00  0.00    +0.000 A 
ENDBRANCH  11  17
ENDBRANCH   1  11
TORSDOF 2
ENDMDL
