MODEL 1
REMARK VINA RESULT:      -7.1      0.000      0.000
REMARK  Name = 
REMARK  6 active torsions:
REMARK  status: ('A' for Active; 'I' for Inactive)
REMARK    1  A    between atoms: C_1  and  N_2
REMARK    2  A    between atoms: C_7  and  S_8
REMARK    3  A    between atoms: S_8  and  C_11
REMARK    4  A    between atoms: C_18  and  O_19
REMARK    5  A    between atoms: O_19  and  C_20
REMARK    6  A    between atoms: C_20  and  C_21
REMARK                            x       y       z     vdW  Elec       q    Type
REMARK                         _______ _______ _______ _____ _____    ______ ____
ROOT
ATOM      1  C   UNL     1       2.553  10.401  17.833  0.00  0.00    +0.000 C 
ATOM      2  N   UNL     1       1.815   9.646  18.823  0.00  0.00    +0.000 N 
ATOM      3  C   UNL     1       0.831  10.170  19.622  0.00  0.00    +0.000 A 
ATOM      4  C   UNL     1       0.435   9.210  20.532  0.00  0.00    +0.000 A 
ATOM      5  C   UNL     1       1.150   8.024  20.231  0.00  0.00    +0.000 A 
ATOM      6  C   UNL     1       1.081   6.733  20.780  0.00  0.00    +0.000 A 
ATOM      7  C   UNL     1       1.906   5.743  20.265  0.00  0.00    +0.000 A 
ATOM      8  C   UNL     1       2.799   6.029  19.245  0.00  0.00    +0.000 A 
ATOM      9  C   UNL     1       2.836   7.281  18.593  0.00  0.00    +0.000 A 
ATOM     10  C   UNL     1       2.013   8.301  19.143  0.00  0.00    +0.000 A 
ATOM     11  C   UNL     1      -0.623   9.487  21.558  0.00  0.00    +0.000 C 
ATOM     12  C   UNL     1      -0.106  10.173  22.807  0.00  0.00    +0.000 C 
ATOM     13  C   UNL     1      -0.484  11.632  22.552  0.00  0.00    +0.000 C 
ATOM     14  C   UNL     1      -0.595  11.816  20.990  0.00  0.00    +0.000 C 
ATOM     15  C   UNL     1       0.170  11.523  19.592  0.00  0.00    +0.000 C 
ATOM     16  N   UNL     1      -1.453  10.578  21.005  0.00  0.00    +0.000 NA
ATOM     17  H   UNL     1      -1.765  10.313  20.072  0.00  0.00    +0.000 HD
ENDROOT
BRANCH   7  18
ATOM     18  S   UNL     1       1.771   4.076  20.843  0.00  0.00    +0.000 S 
ATOM     19  O   UNL     1       2.455   4.043  22.123  0.00  0.00    +0.000 OA
ATOM     20  O   UNL     1       0.379   3.673  20.740  0.00  0.00    +0.000 OA
BRANCH  18  21
ATOM     21  C   UNL     1       2.669   3.060  19.712  0.00  0.00    +0.000 A 
ATOM     22  C   UNL     1       2.136   2.794  18.449  0.00  0.00    +0.000 A 
ATOM     23  C   UNL     1       2.814   1.927  17.598  0.00  0.00    +0.000 A 
ATOM     24  C   UNL     1       4.016   1.344  18.009  0.00  0.00    +0.000 A 
ATOM     25  C   UNL     1       4.556   1.640  19.263  0.00  0.00    +0.000 A 
ATOM     26  C   UNL     1       3.884   2.505  20.121  0.00  0.00    +0.000 A 
ENDBRANCH  18  21
ENDBRANCH   7  18
BRANCH   9  27
ATOM     27  O   UNL     1       3.588   7.467  17.430  0.00  0.00    +0.000 OA
BRANCH  27  28
ATOM     28  C   UNL     1       4.968   7.091  17.623  0.00  0.00    +0.000 C 
BRANCH  28  29
ATOM     29  C   UNL     1       5.574   6.069  16.708  0.00  0.00    +0.000 A 
ATOM     30  C   UNL     1       4.833   4.904  16.430  0.00  0.00    +0.000 A 
ATOM     31  C   UNL     1       5.366   3.917  15.615  0.00  0.00    +0.000 A 
ATOM     32  C   UNL     1       6.638   4.118  15.116  0.00  0.00    +0.000 A 
ATOM     33  N   UNL     1       7.390   5.212  15.376  0.00  0.00    +0.000 NA
ATOM     34  C   UNL     1       6.843   6.163  16.172  0.00  0.00    +0.000 A 
ENDBRANCH  28  29
ENDBRANCH  27  28
ENDBRANCH   9  27
TORSDOF 5
ENDMDL
MODEL 2
REMARK VINA RESULT:      -6.8      2.201      4.739
REMARK  Name = 
REMARK  6 active torsions:
REMARK  status: ('A' for Active; 'I' for Inactive)
REMARK    1  A    between atoms: C_1  and  N_2
REMARK    2  A    between atoms: C_7  and  S_8
REMARK    3  A    between atoms: S_8  and  C_11
REMARK    4  A    between atoms: C_18  and  O_19
REMARK    5  A    between atoms: O_19  and  C_20
REMARK    6  A    between atoms: C_20  and  C_21
REMARK                            x       y       z     vdW  Elec       q    Type
REMARK                         _______ _______ _______ _____ _____    ______ ____
ROOT
ATOM      1  C   UNL     1      -0.101   8.085  21.993  0.00  0.00    +0.000 C 
ATOM      2  N   UNL     1       0.668   8.624  20.891  0.00  0.00    +0.000 N 
ATOM      3  C   UNL     1       0.664   9.943  20.515  0.00  0.00    +0.000 A 
ATOM      4  C   UNL     1       1.402  10.079  19.356  0.00  0.00    +0.000 A 
ATOM      5  C   UNL     1       1.945   8.806  19.050  0.00  0.00    +0.000 A 
ATOM      6  C   UNL     1       2.827   8.392  18.038  0.00  0.00    +0.000 A 
ATOM      7  C   UNL     1       3.208   7.058  17.990  0.00  0.00    +0.000 A 
ATOM      8  C   UNL     1       2.709   6.148  18.908  0.00  0.00    +0.000 A 
ATOM      9  C   UNL     1       1.902   6.532  20.000  0.00  0.00    +0.000 A 
ATOM     10  C   UNL     1       1.487   7.891  20.029  0.00  0.00    +0.000 A 
ATOM     11  C   UNL     1       1.573  11.409  18.684  0.00  0.00    +0.000 C 
ATOM     12  C   UNL     1       0.429  11.787  17.765  0.00  0.00    +0.000 C 
ATOM     13  C   UNL     1      -0.385  12.741  18.639  0.00  0.00    +0.000 C 
ATOM     14  C   UNL     1      -0.067  12.380  20.140  0.00  0.00    +0.000 C 
ATOM     15  C   UNL     1       0.045  11.143  21.181  0.00  0.00    +0.000 C 
ATOM     16  N   UNL     1       1.386  12.427  19.739  0.00  0.00    +0.000 NA
ATOM     17  H   UNL     1       2.008  12.213  20.517  0.00  0.00    +0.000 HD
ENDROOT
BRANCH   7  18
ATOM     18  S   UNL     1       4.408   6.513  16.809  0.00  0.00    +0.000 S 
ATOM     19  O   UNL     1       4.140   5.103  16.592  0.00  0.00    +0.000 OA
ATOM     20  O   UNL     1       4.401   7.445  15.695  0.00  0.00    +0.000 OA
BRANCH  18  21
ATOM     21  C   UNL     1       5.993   6.662  17.573  0.00  0.00    +0.000 A 
ATOM     22  C   UNL     1       6.419   5.686  18.475  0.00  0.00    +0.000 A 
ATOM     23  C   UNL     1       7.634   5.857  19.131  0.00  0.00    +0.000 A 
ATOM     24  C   UNL     1       8.413   6.989  18.875  0.00  0.00    +0.000 A 
ATOM     25  C   UNL     1       7.991   7.945  17.948  0.00  0.00    +0.000 A 
ATOM     26  C   UNL     1       6.777   7.783  17.288  0.00  0.00    +0.000 A 
ENDBRANCH  18  21
ENDBRANCH   7  18
BRANCH   9  27
ATOM     27  O   UNL     1       1.599   5.632  21.026  0.00  0.00    +0.000 OA
BRANCH  27  28
ATOM     28  C   UNL     1       1.049   4.402  20.508  0.00  0.00    +0.000 C 
BRANCH  28  29
ATOM     29  C   UNL     1       1.962   3.440  19.808  0.00  0.00    +0.000 A 
ATOM     30  C   UNL     1       1.583   2.972  18.535  0.00  0.00    +0.000 A 
ATOM     31  C   UNL     1       2.379   2.057  17.864  0.00  0.00    +0.000 A 
ATOM     32  C   UNL     1       3.528   1.622  18.497  0.00  0.00    +0.000 A 
ATOM     33  N   UNL     1       3.916   2.032  19.727  0.00  0.00    +0.000 NA
ATOM     34  C   UNL     1       3.121   2.929  20.358  0.00  0.00    +0.000 A 
ENDBRANCH  28  29
ENDBRANCH  27  28
ENDBRANCH   9  27
TORSDOF 5
ENDMDL
MODEL 3
REMARK VINA RESULT:      -6.8      4.929      9.117
REMARK  Name = 
REMARK  6 active torsions:
REMARK  status: ('A' for Active; 'I' for Inactive)
REMARK    1  A    between atoms: C_1  and  N_2
REMARK    2  A    between atoms: C_7  and  S_8
REMARK    3  A    between atoms: S_8  and  C_11
REMARK    4  A    between atoms: C_18  and  O_19
REMARK    5  A    between atoms: O_19  and  C_20
REMARK    6  A    between atoms: C_20  and  C_21
REMARK                            x       y       z     vdW  Elec       q    Type
REMARK                         _______ _______ _______ _____ _____    ______ ____
ROOT
ATOM      1  C   UNL     1      -3.216  10.705  16.455  0.00  0.00    +0.000 C 
ATOM      2  N   UNL     1      -3.565  11.356  17.700  0.00  0.00    +0.000 N 
ATOM      3  C   UNL     1      -4.835  11.744  18.042  0.00  0.00    +0.000 A 
ATOM      4  C   UNL     1      -4.783  12.445  19.231  0.00  0.00    +0.000 A 
ATOM      5  C   UNL     1      -3.438  12.421  19.675  0.00  0.00    +0.000 A 
ATOM      6  C   UNL     1      -2.840  12.905  20.851  0.00  0.00    +0.000 A 
ATOM      7  C   UNL     1      -1.475  12.723  21.030  0.00  0.00    +0.000 A 
ATOM      8  C   UNL     1      -0.714  12.098  20.056  0.00  0.00    +0.000 A 
ATOM      9  C   UNL     1      -1.282  11.507  18.906  0.00  0.00    +0.000 A 
ATOM     10  C   UNL     1      -2.673  11.723  18.710  0.00  0.00    +0.000 A 
ATOM     11  C   UNL     1      -6.018  13.017  19.862  0.00  0.00    +0.000 C 
ATOM     12  C   UNL     1      -6.421  14.370  19.311  0.00  0.00    +0.000 C 
ATOM     13  C   UNL     1      -7.534  13.999  18.330  0.00  0.00    +0.000 C 
ATOM     14  C   UNL     1      -7.287  12.505  17.893  0.00  0.00    +0.000 C 
ATOM     15  C   UNL     1      -6.151  11.480  17.360  0.00  0.00    +0.000 C 
ATOM     16  N   UNL     1      -7.146  12.203  19.363  0.00  0.00    +0.000 NA
ATOM     17  H   UNL     1      -6.945  11.220  19.537  0.00  0.00    +0.000 HD
ENDROOT
BRANCH   7  18
ATOM     18  S   UNL     1      -0.699  13.208  22.545  0.00  0.00    +0.000 S 
ATOM     19  O   UNL     1      -0.713  12.029  23.392  0.00  0.00    +0.000 OA
ATOM     20  O   UNL     1       0.553  13.868  22.220  0.00  0.00    +0.000 OA
BRANCH  18  21
ATOM     21  C   UNL     1      -1.731  14.433  23.288  0.00  0.00    +0.000 A 
ATOM     22  C   UNL     1      -1.589  15.772  22.920  0.00  0.00    +0.000 A 
ATOM     23  C   UNL     1      -2.351  16.737  23.571  0.00  0.00    +0.000 A 
ATOM     24  C   UNL     1      -3.251  16.357  24.571  0.00  0.00    +0.000 A 
ATOM     25  C   UNL     1      -3.408  15.012  24.911  0.00  0.00    +0.000 A 
ATOM     26  C   UNL     1      -2.649  14.040  24.266  0.00  0.00    +0.000 A 
ENDBRANCH  18  21
ENDBRANCH   7  18
BRANCH   9  27
ATOM     27  O   UNL     1      -0.520  10.698  18.059  0.00  0.00    +0.000 OA
BRANCH  27  28
ATOM     28  C   UNL     1       0.860  10.638  18.480  0.00  0.00    +0.000 C 
BRANCH  28  29
ATOM     29  C   UNL     1       1.457   9.303  18.813  0.00  0.00    +0.000 A 
ATOM     30  C   UNL     1       2.167   8.623  17.805  0.00  0.00    +0.000 A 
ATOM     31  C   UNL     1       2.709   7.373  18.057  0.00  0.00    +0.000 A 
ATOM     32  C   UNL     1       2.507   6.828  19.311  0.00  0.00    +0.000 A 
ATOM     33  N   UNL     1       1.814   7.440  20.299  0.00  0.00    +0.000 NA
ATOM     34  C   UNL     1       1.299   8.663  20.027  0.00  0.00    +0.000 A 
ENDBRANCH  28  29
ENDBRANCH  27  28
ENDBRANCH   9  27
TORSDOF 5
ENDMDL
MODEL 4
REMARK VINA RESULT:      -6.8      5.302      9.868
REMARK  Name = 
REMARK  6 active torsions:
REMARK  status: ('A' for Active; 'I' for Inactive)
REMARK    1  A    between atoms: C_1  and  N_2
REMARK    2  A    between atoms: C_7  and  S_8
REMARK    3  A    between atoms: S_8  and  C_11
REMARK    4  A    between atoms: C_18  and  O_19
REMARK    5  A    between atoms: O_19  and  C_20
REMARK    6  A    between atoms: C_20  and  C_21
REMARK                            x       y       z     vdW  Elec       q    Type
REMARK                         _______ _______ _______ _____ _____    ______ ____
ROOT
ATOM      1  C   UNL     1       2.076  12.759  20.594  0.00  0.00    +0.000 C 
ATOM      2  N   UNL     1       0.815  13.468  20.599  0.00  0.00    +0.000 N 
ATOM      3  C   UNL     1       0.559  14.598  19.864  0.00  0.00    +0.000 A 
ATOM      4  C   UNL     1      -0.689  15.080  20.206  0.00  0.00    +0.000 A 
ATOM      5  C   UNL     1      -1.254  14.168  21.132  0.00  0.00    +0.000 A 
ATOM      6  C   UNL     1      -2.520  14.126  21.740  0.00  0.00    +0.000 A 
ATOM      7  C   UNL     1      -2.808  13.085  22.611  0.00  0.00    +0.000 A 
ATOM      8  C   UNL     1      -1.856  12.119  22.896  0.00  0.00    +0.000 A 
ATOM      9  C   UNL     1      -0.609  12.061  22.237  0.00  0.00    +0.000 A 
ATOM     10  C   UNL     1      -0.304  13.145  21.370  0.00  0.00    +0.000 A 
ATOM     11  C   UNL     1      -1.251  16.322  19.580  0.00  0.00    +0.000 C 
ATOM     12  C   UNL     1      -0.793  17.607  20.240  0.00  0.00    +0.000 C 
ATOM     13  C   UNL     1       0.318  18.072  19.298  0.00  0.00    +0.000 C 
ATOM     14  C   UNL     1       0.866  16.792  18.559  0.00  0.00    +0.000 C 
ATOM     15  C   UNL     1       1.383  15.275  18.802  0.00  0.00    +0.000 C 
ATOM     16  N   UNL     1      -0.576  16.462  18.273  0.00  0.00    +0.000 NA
ATOM     17  H   UNL     1      -0.677  15.591  17.755  0.00  0.00    +0.000 HD
ENDROOT
BRANCH   7  18
ATOM     18  S   UNL     1      -4.427  12.923  23.307  0.00  0.00    +0.000 S 
ATOM     19  O   UNL     1      -5.285  12.493  22.218  0.00  0.00    +0.000 OA
ATOM     20  O   UNL     1      -4.321  12.131  24.520  0.00  0.00    +0.000 OA
BRANCH  18  21
ATOM     21  C   UNL     1      -4.940  14.537  23.808  0.00  0.00    +0.000 A 
ATOM     22  C   UNL     1      -6.206  15.003  23.448  0.00  0.00    +0.000 A 
ATOM     23  C   UNL     1      -6.566  16.305  23.779  0.00  0.00    +0.000 A 
ATOM     24  C   UNL     1      -5.669  17.123  24.472  0.00  0.00    +0.000 A 
ATOM     25  C   UNL     1      -4.416  16.637  24.854  0.00  0.00    +0.000 A 
ATOM     26  C   UNL     1      -4.047  15.336  24.526  0.00  0.00    +0.000 A 
ENDBRANCH  18  21
ENDBRANCH   7  18
BRANCH   9  27
ATOM     27  O   UNL     1       0.234  10.956  22.384  0.00  0.00    +0.000 OA
BRANCH  27  28
ATOM     28  C   UNL     1      -0.245   9.819  21.635  0.00  0.00    +0.000 C 
BRANCH  28  29
ATOM     29  C   UNL     1       0.614   9.260  20.540  0.00  0.00    +0.000 A 
ATOM     30  C   UNL     1       0.531   9.851  19.264  0.00  0.00    +0.000 A 
ATOM     31  C   UNL     1       1.282   9.348  18.213  0.00  0.00    +0.000 A 
ATOM     32  C   UNL     1       2.083   8.251  18.466  0.00  0.00    +0.000 A 
ATOM     33  N   UNL     1       2.175   7.642  19.672  0.00  0.00    +0.000 NA
ATOM     34  C   UNL     1       1.434   8.158  20.682  0.00  0.00    +0.000 A 
ENDBRANCH  28  29
ENDBRANCH  27  28
ENDBRANCH   9  27
TORSDOF 5
ENDMDL
MODEL 5
REMARK VINA RESULT:      -6.8      1.157      1.501
REMARK  Name = 
REMARK  6 active torsions:
REMARK  status: ('A' for Active; 'I' for Inactive)
REMARK    1  A    between atoms: C_1  and  N_2
REMARK    2  A    between atoms: C_7  and  S_8
REMARK    3  A    between atoms: S_8  and  C_11
REMARK    4  A    between atoms: C_18  and  O_19
REMARK    5  A    between atoms: O_19  and  C_20
REMARK    6  A    between atoms: C_20  and  C_21
REMARK                            x       y       z     vdW  Elec       q    Type
REMARK                         _______ _______ _______ _____ _____    ______ ____
ROOT
ATOM      1  C   UNL     1       2.492  10.523  17.868  0.00  0.00    +0.000 C 
ATOM      2  N   UNL     1       1.755   9.751  18.846  0.00  0.00    +0.000 N 
ATOM      3  C   UNL     1       0.774  10.262  19.658  0.00  0.00    +0.000 A 
ATOM      4  C   UNL     1       0.379   9.285  20.551  0.00  0.00    +0.000 A 
ATOM      5  C   UNL     1       1.092   8.105  20.226  0.00  0.00    +0.000 A 
ATOM      6  C   UNL     1       1.023   6.803  20.752  0.00  0.00    +0.000 A 
ATOM      7  C   UNL     1       1.845   5.822  20.217  0.00  0.00    +0.000 A 
ATOM      8  C   UNL     1       2.735   6.125  19.199  0.00  0.00    +0.000 A 
ATOM      9  C   UNL     1       2.772   7.389  18.570  0.00  0.00    +0.000 A 
ATOM     10  C   UNL     1       1.953   8.400  19.141  0.00  0.00    +0.000 A 
ATOM     11  C   UNL     1      -0.675   9.545  21.585  0.00  0.00    +0.000 C 
ATOM     12  C   UNL     1      -0.154  10.207  22.845  0.00  0.00    +0.000 C 
ATOM     13  C   UNL     1      -0.530  11.671  22.617  0.00  0.00    +0.000 C 
ATOM     14  C   UNL     1      -0.645  11.885  21.060  0.00  0.00    +0.000 C 
ATOM     15  C   UNL     1       0.116  11.616  19.654  0.00  0.00    +0.000 C 
ATOM     16  N   UNL     1      -1.505  10.647  21.054  0.00  0.00    +0.000 NA
ATOM     17  H   UNL     1      -1.820  10.400  20.117  0.00  0.00    +0.000 HD
ENDROOT
BRANCH   7  18
ATOM     18  S   UNL     1       1.709   4.145  20.764  0.00  0.00    +0.000 S 
ATOM     19  O   UNL     1       2.365   4.096  22.059  0.00  0.00    +0.000 OA
ATOM     20  O   UNL     1       0.323   3.735  20.624  0.00  0.00    +0.000 OA
BRANCH  18  21
ATOM     21  C   UNL     1       2.639   3.153  19.637  0.00  0.00    +0.000 A 
ATOM     22  C   UNL     1       2.190   2.993  18.325  0.00  0.00    +0.000 A 
ATOM     23  C   UNL     1       2.887   2.145  17.471  0.00  0.00    +0.000 A 
ATOM     24  C   UNL     1       4.026   1.475  17.928  0.00  0.00    +0.000 A 
ATOM     25  C   UNL     1       4.484   1.666  19.234  0.00  0.00    +0.000 A 
ATOM     26  C   UNL     1       3.792   2.511  20.096  0.00  0.00    +0.000 A 
ENDBRANCH  18  21
ENDBRANCH   7  18
BRANCH   9  27
ATOM     27  O   UNL     1       3.521   7.595  17.408  0.00  0.00    +0.000 OA
BRANCH  27  28
ATOM     28  C   UNL     1       4.289   6.425  17.056  0.00  0.00    +0.000 C 
BRANCH  28  29
ATOM     29  C   UNL     1       5.602   6.189  17.739  0.00  0.00    +0.000 A 
ATOM     30  C   UNL     1       6.611   7.161  17.593  0.00  0.00    +0.000 A 
ATOM     31  C   UNL     1       7.852   6.970  18.179  0.00  0.00    +0.000 A 
ATOM     32  C   UNL     1       8.055   5.798  18.883  0.00  0.00    +0.000 A 
ATOM     33  N   UNL     1       7.119   4.832  19.029  0.00  0.00    +0.000 NA
ATOM     34  C   UNL     1       5.914   5.046  18.449  0.00  0.00    +0.000 A 
ENDBRANCH  28  29
ENDBRANCH  27  28
ENDBRANCH   9  27
TORSDOF 5
ENDMDL
MODEL 6
REMARK VINA RESULT:      -6.8      4.431      8.941
REMARK  Name = 
REMARK  6 active torsions:
REMARK  status: ('A' for Active; 'I' for Inactive)
REMARK    1  A    between atoms: C_1  and  N_2
REMARK    2  A    between atoms: C_7  and  S_8
REMARK    3  A    between atoms: S_8  and  C_11
REMARK    4  A    between atoms: C_18  and  O_19
REMARK    5  A    between atoms: O_19  and  C_20
REMARK    6  A    between atoms: C_20  and  C_21
REMARK                            x       y       z     vdW  Elec       q    Type
REMARK                         _______ _______ _______ _____ _____    ______ ____
ROOT
ATOM      1  C   UNL     1      -1.340  15.987  20.199  0.00  0.00    +0.000 C 
ATOM      2  N   UNL     1      -0.218  15.074  20.236  0.00  0.00    +0.000 N 
ATOM      3  C   UNL     1       1.066  15.410  19.886  0.00  0.00    +0.000 A 
ATOM      4  C   UNL     1       1.849  14.273  19.916  0.00  0.00    +0.000 A 
ATOM      5  C   UNL     1       1.032  13.211  20.375  0.00  0.00    +0.000 A 
ATOM      6  C   UNL     1       1.330  11.869  20.667  0.00  0.00    +0.000 A 
ATOM      7  C   UNL     1       0.314  11.043  21.126  0.00  0.00    +0.000 A 
ATOM      8  C   UNL     1      -0.976  11.527  21.271  0.00  0.00    +0.000 A 
ATOM      9  C   UNL     1      -1.306  12.888  21.088  0.00  0.00    +0.000 A 
ATOM     10  C   UNL     1      -0.271  13.723  20.587  0.00  0.00    +0.000 A 
ATOM     11  C   UNL     1       3.307  14.313  19.565  0.00  0.00    +0.000 C 
ATOM     12  C   UNL     1       3.585  14.227  18.078  0.00  0.00    +0.000 C 
ATOM     13  C   UNL     1       3.829  15.691  17.711  0.00  0.00    +0.000 C 
ATOM     14  C   UNL     1       3.080  16.569  18.784  0.00  0.00    +0.000 C 
ATOM     15  C   UNL     1       1.664  16.751  19.552  0.00  0.00    +0.000 C 
ATOM     16  N   UNL     1       3.750  15.700  19.818  0.00  0.00    +0.000 NA
ATOM     17  H   UNL     1       3.491  15.961  20.767  0.00  0.00    +0.000 HD
ENDROOT
BRANCH   7  18
ATOM     18  S   UNL     1       0.666   9.381  21.620  0.00  0.00    +0.000 S 
ATOM     19  O   UNL     1       1.650   9.483  22.682  0.00  0.00    +0.000 OA
ATOM     20  O   UNL     1      -0.597   8.699  21.846  0.00  0.00    +0.000 OA
BRANCH  18  21
ATOM     21  C   UNL     1       1.424   8.580  20.240  0.00  0.00    +0.000 A 
ATOM     22  C   UNL     1       1.390   9.188  18.984  0.00  0.00    +0.000 A 
ATOM     23  C   UNL     1       1.919   8.509  17.891  0.00  0.00    +0.000 A 
ATOM     24  C   UNL     1       2.484   7.243  18.061  0.00  0.00    +0.000 A 
ATOM     25  C   UNL     1       2.540   6.656  19.328  0.00  0.00    +0.000 A 
ATOM     26  C   UNL     1       2.012   7.326  20.427  0.00  0.00    +0.000 A 
ENDBRANCH  18  21
ENDBRANCH   7  18
BRANCH   9  27
ATOM     27  O   UNL     1      -2.560  13.383  21.453  0.00  0.00    +0.000 OA
BRANCH  27  28
ATOM     28  C   UNL     1      -3.619  12.763  20.692  0.00  0.00    +0.000 C 
BRANCH  28  29
ATOM     29  C   UNL     1      -4.975  12.627  21.317  0.00  0.00    +0.000 A 
ATOM     30  C   UNL     1      -6.017  12.096  20.532  0.00  0.00    +0.000 A 
ATOM     31  C   UNL     1      -7.295  11.981  21.057  0.00  0.00    +0.000 A 
ATOM     32  C   UNL     1      -7.498  12.421  22.351  0.00  0.00    +0.000 A 
ATOM     33  N   UNL     1      -6.528  12.955  23.129  0.00  0.00    +0.000 NA
ATOM     34  C   UNL     1      -5.288  13.051  22.593  0.00  0.00    +0.000 A 
ENDBRANCH  28  29
ENDBRANCH  27  28
ENDBRANCH   9  27
TORSDOF 5
ENDMDL
MODEL 7
REMARK VINA RESULT:      -6.7      4.421      9.041
REMARK  Name = 
REMARK  6 active torsions:
REMARK  status: ('A' for Active; 'I' for Inactive)
REMARK    1  A    between atoms: C_1  and  N_2
REMARK    2  A    between atoms: C_7  and  S_8
REMARK    3  A    between atoms: S_8  and  C_11
REMARK    4  A    between atoms: C_18  and  O_19
REMARK    5  A    between atoms: O_19  and  C_20
REMARK    6  A    between atoms: C_20  and  C_21
REMARK                            x       y       z     vdW  Elec       q    Type
REMARK                         _______ _______ _______ _____ _____    ______ ____
ROOT
ATOM      1  C   UNL     1      -1.381  15.982  19.670  0.00  0.00    +0.000 C 
ATOM      2  N   UNL     1      -0.240  15.119  19.889  0.00  0.00    +0.000 N 
ATOM      3  C   UNL     1       1.066  15.501  19.710  0.00  0.00    +0.000 A 
ATOM      4  C   UNL     1       1.880  14.400  19.882  0.00  0.00    +0.000 A 
ATOM      5  C   UNL     1       1.049  13.314  20.255  0.00  0.00    +0.000 A 
ATOM      6  C   UNL     1       1.356  11.994  20.625  0.00  0.00    +0.000 A 
ATOM      7  C   UNL     1       0.318  11.137  20.963  0.00  0.00    +0.000 A 
ATOM      8  C   UNL     1      -0.997  11.568  20.914  0.00  0.00    +0.000 A 
ATOM      9  C   UNL     1      -1.350  12.909  20.646  0.00  0.00    +0.000 A 
ATOM     10  C   UNL     1      -0.289  13.776  20.269  0.00  0.00    +0.000 A 
ATOM     11  C   UNL     1       3.370  14.493  19.735  0.00  0.00    +0.000 C 
ATOM     12  C   UNL     1       3.857  14.383  18.304  0.00  0.00    +0.000 C 
ATOM     13  C   UNL     1       4.092  15.847  17.931  0.00  0.00    +0.000 C 
ATOM     14  C   UNL     1       3.167  16.718  18.864  0.00  0.00    +0.000 C 
ATOM     15  C   UNL     1       1.652  16.857  19.423  0.00  0.00    +0.000 C 
ATOM     16  N   UNL     1       3.720  15.904  20.005  0.00  0.00    +0.000 NA
ATOM     17  H   UNL     1       3.321  16.175  20.902  0.00  0.00    +0.000 HD
ENDROOT
BRANCH   7  18
ATOM     18  S   UNL     1       0.663   9.503  21.549  0.00  0.00    +0.000 S 
ATOM     19  O   UNL     1       1.688   9.655  22.565  0.00  0.00    +0.000 OA
ATOM     20  O   UNL     1      -0.601   8.861  21.866  0.00  0.00    +0.000 OA
BRANCH  18  21
ATOM     21  C   UNL     1       1.355   8.602  20.197  0.00  0.00    +0.000 A 
ATOM     22  C   UNL     1       1.922   7.347  20.422  0.00  0.00    +0.000 A 
ATOM     23  C   UNL     1       2.536   6.683  19.364  0.00  0.00    +0.000 A 
ATOM     24  C   UNL     1       2.570   7.271  18.097  0.00  0.00    +0.000 A 
ATOM     25  C   UNL     1       1.973   8.515  17.876  0.00  0.00    +0.000 A 
ATOM     26  C   UNL     1       1.358   9.186  18.928  0.00  0.00    +0.000 A 
ENDBRANCH  18  21
ENDBRANCH   7  18
BRANCH   9  27
ATOM     27  O   UNL     1      -2.662  13.359  20.820  0.00  0.00    +0.000 OA
BRANCH  27  28
ATOM     28  C   UNL     1      -3.081  13.256  22.198  0.00  0.00    +0.000 C 
BRANCH  28  29
ATOM     29  C   UNL     1      -4.512  12.920  22.495  0.00  0.00    +0.000 A 
ATOM     30  C   UNL     1      -5.404  12.796  21.412  0.00  0.00    +0.000 A 
ATOM     31  C   UNL     1      -6.743  12.519  21.641  0.00  0.00    +0.000 A 
ATOM     32  C   UNL     1      -7.155  12.391  22.953  0.00  0.00    +0.000 A 
ATOM     33  N   UNL     1      -6.334  12.524  24.021  0.00  0.00    +0.000 NA
ATOM     34  C   UNL     1      -5.030  12.791  23.769  0.00  0.00    +0.000 A 
ENDBRANCH  28  29
ENDBRANCH  27  28
ENDBRANCH   9  27
TORSDOF 5
ENDMDL
MODEL 8
REMARK VINA RESULT:      -6.7      6.813     11.423
REMARK  Name = 
REMARK  6 active torsions:
REMARK  status: ('A' for Active; 'I' for Inactive)
REMARK    1  A    between atoms: C_1  and  N_2
REMARK    2  A    between atoms: C_7  and  S_8
REMARK    3  A    between atoms: S_8  and  C_11
REMARK    4  A    between atoms: C_18  and  O_19
REMARK    5  A    between atoms: O_19  and  C_20
REMARK    6  A    between atoms: C_20  and  C_21
REMARK                            x       y       z     vdW  Elec       q    Type
REMARK                         _______ _______ _______ _____ _____    ______ ____
ROOT
ATOM      1  C   UNL     1      -3.384  10.916  17.592  0.00  0.00    +0.000 C 
ATOM      2  N   UNL     1      -2.867  11.422  18.846  0.00  0.00    +0.000 N 
ATOM      3  C   UNL     1      -1.636  11.106  19.361  0.00  0.00    +0.000 A 
ATOM      4  C   UNL     1      -1.524  11.657  20.622  0.00  0.00    +0.000 A 
ATOM      5  C   UNL     1      -2.703  12.406  20.861  0.00  0.00    +0.000 A 
ATOM      6  C   UNL     1      -3.081  13.226  21.937  0.00  0.00    +0.000 A 
ATOM      7  C   UNL     1      -4.314  13.862  21.892  0.00  0.00    +0.000 A 
ATOM      8  C   UNL     1      -5.167  13.671  20.817  0.00  0.00    +0.000 A 
ATOM      9  C   UNL     1      -4.794  12.939  19.669  0.00  0.00    +0.000 A 
ATOM     10  C   UNL     1      -3.545  12.264  19.731  0.00  0.00    +0.000 A 
ATOM     11  C   UNL     1      -0.290  11.473  21.454  0.00  0.00    +0.000 C 
ATOM     12  C   UNL     1      -0.261  10.175  22.236  0.00  0.00    +0.000 C 
ATOM     13  C   UNL     1       0.635   9.295  21.364  0.00  0.00    +0.000 C 
ATOM     14  C   UNL     1       0.548   9.857  19.894  0.00  0.00    +0.000 C 
ATOM     15  C   UNL     1      -0.493  10.341  18.749  0.00  0.00    +0.000 C 
ATOM     16  N   UNL     1       0.810  11.211  20.502  0.00  0.00    +0.000 NA
ATOM     17  H   UNL     1       0.823  11.952  19.803  0.00  0.00    +0.000 HD
ENDROOT
BRANCH   7  18
ATOM     18  S   UNL     1      -4.782  14.997  23.167  0.00  0.00    +0.000 S 
ATOM     19  O   UNL     1      -5.393  16.125  22.487  0.00  0.00    +0.000 OA
ATOM     20  O   UNL     1      -5.516  14.261  24.181  0.00  0.00    +0.000 OA
BRANCH  18  21
ATOM     21  C   UNL     1      -3.294  15.556  23.935  0.00  0.00    +0.000 A 
ATOM     22  C   UNL     1      -2.944  15.072  25.197  0.00  0.00    +0.000 A 
ATOM     23  C   UNL     1      -1.812  15.581  25.826  0.00  0.00    +0.000 A 
ATOM     24  C   UNL     1      -1.039  16.556  25.190  0.00  0.00    +0.000 A 
ATOM     25  C   UNL     1      -1.381  17.012  23.915  0.00  0.00    +0.000 A 
ATOM     26  C   UNL     1      -2.511  16.510  23.278  0.00  0.00    +0.000 A 
ENDBRANCH  18  21
ENDBRANCH   7  18
BRANCH   9  27
ATOM     27  O   UNL     1      -5.586  12.950  18.518  0.00  0.00    +0.000 OA
BRANCH  27  28
ATOM     28  C   UNL     1      -6.942  12.542  18.801  0.00  0.00    +0.000 C 
BRANCH  28  29
ATOM     29  C   UNL     1      -7.178  11.200  19.425  0.00  0.00    +0.000 A 
ATOM     30  C   UNL     1      -7.711  11.157  20.728  0.00  0.00    +0.000 A 
ATOM     31  C   UNL     1      -7.916   9.939  21.357  0.00  0.00    +0.000 A 
ATOM     32  C   UNL     1      -7.563   8.795  20.668  0.00  0.00    +0.000 A 
ATOM     33  N   UNL     1      -7.030   8.794  19.424  0.00  0.00    +0.000 NA
ATOM     34  C   UNL     1      -6.845   9.998  18.830  0.00  0.00    +0.000 A 
ENDBRANCH  28  29
ENDBRANCH  27  28
ENDBRANCH   9  27
TORSDOF 5
ENDMDL
MODEL 9
REMARK VINA RESULT:      -6.6      4.357      9.263
REMARK  Name = 
REMARK  6 active torsions:
REMARK  status: ('A' for Active; 'I' for Inactive)
REMARK    1  A    between atoms: C_1  and  N_2
REMARK    2  A    between atoms: C_7  and  S_8
REMARK    3  A    between atoms: S_8  and  C_11
REMARK    4  A    between atoms: C_18  and  O_19
REMARK    5  A    between atoms: O_19  and  C_20
REMARK    6  A    between atoms: C_20  and  C_21
REMARK                            x       y       z     vdW  Elec       q    Type
REMARK                         _______ _______ _______ _____ _____    ______ ____
ROOT
ATOM      1  C   UNL     1      -1.708  15.948  20.491  0.00  0.00    +0.000 C 
ATOM      2  N   UNL     1      -0.546  15.086  20.449  0.00  0.00    +0.000 N 
ATOM      3  C   UNL     1       0.699  15.483  20.032  0.00  0.00    +0.000 A 
ATOM      4  C   UNL     1       1.531  14.381  19.998  0.00  0.00    +0.000 A 
ATOM      5  C   UNL     1       0.789  13.277  20.486  0.00  0.00    +0.000 A 
ATOM      6  C   UNL     1       1.161  11.946  20.738  0.00  0.00    +0.000 A 
ATOM      7  C   UNL     1       0.209  11.070  21.241  0.00  0.00    +0.000 A 
ATOM      8  C   UNL     1      -1.090  11.494  21.467  0.00  0.00    +0.000 A 
ATOM      9  C   UNL     1      -1.488  12.841  21.325  0.00  0.00    +0.000 A 
ATOM     10  C   UNL     1      -0.521  13.729  20.780  0.00  0.00    +0.000 A 
ATOM     11  C   UNL     1       2.963  14.490  19.565  0.00  0.00    +0.000 C 
ATOM     12  C   UNL     1       3.159  14.437  18.064  0.00  0.00    +0.000 C 
ATOM     13  C   UNL     1       3.318  15.915  17.708  0.00  0.00    +0.000 C 
ATOM     14  C   UNL     1       2.594  16.744  18.836  0.00  0.00    +0.000 C 
ATOM     15  C   UNL     1       1.218  16.852  19.686  0.00  0.00    +0.000 C 
ATOM     16  N   UNL     1       3.360  15.891  19.815  0.00  0.00    +0.000 NA
ATOM     17  H   UNL     1       3.145  16.127  20.783  0.00  0.00    +0.000 HD
ENDROOT
BRANCH   7  18
ATOM     18  S   UNL     1       0.661   9.417  21.685  0.00  0.00    +0.000 S 
ATOM     19  O   UNL     1       1.728   9.547  22.661  0.00  0.00    +0.000 OA
ATOM     20  O   UNL     1      -0.553   8.689  22.012  0.00  0.00    +0.000 OA
BRANCH  18  21
ATOM     21  C   UNL     1       1.326   8.654  20.239  0.00  0.00    +0.000 A 
ATOM     22  C   UNL     1       1.958   7.413  20.340  0.00  0.00    +0.000 A 
ATOM     23  C   UNL     1       2.549   6.861  19.208  0.00  0.00    +0.000 A 
ATOM     24  C   UNL     1       2.496   7.544  17.990  0.00  0.00    +0.000 A 
ATOM     25  C   UNL     1       1.835   8.771  17.892  0.00  0.00    +0.000 A 
ATOM     26  C   UNL     1       1.242   9.331  19.019  0.00  0.00    +0.000 A 
ENDBRANCH  18  21
ENDBRANCH   7  18
BRANCH   9  27
ATOM     27  O   UNL     1      -2.739  13.275  21.770  0.00  0.00    +0.000 OA
BRANCH  27  28
ATOM     28  C   UNL     1      -2.840  13.223  23.209  0.00  0.00    +0.000 C 
BRANCH  28  29
ATOM     29  C   UNL     1      -2.679  14.491  23.992  0.00  0.00    +0.000 A 
ATOM     30  C   UNL     1      -1.401  14.803  24.496  0.00  0.00    +0.000 A 
ATOM     31  C   UNL     1      -1.212  15.949  25.253  0.00  0.00    +0.000 A 
ATOM     32  C   UNL     1      -2.315  16.742  25.501  0.00  0.00    +0.000 A 
ATOM     33  N   UNL     1      -3.562  16.466  25.053  0.00  0.00    +0.000 NA
ATOM     34  C   UNL     1      -3.718  15.343  24.312  0.00  0.00    +0.000 A 
ENDBRANCH  28  29
ENDBRANCH  27  28
ENDBRANCH   9  27
TORSDOF 5
ENDMDL
