MODEL 1
REMARK VINA RESULT:      -7.4      0.000      0.000
REMARK  Name = 
REMARK  3 active torsions:
REMARK  status: ('A' for Active; 'I' for Inactive)
REMARK    1  A    between atoms: C_2  and  O_3
REMARK    2  A    between atoms: C_2  and  C_14
REMARK    3  A    between atoms: O_3  and  C_4
REMARK                            x       y       z     vdW  Elec       q    Type
REMARK                         _______ _______ _______ _____ _____    ______ ____
ROOT
ATOM      1  O   UNL     1       4.398   3.547  17.682  0.00  0.00    +0.000 OA
ENDROOT
BRANCH   1   2
ATOM      2  C   UNL     1       5.348   3.977  16.719  0.00  0.00    +0.000 A 
ATOM      3  C   UNL     1       6.313   4.968  16.986  0.00  0.00    +0.000 A 
ATOM      4  C   UNL     1       7.161   5.417  15.968  0.00  0.00    +0.000 A 
ATOM      5  C   UNL     1       6.993   4.862  14.716  0.00  0.00    +0.000 A 
ATOM      6  C   UNL     1       6.047   3.894  14.440  0.00  0.00    +0.000 A 
ATOM      7  C   UNL     1       5.204   3.433  15.435  0.00  0.00    +0.000 A 
ATOM      8  O   UNL     1       6.009   3.464  13.138  0.00  0.00    +0.000 OA
ATOM      9  C   UNL     1       7.025   4.231  12.439  0.00  0.00    +0.000 C 
ATOM     10  C   UNL     1       7.659   5.129  13.468  0.00  0.00    +0.000 C 
ATOM     11  O   UNL     1       8.549   5.943  13.309  0.00  0.00    +0.000 OA
ENDBRANCH   1   2
BRANCH   1  13
ATOM     12  O   UNL     1       2.239   3.219  16.855  0.00  0.00    +0.000 OA
ATOM     13  C   UNL     1       3.043   3.820  17.553  0.00  0.00    +0.000 C 
BRANCH  13  14
ATOM     14  C   UNL     1       2.646   4.975  18.413  0.00  0.00    +0.000 A 
ATOM     15  C   UNL     1       2.119   4.690  19.684  0.00  0.00    +0.000 A 
ATOM     16  C   UNL     1       1.755   5.723  20.556  0.00  0.00    +0.000 A 
ATOM     17  C   UNL     1       1.916   7.047  20.159  0.00  0.00    +0.000 A 
ATOM     18 CL   UNL     1       1.489   8.317  21.239  0.00  0.00    +0.000 Cl
ATOM     19  C   UNL     1       2.425   7.347  18.897  0.00  0.00    +0.000 A 
ATOM     20  C   UNL     1       2.791   6.313  18.022  0.00  0.00    +0.000 A 
ENDBRANCH  13  14
ENDBRANCH   1  13
TORSDOF 3
ENDMDL
MODEL 2
REMARK VINA RESULT:      -7.3      3.429      6.843
REMARK  Name = 
REMARK  3 active torsions:
REMARK  status: ('A' for Active; 'I' for Inactive)
REMARK    1  A    between atoms: C_2  and  O_3
REMARK    2  A    between atoms: C_2  and  C_14
REMARK    3  A    between atoms: O_3  and  C_4
REMARK                            x       y       z     vdW  Elec       q    Type
REMARK                         _______ _______ _______ _____ _____    ______ ____
ROOT
ATOM      1  O   UNL     1       3.459   4.411  18.331  0.00  0.00    +0.000 OA
ENDROOT
BRANCH   1   2
ATOM      2  C   UNL     1       2.943   5.648  18.803  0.00  0.00    +0.000 A 
ATOM      3  C   UNL     1       2.388   5.804  20.088  0.00  0.00    +0.000 A 
ATOM      4  C   UNL     1       1.811   7.022  20.462  0.00  0.00    +0.000 A 
ATOM      5  C   UNL     1       1.801   8.031  19.520  0.00  0.00    +0.000 A 
ATOM      6  C   UNL     1       2.337   7.889  18.255  0.00  0.00    +0.000 A 
ATOM      7  C   UNL     1       2.918   6.694  17.870  0.00  0.00    +0.000 A 
ATOM      8  O   UNL     1       2.228   8.989  17.444  0.00  0.00    +0.000 OA
ATOM      9  C   UNL     1       1.526   9.989  18.228  0.00  0.00    +0.000 C 
ATOM     10  C   UNL     1       1.257   9.363  19.570  0.00  0.00    +0.000 C 
ATOM     11  O   UNL     1       0.683   9.850  20.526  0.00  0.00    +0.000 OA
ENDBRANCH   1   2
BRANCH   1  13
ATOM     12  O   UNL     1       5.336   3.624  19.475  0.00  0.00    +0.000 OA
ATOM     13  C   UNL     1       4.798   4.070  18.472  0.00  0.00    +0.000 C 
BRANCH  13  14
ATOM     14  C   UNL     1       5.545   4.302  17.200  0.00  0.00    +0.000 A 
ATOM     15  C   UNL     1       4.852   4.110  15.994  0.00  0.00    +0.000 A 
ATOM     16  C   UNL     1       5.481   4.339  14.763  0.00  0.00    +0.000 A 
ATOM     17  C   UNL     1       6.807   4.761  14.736  0.00  0.00    +0.000 A 
ATOM     18 CL   UNL     1       7.573   5.063  13.225  0.00  0.00    +0.000 Cl
ATOM     19  C   UNL     1       7.512   4.943  15.924  0.00  0.00    +0.000 A 
ATOM     20  C   UNL     1       6.884   4.715  17.157  0.00  0.00    +0.000 A 
ENDBRANCH  13  14
ENDBRANCH   1  13
TORSDOF 3
ENDMDL
MODEL 3
REMARK VINA RESULT:      -7.3      1.765      2.295
REMARK  Name = 
REMARK  3 active torsions:
REMARK  status: ('A' for Active; 'I' for Inactive)
REMARK    1  A    between atoms: C_2  and  O_3
REMARK    2  A    between atoms: C_2  and  C_14
REMARK    3  A    between atoms: O_3  and  C_4
REMARK                            x       y       z     vdW  Elec       q    Type
REMARK                         _______ _______ _______ _____ _____    ______ ____
ROOT
ATOM      1  O   UNL     1       4.453   5.615  19.553  0.00  0.00    +0.000 OA
ENDROOT
BRANCH   1   2
ATOM      2  C   UNL     1       5.257   5.489  18.389  0.00  0.00    +0.000 A 
ATOM      3  C   UNL     1       6.457   6.203  18.207  0.00  0.00    +0.000 A 
ATOM      4  C   UNL     1       7.157   6.106  17.000  0.00  0.00    +0.000 A 
ATOM      5  C   UNL     1       6.610   5.308  16.015  0.00  0.00    +0.000 A 
ATOM      6  C   UNL     1       5.431   4.608  16.179  0.00  0.00    +0.000 A 
ATOM      7  C   UNL     1       4.729   4.684  17.369  0.00  0.00    +0.000 A 
ATOM      8  O   UNL     1       5.027   3.874  15.093  0.00  0.00    +0.000 OA
ATOM      9  C   UNL     1       6.026   4.110  14.065  0.00  0.00    +0.000 C 
ATOM     10  C   UNL     1       7.047   5.034  14.672  0.00  0.00    +0.000 C 
ATOM     11  O   UNL     1       8.049   5.493  14.153  0.00  0.00    +0.000 OA
ENDBRANCH   1   2
BRANCH   1  13
ATOM     12  O   UNL     1       2.395   4.516  19.645  0.00  0.00    +0.000 OA
ATOM     13  C   UNL     1       3.068   5.527  19.505  0.00  0.00    +0.000 C 
BRANCH  13  14
ATOM     14  C   UNL     1       2.454   6.867  19.267  0.00  0.00    +0.000 A 
ATOM     15  C   UNL     1       1.863   7.516  20.364  0.00  0.00    +0.000 A 
ATOM     16  C   UNL     1       1.296   8.789  20.222  0.00  0.00    +0.000 A 
ATOM     17  C   UNL     1       1.319   9.417  18.981  0.00  0.00    +0.000 A 
ATOM     18 CL   UNL     1       0.641  10.990  18.811  0.00  0.00    +0.000 Cl
ATOM     19  C   UNL     1       1.890   8.782  17.880  0.00  0.00    +0.000 A 
ATOM     20  C   UNL     1       2.459   7.507  18.020  0.00  0.00    +0.000 A 
ENDBRANCH  13  14
ENDBRANCH   1  13
TORSDOF 3
ENDMDL
MODEL 4
REMARK VINA RESULT:      -7.2      2.124      3.172
REMARK  Name = 
REMARK  3 active torsions:
REMARK  status: ('A' for Active; 'I' for Inactive)
REMARK    1  A    between atoms: C_2  and  O_3
REMARK    2  A    between atoms: C_2  and  C_14
REMARK    3  A    between atoms: O_3  and  C_4
REMARK                            x       y       z     vdW  Elec       q    Type
REMARK                         _______ _______ _______ _____ _____    ______ ____
ROOT
ATOM      1  O   UNL     1       5.925   6.076  17.994  0.00  0.00    +0.000 OA
ENDROOT
BRANCH   1   2
ATOM      2  C   UNL     1       5.898   5.496  16.698  0.00  0.00    +0.000 A 
ATOM      3  C   UNL     1       4.962   4.516  16.317  0.00  0.00    +0.000 A 
ATOM      4  C   UNL     1       5.044   3.915  15.057  0.00  0.00    +0.000 A 
ATOM      5  C   UNL     1       6.080   4.312  14.235  0.00  0.00    +0.000 A 
ATOM      6  C   UNL     1       7.008   5.268  14.599  0.00  0.00    +0.000 A 
ATOM      7  C   UNL     1       6.938   5.879  15.838  0.00  0.00    +0.000 A 
ATOM      8  O   UNL     1       7.977   5.531  13.664  0.00  0.00    +0.000 OA
ATOM      9  C   UNL     1       7.696   4.649  12.545  0.00  0.00    +0.000 C 
ATOM     10  C   UNL     1       6.465   3.868  12.921  0.00  0.00    +0.000 C 
ATOM     11  O   UNL     1       5.891   3.012  12.275  0.00  0.00    +0.000 OA
ENDBRANCH   1   2
BRANCH   1  13
ATOM     12  O   UNL     1       7.056   5.136  19.807  0.00  0.00    +0.000 OA
ATOM     13  C   UNL     1       6.044   5.306  19.143  0.00  0.00    +0.000 C 
BRANCH  13  14
ATOM     14  C   UNL     1       4.735   4.687  19.510  0.00  0.00    +0.000 A 
ATOM     15  C   UNL     1       3.643   5.547  19.710  0.00  0.00    +0.000 A 
ATOM     16  C   UNL     1       2.377   5.036  20.027  0.00  0.00    +0.000 A 
ATOM     17  C   UNL     1       2.202   3.660  20.144  0.00  0.00    +0.000 A 
ATOM     18 CL   UNL     1       0.643   3.030  20.511  0.00  0.00    +0.000 Cl
ATOM     19  C   UNL     1       3.278   2.794  19.961  0.00  0.00    +0.000 A 
ATOM     20  C   UNL     1       4.546   3.305  19.644  0.00  0.00    +0.000 A 
ENDBRANCH  13  14
ENDBRANCH   1  13
TORSDOF 3
ENDMDL
MODEL 5
REMARK VINA RESULT:      -7.1      1.908      2.885
REMARK  Name = 
REMARK  3 active torsions:
REMARK  status: ('A' for Active; 'I' for Inactive)
REMARK    1  A    between atoms: C_2  and  O_3
REMARK    2  A    between atoms: C_2  and  C_14
REMARK    3  A    between atoms: O_3  and  C_4
REMARK                            x       y       z     vdW  Elec       q    Type
REMARK                         _______ _______ _______ _____ _____    ______ ____
ROOT
ATOM      1  O   UNL     1       4.271   5.697  19.447  0.00  0.00    +0.000 OA
ENDROOT
BRANCH   1   2
ATOM      2  C   UNL     1       4.632   5.297  18.133  0.00  0.00    +0.000 A 
ATOM      3  C   UNL     1       3.948   4.289  17.425  0.00  0.00    +0.000 A 
ATOM      4  C   UNL     1       4.407   3.875  16.171  0.00  0.00    +0.000 A 
ATOM      5  C   UNL     1       5.549   4.478  15.686  0.00  0.00    +0.000 A 
ATOM      6  C   UNL     1       6.233   5.462  16.373  0.00  0.00    +0.000 A 
ATOM      7  C   UNL     1       5.789   5.891  17.611  0.00  0.00    +0.000 A 
ATOM      8  O   UNL     1       7.356   5.942  15.748  0.00  0.00    +0.000 OA
ATOM      9  C   UNL     1       7.467   5.196  14.508  0.00  0.00    +0.000 C 
ATOM     10  C   UNL     1       6.293   4.255  14.474  0.00  0.00    +0.000 C 
ATOM     11  O   UNL     1       6.006   3.441  13.616  0.00  0.00    +0.000 OA
ENDBRANCH   1   2
BRANCH   1  13
ATOM     12  O   UNL     1       2.335   4.869  20.457  0.00  0.00    +0.000 OA
ATOM     13  C   UNL     1       2.948   5.746  19.865  0.00  0.00    +0.000 C 
BRANCH  13  14
ATOM     14  C   UNL     1       2.325   7.056  19.512  0.00  0.00    +0.000 A 
ATOM     15  C   UNL     1       1.673   7.764  20.535  0.00  0.00    +0.000 A 
ATOM     16  C   UNL     1       1.092   9.014  20.285  0.00  0.00    +0.000 A 
ATOM     17  C   UNL     1       1.162   9.560  19.006  0.00  0.00    +0.000 A 
ATOM     18 CL   UNL     1       0.468  11.105  18.703  0.00  0.00    +0.000 Cl
ATOM     19  C   UNL     1       1.794   8.865  17.977  0.00  0.00    +0.000 A 
ATOM     20  C   UNL     1       2.377   7.613  18.227  0.00  0.00    +0.000 A 
ENDBRANCH  13  14
ENDBRANCH   1  13
TORSDOF 3
ENDMDL
MODEL 6
REMARK VINA RESULT:      -7.1      2.140      3.103
REMARK  Name = 
REMARK  3 active torsions:
REMARK  status: ('A' for Active; 'I' for Inactive)
REMARK    1  A    between atoms: C_2  and  O_3
REMARK    2  A    between atoms: C_2  and  C_14
REMARK    3  A    between atoms: O_3  and  C_4
REMARK                            x       y       z     vdW  Elec       q    Type
REMARK                         _______ _______ _______ _____ _____    ______ ____
ROOT
ATOM      1  O   UNL     1       6.069   5.956  17.806  0.00  0.00    +0.000 OA
ENDROOT
BRANCH   1   2
ATOM      2  C   UNL     1       5.970   5.362  16.520  0.00  0.00    +0.000 A 
ATOM      3  C   UNL     1       5.031   4.359  16.210  0.00  0.00    +0.000 A 
ATOM      4  C   UNL     1       5.045   3.746  14.953  0.00  0.00    +0.000 A 
ATOM      5  C   UNL     1       6.016   4.156  14.061  0.00  0.00    +0.000 A 
ATOM      6  C   UNL     1       6.946   5.133  14.355  0.00  0.00    +0.000 A 
ATOM      7  C   UNL     1       6.943   5.756  15.590  0.00  0.00    +0.000 A 
ATOM      8  O   UNL     1       7.847   5.406  13.357  0.00  0.00    +0.000 OA
ATOM      9  C   UNL     1       7.512   4.507  12.267  0.00  0.00    +0.000 C 
ATOM     10  C   UNL     1       6.325   3.706  12.730  0.00  0.00    +0.000 C 
ATOM     11  O   UNL     1       5.728   2.831  12.130  0.00  0.00    +0.000 OA
ENDBRANCH   1   2
BRANCH   1  13
ATOM     12  O   UNL     1       7.204   4.947  19.580  0.00  0.00    +0.000 OA
ATOM     13  C   UNL     1       6.178   5.195  18.962  0.00  0.00    +0.000 C 
BRANCH  13  14
ATOM     14  C   UNL     1       4.841   4.698  19.404  0.00  0.00    +0.000 A 
ATOM     15  C   UNL     1       4.691   3.314  19.596  0.00  0.00    +0.000 A 
ATOM     16  C   UNL     1       3.475   2.780  20.039  0.00  0.00    +0.000 A 
ATOM     17  C   UNL     1       2.403   3.630  20.292  0.00  0.00    +0.000 A 
ATOM     18 CL   UNL     1       0.914   2.977  20.858  0.00  0.00    +0.000 Cl
ATOM     19  C   UNL     1       2.530   5.004  20.095  0.00  0.00    +0.000 A 
ATOM     20  C   UNL     1       3.749   5.540  19.651  0.00  0.00    +0.000 A 
ENDBRANCH  13  14
ENDBRANCH   1  13
TORSDOF 3
ENDMDL
MODEL 7
REMARK VINA RESULT:      -7.1      1.320      1.910
REMARK  Name = 
REMARK  3 active torsions:
REMARK  status: ('A' for Active; 'I' for Inactive)
REMARK    1  A    between atoms: C_2  and  O_3
REMARK    2  A    between atoms: C_2  and  C_14
REMARK    3  A    between atoms: O_3  and  C_4
REMARK                            x       y       z     vdW  Elec       q    Type
REMARK                         _______ _______ _______ _____ _____    ______ ____
ROOT
ATOM      1  O   UNL     1       4.339   4.882  18.951  0.00  0.00    +0.000 OA
ENDROOT
BRANCH   1   2
ATOM      2  C   UNL     1       5.222   4.958  17.842  0.00  0.00    +0.000 A 
ATOM      3  C   UNL     1       6.338   5.817  17.809  0.00  0.00    +0.000 A 
ATOM      4  C   UNL     1       7.117   5.916  16.652  0.00  0.00    +0.000 A 
ATOM      5  C   UNL     1       6.730   5.158  15.564  0.00  0.00    +0.000 A 
ATOM      6  C   UNL     1       5.635   4.317  15.581  0.00  0.00    +0.000 A 
ATOM      7  C   UNL     1       4.858   4.200  16.719  0.00  0.00    +0.000 A 
ATOM      8  O   UNL     1       5.389   3.649  14.409  0.00  0.00    +0.000 OA
ATOM      9  C   UNL     1       6.414   4.093  13.480  0.00  0.00    +0.000 C 
ATOM     10  C   UNL     1       7.278   5.065  14.237  0.00  0.00    +0.000 C 
ATOM     11  O   UNL     1       8.248   5.681  13.834  0.00  0.00    +0.000 OA
ENDBRANCH   1   2
BRANCH   1  13
ATOM     12  O   UNL     1       2.197   4.049  18.536  0.00  0.00    +0.000 OA
ATOM     13  C   UNL     1       2.961   4.966  18.803  0.00  0.00    +0.000 C 
BRANCH  13  14
ATOM     14  C   UNL     1       2.483   6.362  19.030  0.00  0.00    +0.000 A 
ATOM     15  C   UNL     1       2.481   7.237  17.931  0.00  0.00    +0.000 A 
ATOM     16  C   UNL     1       2.017   8.552  18.063  0.00  0.00    +0.000 A 
ATOM     17  C   UNL     1       1.554   8.997  19.297  0.00  0.00    +0.000 A 
ATOM     18 CL   UNL     1       0.964  10.605  19.455  0.00  0.00    +0.000 Cl
ATOM     19  C   UNL     1       1.561   8.146  20.401  0.00  0.00    +0.000 A 
ATOM     20  C   UNL     1       2.025   6.828  20.270  0.00  0.00    +0.000 A 
ENDBRANCH  13  14
ENDBRANCH   1  13
TORSDOF 3
ENDMDL
MODEL 8
REMARK VINA RESULT:      -7.0      1.910      3.009
REMARK  Name = 
REMARK  3 active torsions:
REMARK  status: ('A' for Active; 'I' for Inactive)
REMARK    1  A    between atoms: C_2  and  O_3
REMARK    2  A    between atoms: C_2  and  C_14
REMARK    3  A    between atoms: O_3  and  C_4
REMARK                            x       y       z     vdW  Elec       q    Type
REMARK                         _______ _______ _______ _____ _____    ______ ____
ROOT
ATOM      1  O   UNL     1       4.248   5.774  19.332  0.00  0.00    +0.000 OA
ENDROOT
BRANCH   1   2
ATOM      2  C   UNL     1       4.614   5.351  18.027  0.00  0.00    +0.000 A 
ATOM      3  C   UNL     1       3.934   4.330  17.334  0.00  0.00    +0.000 A 
ATOM      4  C   UNL     1       4.398   3.893  16.089  0.00  0.00    +0.000 A 
ATOM      5  C   UNL     1       5.542   4.490  15.598  0.00  0.00    +0.000 A 
ATOM      6  C   UNL     1       6.221   5.487  16.269  0.00  0.00    +0.000 A 
ATOM      7  C   UNL     1       5.772   5.938  17.498  0.00  0.00    +0.000 A 
ATOM      8  O   UNL     1       7.346   5.958  15.641  0.00  0.00    +0.000 OA
ATOM      9  C   UNL     1       7.463   5.190  14.414  0.00  0.00    +0.000 C 
ATOM     10  C   UNL     1       6.290   4.246  14.393  0.00  0.00    +0.000 C 
ATOM     11  O   UNL     1       6.008   3.416  13.548  0.00  0.00    +0.000 OA
ENDBRANCH   1   2
BRANCH   1  13
ATOM     12  O   UNL     1       2.321   4.844  20.267  0.00  0.00    +0.000 OA
ATOM     13  C   UNL     1       2.928   5.778  19.762  0.00  0.00    +0.000 C 
BRANCH  13  14
ATOM     14  C   UNL     1       2.299   7.115  19.546  0.00  0.00    +0.000 A 
ATOM     15  C   UNL     1       2.322   7.643  18.245  0.00  0.00    +0.000 A 
ATOM     16  C   UNL     1       1.724   8.878  17.962  0.00  0.00    +0.000 A 
ATOM     17  C   UNL     1       1.102   9.589  18.983  0.00  0.00    +0.000 A 
ATOM     18 CL   UNL     1       0.348  11.096  18.632  0.00  0.00    +0.000 Cl
ATOM     19  C   UNL     1       1.081   9.086  20.282  0.00  0.00    +0.000 A 
ATOM     20  C   UNL     1       1.679   7.849  20.567  0.00  0.00    +0.000 A 
ENDBRANCH  13  14
ENDBRANCH   1  13
TORSDOF 3
ENDMDL
MODEL 9
REMARK VINA RESULT:      -7.0      3.531      6.990
REMARK  Name = 
REMARK  3 active torsions:
REMARK  status: ('A' for Active; 'I' for Inactive)
REMARK    1  A    between atoms: C_2  and  O_3
REMARK    2  A    between atoms: C_2  and  C_14
REMARK    3  A    between atoms: O_3  and  C_4
REMARK                            x       y       z     vdW  Elec       q    Type
REMARK                         _______ _______ _______ _____ _____    ______ ____
ROOT
ATOM      1  O   UNL     1       4.050   4.716  18.687  0.00  0.00    +0.000 OA
ENDROOT
BRANCH   1   2
ATOM      2  C   UNL     1       3.319   5.884  19.030  0.00  0.00    +0.000 A 
ATOM      3  C   UNL     1       2.589   6.005  20.229  0.00  0.00    +0.000 A 
ATOM      4  C   UNL     1       1.813   7.144  20.468  0.00  0.00    +0.000 A 
ATOM      5  C   UNL     1       1.787   8.109  19.482  0.00  0.00    +0.000 A 
ATOM      6  C   UNL     1       2.492   7.999  18.300  0.00  0.00    +0.000 A 
ATOM      7  C   UNL     1       3.272   6.884  18.049  0.00  0.00    +0.000 A 
ATOM      8  O   UNL     1       2.340   9.045  17.426  0.00  0.00    +0.000 OA
ATOM      9  C   UNL     1       1.417   9.965  18.068  0.00  0.00    +0.000 C 
ATOM     10  C   UNL     1       1.068   9.353  19.398  0.00  0.00    +0.000 C 
ATOM     11  O   UNL     1       0.318   9.788  20.252  0.00  0.00    +0.000 OA
ENDBRANCH   1   2
BRANCH   1  13
ATOM     12  O   UNL     1       6.291   4.846  19.331  0.00  0.00    +0.000 OA
ATOM     13  C   UNL     1       5.423   4.742  18.477  0.00  0.00    +0.000 C 
BRANCH  13  14
ATOM     14  C   UNL     1       5.744   4.607  17.025  0.00  0.00    +0.000 A 
ATOM     15  C   UNL     1       6.985   5.096  16.584  0.00  0.00    +0.000 A 
ATOM     16  C   UNL     1       7.367   4.975  15.242  0.00  0.00    +0.000 A 
ATOM     17  C   UNL     1       6.506   4.364  14.335  0.00  0.00    +0.000 A 
ATOM     18 CL   UNL     1       6.983   4.196  12.690  0.00  0.00    +0.000 Cl
ATOM     19  C   UNL     1       5.266   3.885  14.753  0.00  0.00    +0.000 A 
ATOM     20  C   UNL     1       4.882   4.005  16.097  0.00  0.00    +0.000 A 
ENDBRANCH  13  14
ENDBRANCH   1  13
TORSDOF 3
ENDMDL
