MODEL 1
REMARK VINA RESULT:      -7.1      0.000      0.000
REMARK  Name = 
REMARK  9 active torsions:
REMARK  status: ('A' for Active; 'I' for Inactive)
REMARK    1  A    between atoms: C_1  and  C_2
REMARK    2  A    between atoms: C_4  and  O_5
REMARK    3  A    between atoms: O_5  and  C_6
REMARK    4  A    between atoms: C_6  and  C_7
REMARK    5  A    between atoms: C_7  and  O_9
REMARK    6  A    between atoms: O_9  and  C_10
REMARK    7  A    between atoms: C_10  and  C_11
REMARK    8  A    between atoms: C_10  and  C_12
REMARK    9  A    between atoms: C_10  and  C_13
REMARK                            x       y       z     vdW  Elec       q    Type
REMARK                         _______ _______ _______ _____ _____    ______ ____
ROOT
ATOM      1  C   UNL     1       1.206   9.220  20.899  0.00  0.00    +0.000 C 
ATOM      2  C   UNL     1       1.598   7.885  20.339  0.00  0.00    +0.000 A 
ATOM      3  C   UNL     1       2.197   7.792  19.073  0.00  0.00    +0.000 A 
ATOM      4  C   UNL     1       2.558   6.549  18.534  0.00  0.00    +0.000 A 
ATOM      5  C   UNL     1       2.343   5.374  19.280  0.00  0.00    +0.000 A 
ATOM      6  C   UNL     1       2.679   4.018  18.852  0.00  0.00    +0.000 A 
ATOM      7  C   UNL     1       2.417   2.967  19.630  0.00  0.00    +0.000 A 
ATOM      8  C   UNL     1       1.786   3.069  20.946  0.00  0.00    +0.000 A 
ATOM      9  O   UNL     1       1.555   2.084  21.639  0.00  0.00    +0.000 OA
ATOM     10  O   UNL     1       1.465   4.359  21.348  0.00  0.00    +0.000 OA
ATOM     11  C   UNL     1       1.739   5.491  20.540  0.00  0.00    +0.000 A 
ATOM     12  C   UNL     1       1.363   6.723  21.074  0.00  0.00    +0.000 A 
ATOM     13  C   UNL     1       2.830   1.673  19.036  0.00  0.00    +0.000 C 
ATOM     14  C   UNL     1       3.420   2.079  17.684  0.00  0.00    +0.000 C 
ATOM     15  C   UNL     1       3.318   3.606  17.570  0.00  0.00    +0.000 C 
ENDROOT
BRANCH   4  16
ATOM     16  O   UNL     1       3.176   6.426  17.325  0.00  0.00    +0.000 OA
BRANCH  16  17
ATOM     17  C   UNL     1       4.215   7.350  16.968  0.00  0.00    +0.000 C 
BRANCH  17  18
ATOM     18  C   UNL     1       5.407   6.493  16.590  0.00  0.00    +0.000 C 
ATOM     19  O   UNL     1       5.350   5.622  15.744  0.00  0.00    +0.000 OA
BRANCH  18  20
ATOM     20  O   UNL     1       6.536   6.814  17.320  0.00  0.00    +0.000 OA
BRANCH  20  21
ATOM     21  C   UNL     1       7.048   5.807  18.245  0.00  0.00    +0.000 C 
ATOM     22  C   UNL     1       5.948   5.344  19.211  0.00  0.00    +0.000 C 
ATOM     23  C   UNL     1       7.591   4.603  17.438  0.00  0.00    +0.000 C 
ATOM     24  C   UNL     1       8.223   6.378  19.046  0.00  0.00    +0.000 C 
ENDBRANCH  20  21
ENDBRANCH  18  20
ENDBRANCH  17  18
ENDBRANCH  16  17
ENDBRANCH   4  16
TORSDOF 5
ENDMDL
MODEL 2
REMARK VINA RESULT:      -7.1      2.224      5.291
REMARK  Name = 
REMARK  9 active torsions:
REMARK  status: ('A' for Active; 'I' for Inactive)
REMARK    1  A    between atoms: C_1  and  C_2
REMARK    2  A    between atoms: C_4  and  O_5
REMARK    3  A    between atoms: O_5  and  C_6
REMARK    4  A    between atoms: C_6  and  C_7
REMARK    5  A    between atoms: C_7  and  O_9
REMARK    6  A    between atoms: O_9  and  C_10
REMARK    7  A    between atoms: C_10  and  C_11
REMARK    8  A    between atoms: C_10  and  C_12
REMARK    9  A    between atoms: C_10  and  C_13
REMARK                            x       y       z     vdW  Elec       q    Type
REMARK                         _______ _______ _______ _____ _____    ______ ____
ROOT
ATOM      1  C   UNL     1       7.352   7.232  17.030  0.00  0.00    +0.000 C 
ATOM      2  C   UNL     1       6.181   6.510  17.628  0.00  0.00    +0.000 A 
ATOM      3  C   UNL     1       4.893   7.062  17.559  0.00  0.00    +0.000 A 
ATOM      4  C   UNL     1       3.791   6.403  18.123  0.00  0.00    +0.000 A 
ATOM      5  C   UNL     1       3.970   5.153  18.748  0.00  0.00    +0.000 A 
ATOM      6  C   UNL     1       2.917   4.350  19.365  0.00  0.00    +0.000 A 
ATOM      7  C   UNL     1       3.195   3.184  19.947  0.00  0.00    +0.000 A 
ATOM      8  C   UNL     1       4.541   2.615  20.023  0.00  0.00    +0.000 A 
ATOM      9  O   UNL     1       4.767   1.540  20.568  0.00  0.00    +0.000 OA
ATOM     10  O   UNL     1       5.540   3.383  19.439  0.00  0.00    +0.000 OA
ATOM     11  C   UNL     1       5.266   4.624  18.809  0.00  0.00    +0.000 A 
ATOM     12  C   UNL     1       6.368   5.282  18.264  0.00  0.00    +0.000 A 
ATOM     13  C   UNL     1       2.005   2.506  20.515  0.00  0.00    +0.000 C 
ATOM     14  C   UNL     1       0.864   3.474  20.195  0.00  0.00    +0.000 C 
ATOM     15  C   UNL     1       1.464   4.672  19.447  0.00  0.00    +0.000 C 
ENDROOT
BRANCH   4  16
ATOM     16  O   UNL     1       2.523   6.893  18.040  0.00  0.00    +0.000 OA
BRANCH  16  17
ATOM     17  C   UNL     1       2.133   7.986  18.885  0.00  0.00    +0.000 C 
BRANCH  17  18
ATOM     18  C   UNL     1       1.698   9.092  17.943  0.00  0.00    +0.000 C 
ATOM     19  O   UNL     1       2.476   9.693  17.229  0.00  0.00    +0.000 OA
BRANCH  18  20
ATOM     20  O   UNL     1       0.338   9.330  18.008  0.00  0.00    +0.000 OA
BRANCH  20  21
ATOM     21  C   UNL     1      -0.120  10.372  18.922  0.00  0.00    +0.000 C 
ATOM     22  C   UNL     1       0.803  11.597  18.860  0.00  0.00    +0.000 C 
ATOM     23  C   UNL     1      -1.568  10.774  18.553  0.00  0.00    +0.000 C 
ATOM     24  C   UNL     1      -0.156   9.832  20.357  0.00  0.00    +0.000 C 
ENDBRANCH  20  21
ENDBRANCH  18  20
ENDBRANCH  17  18
ENDBRANCH  16  17
ENDBRANCH   4  16
TORSDOF 5
ENDMDL
MODEL 3
REMARK VINA RESULT:      -7.0      2.344      5.403
REMARK  Name = 
REMARK  9 active torsions:
REMARK  status: ('A' for Active; 'I' for Inactive)
REMARK    1  A    between atoms: C_1  and  C_2
REMARK    2  A    between atoms: C_4  and  O_5
REMARK    3  A    between atoms: O_5  and  C_6
REMARK    4  A    between atoms: C_6  and  C_7
REMARK    5  A    between atoms: C_7  and  O_9
REMARK    6  A    between atoms: O_9  and  C_10
REMARK    7  A    between atoms: C_10  and  C_11
REMARK    8  A    between atoms: C_10  and  C_12
REMARK    9  A    between atoms: C_10  and  C_13
REMARK                            x       y       z     vdW  Elec       q    Type
REMARK                         _______ _______ _______ _____ _____    ______ ____
ROOT
ATOM      1  C   UNL     1       7.316   7.117  16.847  0.00  0.00    +0.000 C 
ATOM      2  C   UNL     1       6.162   6.447  17.532  0.00  0.00    +0.000 A 
ATOM      3  C   UNL     1       4.890   7.042  17.530  0.00  0.00    +0.000 A 
ATOM      4  C   UNL     1       3.805   6.432  18.176  0.00  0.00    +0.000 A 
ATOM      5  C   UNL     1       3.982   5.191  18.817  0.00  0.00    +0.000 A 
ATOM      6  C   UNL     1       2.944   4.437  19.516  0.00  0.00    +0.000 A 
ATOM      7  C   UNL     1       3.219   3.274  20.107  0.00  0.00    +0.000 A 
ATOM      8  C   UNL     1       4.549   2.662  20.113  0.00  0.00    +0.000 A 
ATOM      9  O   UNL     1       4.773   1.592  20.668  0.00  0.00    +0.000 OA
ATOM     10  O   UNL     1       5.533   3.383  19.450  0.00  0.00    +0.000 OA
ATOM     11  C   UNL     1       5.262   4.619  18.811  0.00  0.00    +0.000 A 
ATOM     12  C   UNL     1       6.348   5.228  18.183  0.00  0.00    +0.000 A 
ATOM     13  C   UNL     1       2.045   2.649  20.762  0.00  0.00    +0.000 C 
ATOM     14  C   UNL     1       0.919   3.649  20.491  0.00  0.00    +0.000 C 
ATOM     15  C   UNL     1       1.510   4.810  19.680  0.00  0.00    +0.000 C 
ENDROOT
BRANCH   4  16
ATOM     16  O   UNL     1       2.551   6.963  18.160  0.00  0.00    +0.000 OA
BRANCH  16  17
ATOM     17  C   UNL     1       2.375   8.344  17.807  0.00  0.00    +0.000 C 
BRANCH  17  18
ATOM     18  C   UNL     1       1.651   8.973  18.983  0.00  0.00    +0.000 C 
ATOM     19  O   UNL     1       1.341   8.346  19.977  0.00  0.00    +0.000 OA
BRANCH  18  20
ATOM     20  O   UNL     1       1.385  10.314  18.778  0.00  0.00    +0.000 OA
BRANCH  20  21
ATOM     21  C   UNL     1       0.008  10.762  18.958  0.00  0.00    +0.000 C 
ATOM     22  C   UNL     1      -0.937  10.024  17.998  0.00  0.00    +0.000 C 
ATOM     23  C   UNL     1      -0.421  10.513  20.424  0.00  0.00    +0.000 C 
ATOM     24  C   UNL     1      -0.091  12.272  18.711  0.00  0.00    +0.000 C 
ENDBRANCH  20  21
ENDBRANCH  18  20
ENDBRANCH  17  18
ENDBRANCH  16  17
ENDBRANCH   4  16
TORSDOF 5
ENDMDL
MODEL 4
REMARK VINA RESULT:      -6.9      1.596      4.019
REMARK  Name = 
REMARK  9 active torsions:
REMARK  status: ('A' for Active; 'I' for Inactive)
REMARK    1  A    between atoms: C_1  and  C_2
REMARK    2  A    between atoms: C_4  and  O_5
REMARK    3  A    between atoms: O_5  and  C_6
REMARK    4  A    between atoms: C_6  and  C_7
REMARK    5  A    between atoms: C_7  and  O_9
REMARK    6  A    between atoms: O_9  and  C_10
REMARK    7  A    between atoms: C_10  and  C_11
REMARK    8  A    between atoms: C_10  and  C_12
REMARK    9  A    between atoms: C_10  and  C_13
REMARK                            x       y       z     vdW  Elec       q    Type
REMARK                         _______ _______ _______ _____ _____    ______ ____
ROOT
ATOM      1  C   UNL     1       2.716   2.338  21.071  0.00  0.00    +0.000 C 
ATOM      2  C   UNL     1       2.569   3.716  20.498  0.00  0.00    +0.000 A 
ATOM      3  C   UNL     1       3.073   4.014  19.222  0.00  0.00    +0.000 A 
ATOM      4  C   UNL     1       2.952   5.301  18.679  0.00  0.00    +0.000 A 
ATOM      5  C   UNL     1       2.294   6.310  19.410  0.00  0.00    +0.000 A 
ATOM      6  C   UNL     1       2.084   7.686  18.966  0.00  0.00    +0.000 A 
ATOM      7  C   UNL     1       1.461   8.571  19.745  0.00  0.00    +0.000 A 
ATOM      8  C   UNL     1       0.944   8.257  21.078  0.00  0.00    +0.000 A 
ATOM      9  O   UNL     1       0.377   9.093  21.772  0.00  0.00    +0.000 OA
ATOM     10  O   UNL     1       1.148   6.949  21.497  0.00  0.00    +0.000 OA
ATOM     11  C   UNL     1       1.804   5.990  20.684  0.00  0.00    +0.000 A 
ATOM     12  C   UNL     1       1.935   4.716  21.235  0.00  0.00    +0.000 A 
ATOM     13  C   UNL     1       1.334   9.914  19.131  0.00  0.00    +0.000 C 
ATOM     14  C   UNL     1       2.016   9.745  17.771  0.00  0.00    +0.000 C 
ATOM     15  C   UNL     1       2.502   8.292  17.671  0.00  0.00    +0.000 C 
ENDROOT
BRANCH   4  16
ATOM     16  O   UNL     1       3.395   5.614  17.429  0.00  0.00    +0.000 OA
BRANCH  16  17
ATOM     17  C   UNL     1       4.168   4.652  16.695  0.00  0.00    +0.000 C 
BRANCH  17  18
ATOM     18  C   UNL     1       5.385   5.407  16.195  0.00  0.00    +0.000 C 
ATOM     19  O   UNL     1       5.876   5.214  15.100  0.00  0.00    +0.000 OA
BRANCH  18  20
ATOM     20  O   UNL     1       5.860   6.310  17.127  0.00  0.00    +0.000 OA
BRANCH  20  21
ATOM     21  C   UNL     1       6.935   5.865  18.009  0.00  0.00    +0.000 C 
ATOM     22  C   UNL     1       6.388   5.506  19.399  0.00  0.00    +0.000 C 
ATOM     23  C   UNL     1       7.636   4.638  17.378  0.00  0.00    +0.000 C 
ATOM     24  C   UNL     1       7.993   6.966  18.146  0.00  0.00    +0.000 C 
ENDBRANCH  20  21
ENDBRANCH  18  20
ENDBRANCH  17  18
ENDBRANCH  16  17
ENDBRANCH   4  16
TORSDOF 5
ENDMDL
MODEL 5
REMARK VINA RESULT:      -6.8      2.369      6.182
REMARK  Name = 
REMARK  9 active torsions:
REMARK  status: ('A' for Active; 'I' for Inactive)
REMARK    1  A    between atoms: C_1  and  C_2
REMARK    2  A    between atoms: C_4  and  O_5
REMARK    3  A    between atoms: O_5  and  C_6
REMARK    4  A    between atoms: C_6  and  C_7
REMARK    5  A    between atoms: C_7  and  O_9
REMARK    6  A    between atoms: O_9  and  C_10
REMARK    7  A    between atoms: C_10  and  C_11
REMARK    8  A    between atoms: C_10  and  C_12
REMARK    9  A    between atoms: C_10  and  C_13
REMARK                            x       y       z     vdW  Elec       q    Type
REMARK                         _______ _______ _______ _____ _____    ______ ____
ROOT
ATOM      1  C   UNL     1       4.848   6.372  16.468  0.00  0.00    +0.000 C 
ATOM      2  C   UNL     1       3.881   6.920  17.475  0.00  0.00    +0.000 A 
ATOM      3  C   UNL     1       3.537   6.172  18.612  0.00  0.00    +0.000 A 
ATOM      4  C   UNL     1       2.626   6.668  19.556  0.00  0.00    +0.000 A 
ATOM      5  C   UNL     1       2.063   7.947  19.378  0.00  0.00    +0.000 A 
ATOM      6  C   UNL     1       1.114   8.593  20.282  0.00  0.00    +0.000 A 
ATOM      7  C   UNL     1       0.626   9.805  20.013  0.00  0.00    +0.000 A 
ATOM      8  C   UNL     1       0.982  10.577  18.822  0.00  0.00    +0.000 A 
ATOM      9  O   UNL     1       0.515  11.689  18.600  0.00  0.00    +0.000 OA
ATOM     10  O   UNL     1       1.882   9.958  17.964  0.00  0.00    +0.000 OA
ATOM     11  C   UNL     1       2.418   8.673  18.233  0.00  0.00    +0.000 A 
ATOM     12  C   UNL     1       3.311   8.178  17.283  0.00  0.00    +0.000 A 
ATOM     13  C   UNL     1      -0.318  10.305  21.041  0.00  0.00    +0.000 C 
ATOM     14  C   UNL     1      -0.367   9.163  22.058  0.00  0.00    +0.000 C 
ATOM     15  C   UNL     1       0.567   8.052  21.558  0.00  0.00    +0.000 C 
ENDROOT
BRANCH   4  16
ATOM     16  O   UNL     1       2.300   5.985  20.689  0.00  0.00    +0.000 OA
BRANCH  16  17
ATOM     17  C   UNL     1       1.431   4.845  20.599  0.00  0.00    +0.000 C 
BRANCH  17  18
ATOM     18  C   UNL     1       2.289   3.651  20.971  0.00  0.00    +0.000 C 
ATOM     19  O   UNL     1       2.222   3.105  22.055  0.00  0.00    +0.000 OA
BRANCH  18  20
ATOM     20  O   UNL     1       3.144   3.281  19.950  0.00  0.00    +0.000 OA
BRANCH  20  21
ATOM     21  C   UNL     1       2.601   2.433  18.893  0.00  0.00    +0.000 C 
ATOM     22  C   UNL     1       3.583   1.307  18.538  0.00  0.00    +0.000 C 
ATOM     23  C   UNL     1       1.252   1.838  19.360  0.00  0.00    +0.000 C 
ATOM     24  C   UNL     1       2.314   3.272  17.642  0.00  0.00    +0.000 C 
ENDBRANCH  20  21
ENDBRANCH  18  20
ENDBRANCH  17  18
ENDBRANCH  16  17
ENDBRANCH   4  16
TORSDOF 5
ENDMDL
MODEL 6
REMARK VINA RESULT:      -6.8      2.024      2.846
REMARK  Name = 
REMARK  9 active torsions:
REMARK  status: ('A' for Active; 'I' for Inactive)
REMARK    1  A    between atoms: C_1  and  C_2
REMARK    2  A    between atoms: C_4  and  O_5
REMARK    3  A    between atoms: O_5  and  C_6
REMARK    4  A    between atoms: C_6  and  C_7
REMARK    5  A    between atoms: C_7  and  O_9
REMARK    6  A    between atoms: O_9  and  C_10
REMARK    7  A    between atoms: C_10  and  C_11
REMARK    8  A    between atoms: C_10  and  C_12
REMARK    9  A    between atoms: C_10  and  C_13
REMARK                            x       y       z     vdW  Elec       q    Type
REMARK                         _______ _______ _______ _____ _____    ______ ____
ROOT
ATOM      1  C   UNL     1       2.230   9.033  17.671  0.00  0.00    +0.000 C 
ATOM      2  C   UNL     1       2.617   7.617  17.980  0.00  0.00    +0.000 A 
ATOM      3  C   UNL     1       3.946   7.295  18.297  0.00  0.00    +0.000 A 
ATOM      4  C   UNL     1       4.323   5.974  18.577  0.00  0.00    +0.000 A 
ATOM      5  C   UNL     1       3.353   4.953  18.568  0.00  0.00    +0.000 A 
ATOM      6  C   UNL     1       3.597   3.541  18.851  0.00  0.00    +0.000 A 
ATOM      7  C   UNL     1       2.608   2.649  18.799  0.00  0.00    +0.000 A 
ATOM      8  C   UNL     1       1.225   2.988  18.461  0.00  0.00    +0.000 A 
ATOM      9  O   UNL     1       0.337   2.145  18.419  0.00  0.00    +0.000 OA
ATOM     10  O   UNL     1       0.997   4.331  18.190  0.00  0.00    +0.000 OA
ATOM     11  C   UNL     1       2.033   5.298  18.244  0.00  0.00    +0.000 A 
ATOM     12  C   UNL     1       1.655   6.608  17.949  0.00  0.00    +0.000 A 
ATOM     13  C   UNL     1       3.039   1.267  19.120  0.00  0.00    +0.000 C 
ATOM     14  C   UNL     1       4.538   1.421  19.392  0.00  0.00    +0.000 C 
ATOM     15  C   UNL     1       4.894   2.903  19.215  0.00  0.00    +0.000 C 
ENDROOT
BRANCH   4  16
ATOM     16  O   UNL     1       5.595   5.633  18.925  0.00  0.00    +0.000 OA
BRANCH  16  17
ATOM     17  C   UNL     1       6.700   6.327  18.325  0.00  0.00    +0.000 C 
BRANCH  17  18
ATOM     18  C   UNL     1       7.421   5.291  17.484  0.00  0.00    +0.000 C 
ATOM     19  O   UNL     1       7.898   4.278  17.955  0.00  0.00    +0.000 OA
BRANCH  18  20
ATOM     20  O   UNL     1       7.474   5.644  16.149  0.00  0.00    +0.000 OA
BRANCH  20  21
ATOM     21  C   UNL     1       6.458   5.081  15.263  0.00  0.00    +0.000 C 
ATOM     22  C   UNL     1       7.038   4.814  13.867  0.00  0.00    +0.000 C 
ATOM     23  C   UNL     1       5.918   3.768  15.878  0.00  0.00    +0.000 C 
ATOM     24  C   UNL     1       5.271   6.045  15.146  0.00  0.00    +0.000 C 
ENDBRANCH  20  21
ENDBRANCH  18  20
ENDBRANCH  17  18
ENDBRANCH  16  17
ENDBRANCH   4  16
TORSDOF 5
ENDMDL
MODEL 7
REMARK VINA RESULT:      -6.7      1.233      1.708
REMARK  Name = 
REMARK  9 active torsions:
REMARK  status: ('A' for Active; 'I' for Inactive)
REMARK    1  A    between atoms: C_1  and  C_2
REMARK    2  A    between atoms: C_4  and  O_5
REMARK    3  A    between atoms: O_5  and  C_6
REMARK    4  A    between atoms: C_6  and  C_7
REMARK    5  A    between atoms: C_7  and  O_9
REMARK    6  A    between atoms: O_9  and  C_10
REMARK    7  A    between atoms: C_10  and  C_11
REMARK    8  A    between atoms: C_10  and  C_12
REMARK    9  A    between atoms: C_10  and  C_13
REMARK                            x       y       z     vdW  Elec       q    Type
REMARK                         _______ _______ _______ _____ _____    ______ ____
ROOT
ATOM      1  C   UNL     1       2.394   9.552  18.269  0.00  0.00    +0.000 C 
ATOM      2  C   UNL     1       2.588   8.066  18.321  0.00  0.00    +0.000 A 
ATOM      3  C   UNL     1       3.340   7.411  17.333  0.00  0.00    +0.000 A 
ATOM      4  C   UNL     1       3.520   6.021  17.364  0.00  0.00    +0.000 A 
ATOM      5  C   UNL     1       2.962   5.267  18.415  0.00  0.00    +0.000 A 
ATOM      6  C   UNL     1       3.079   3.820  18.582  0.00  0.00    +0.000 A 
ATOM      7  C   UNL     1       2.496   3.198  19.607  0.00  0.00    +0.000 A 
ATOM      8  C   UNL     1       1.707   3.884  20.631  0.00  0.00    +0.000 A 
ATOM      9  O   UNL     1       1.180   3.285  21.561  0.00  0.00    +0.000 OA
ATOM     10  O   UNL     1       1.596   5.259  20.467  0.00  0.00    +0.000 OA
ATOM     11  C   UNL     1       2.211   5.942  19.387  0.00  0.00    +0.000 A 
ATOM     12  C   UNL     1       2.016   7.322  19.353  0.00  0.00    +0.000 A 
ATOM     13  C   UNL     1       2.724   1.733  19.618  0.00  0.00    +0.000 C 
ATOM     14  C   UNL     1       3.581   1.501  18.372  0.00  0.00    +0.000 C 
ATOM     15  C   UNL     1       3.808   2.864  17.702  0.00  0.00    +0.000 C 
ENDROOT
BRANCH   4  16
ATOM     16  O   UNL     1       4.276   5.359  16.443  0.00  0.00    +0.000 OA
BRANCH  16  17
ATOM     17  C   UNL     1       5.303   6.069  15.734  0.00  0.00    +0.000 C 
BRANCH  17  18
ATOM     18  C   UNL     1       6.574   5.269  15.955  0.00  0.00    +0.000 C 
ATOM     19  O   UNL     1       7.415   5.119  15.091  0.00  0.00    +0.000 OA
BRANCH  18  20
ATOM     20  O   UNL     1       6.643   4.738  17.229  0.00  0.00    +0.000 OA
BRANCH  20  21
ATOM     21  C   UNL     1       7.143   5.603  18.293  0.00  0.00    +0.000 C 
ATOM     22  C   UNL     1       7.439   7.012  17.757  0.00  0.00    +0.000 C 
ATOM     23  C   UNL     1       6.093   5.674  19.428  0.00  0.00    +0.000 C 
ATOM     24  C   UNL     1       8.420   5.009  18.898  0.00  0.00    +0.000 C 
ENDBRANCH  20  21
ENDBRANCH  18  20
ENDBRANCH  17  18
ENDBRANCH  16  17
ENDBRANCH   4  16
TORSDOF 5
ENDMDL
MODEL 8
REMARK VINA RESULT:      -6.6      1.321      4.009
REMARK  Name = 
REMARK  9 active torsions:
REMARK  status: ('A' for Active; 'I' for Inactive)
REMARK    1  A    between atoms: C_1  and  C_2
REMARK    2  A    between atoms: C_4  and  O_5
REMARK    3  A    between atoms: O_5  and  C_6
REMARK    4  A    between atoms: C_6  and  C_7
REMARK    5  A    between atoms: C_7  and  O_9
REMARK    6  A    between atoms: O_9  and  C_10
REMARK    7  A    between atoms: C_10  and  C_11
REMARK    8  A    between atoms: C_10  and  C_12
REMARK    9  A    between atoms: C_10  and  C_13
REMARK                            x       y       z     vdW  Elec       q    Type
REMARK                         _______ _______ _______ _____ _____    ______ ____
ROOT
ATOM      1  C   UNL     1       3.986   1.256  19.408  0.00  0.00    +0.000 C 
ATOM      2  C   UNL     1       3.665   2.693  19.127  0.00  0.00    +0.000 A 
ATOM      3  C   UNL     1       4.084   3.296  17.930  0.00  0.00    +0.000 A 
ATOM      4  C   UNL     1       3.800   4.642  17.660  0.00  0.00    +0.000 A 
ATOM      5  C   UNL     1       3.061   5.401  18.588  0.00  0.00    +0.000 A 
ATOM      6  C   UNL     1       2.682   6.803  18.434  0.00  0.00    +0.000 A 
ATOM      7  C   UNL     1       1.992   7.436  19.383  0.00  0.00    +0.000 A 
ATOM      8  C   UNL     1       1.564   6.806  20.633  0.00  0.00    +0.000 A 
ATOM      9  O   UNL     1       0.932   7.415  21.489  0.00  0.00    +0.000 OA
ATOM     10  O   UNL     1       1.928   5.474  20.776  0.00  0.00    +0.000 OA
ATOM     11  C   UNL     1       2.657   4.779  19.778  0.00  0.00    +0.000 A 
ATOM     12  C   UNL     1       2.950   3.445  20.059  0.00  0.00    +0.000 A 
ATOM     13  C   UNL     1       1.693   8.851  19.055  0.00  0.00    +0.000 C 
ATOM     14  C   UNL     1       2.340   9.036  17.680  0.00  0.00    +0.000 C 
ATOM     15  C   UNL     1       2.981   7.700  17.282  0.00  0.00    +0.000 C 
ENDROOT
BRANCH   4  16
ATOM     16  O   UNL     1       4.159   5.247  16.493  0.00  0.00    +0.000 OA
BRANCH  16  17
ATOM     17  C   UNL     1       5.216   4.680  15.702  0.00  0.00    +0.000 C 
BRANCH  17  18
ATOM     18  C   UNL     1       6.424   5.564  15.948  0.00  0.00    +0.000 C 
ATOM     19  O   UNL     1       7.362   5.625  15.178  0.00  0.00    +0.000 OA
BRANCH  18  20
ATOM     20  O   UNL     1       6.329   6.262  17.137  0.00  0.00    +0.000 OA
BRANCH  20  21
ATOM     21  C   UNL     1       7.209   5.856  18.229  0.00  0.00    +0.000 C 
ATOM     22  C   UNL     1       8.204   6.973  18.573  0.00  0.00    +0.000 C 
ATOM     23  C   UNL     1       6.353   5.503  19.468  0.00  0.00    +0.000 C 
ATOM     24  C   UNL     1       7.979   4.589  17.838  0.00  0.00    +0.000 C 
ENDBRANCH  20  21
ENDBRANCH  18  20
ENDBRANCH  17  18
ENDBRANCH  16  17
ENDBRANCH   4  16
TORSDOF 5
ENDMDL
MODEL 9
REMARK VINA RESULT:      -6.6      2.261      5.999
REMARK  Name = 
REMARK  9 active torsions:
REMARK  status: ('A' for Active; 'I' for Inactive)
REMARK    1  A    between atoms: C_1  and  C_2
REMARK    2  A    between atoms: C_4  and  O_5
REMARK    3  A    between atoms: O_5  and  C_6
REMARK    4  A    between atoms: C_6  and  C_7
REMARK    5  A    between atoms: C_7  and  O_9
REMARK    6  A    between atoms: O_9  and  C_10
REMARK    7  A    between atoms: C_10  and  C_11
REMARK    8  A    between atoms: C_10  and  C_12
REMARK    9  A    between atoms: C_10  and  C_13
REMARK                            x       y       z     vdW  Elec       q    Type
REMARK                         _______ _______ _______ _____ _____    ______ ____
ROOT
ATOM      1  C   UNL     1       1.458   2.507  21.815  0.00  0.00    +0.000 C 
ATOM      2  C   UNL     1       2.095   3.372  20.768  0.00  0.00    +0.000 A 
ATOM      3  C   UNL     1       1.908   4.763  20.783  0.00  0.00    +0.000 A 
ATOM      4  C   UNL     1       2.489   5.582  19.804  0.00  0.00    +0.000 A 
ATOM      5  C   UNL     1       3.295   5.008  18.801  0.00  0.00    +0.000 A 
ATOM      6  C   UNL     1       3.970   5.736  17.730  0.00  0.00    +0.000 A 
ATOM      7  C   UNL     1       4.699   5.094  16.817  0.00  0.00    +0.000 A 
ATOM      8  C   UNL     1       4.885   3.642  16.801  0.00  0.00    +0.000 A 
ATOM      9  O   UNL     1       5.560   3.079  15.946  0.00  0.00    +0.000 OA
ATOM     10  O   UNL     1       4.239   2.954  17.819  0.00  0.00    +0.000 OA
ATOM     11  C   UNL     1       3.463   3.616  18.804  0.00  0.00    +0.000 A 
ATOM     12  C   UNL     1       2.875   2.795  19.766  0.00  0.00    +0.000 A 
ATOM     13  C   UNL     1       5.313   5.992  15.810  0.00  0.00    +0.000 C 
ATOM     14  C   UNL     1       4.832   7.380  16.238  0.00  0.00    +0.000 C 
ATOM     15  C   UNL     1       3.958   7.206  17.488  0.00  0.00    +0.000 C 
ENDROOT
BRANCH   4  16
ATOM     16  O   UNL     1       2.359   6.938  19.812  0.00  0.00    +0.000 OA
BRANCH  16  17
ATOM     17  C   UNL     1       1.449   7.553  20.736  0.00  0.00    +0.000 C 
BRANCH  17  18
ATOM     18  C   UNL     1       1.302   8.988  20.266  0.00  0.00    +0.000 C 
ATOM     19  O   UNL     1       1.459   9.321  19.109  0.00  0.00    +0.000 OA
BRANCH  18  20
ATOM     20  O   UNL     1       0.986   9.848  21.301  0.00  0.00    +0.000 OA
BRANCH  20  21
ATOM     21  C   UNL     1       0.013  10.901  21.027  0.00  0.00    +0.000 C 
ATOM     22  C   UNL     1      -0.951  10.477  19.910  0.00  0.00    +0.000 C 
ATOM     23  C   UNL     1      -0.775  11.217  22.321  0.00  0.00    +0.000 C 
ATOM     24  C   UNL     1       0.736  12.190  20.616  0.00  0.00    +0.000 C 
ENDBRANCH  20  21
ENDBRANCH  18  20
ENDBRANCH  17  18
ENDBRANCH  16  17
ENDBRANCH   4  16
TORSDOF 5
ENDMDL
