MODEL 1
REMARK VINA RESULT:      -7.1      0.000      0.000
REMARK  Name = 
REMARK  2 active torsions:
REMARK  status: ('A' for Active; 'I' for Inactive)
REMARK    1  A    between atoms: C_1  and  C_2
REMARK    2  A    between atoms: C_16  and  C_17
REMARK                            x       y       z     vdW  Elec       q    Type
REMARK                         _______ _______ _______ _____ _____    ______ ____
ROOT
ATOM      1  C   UNL     1       1.102  14.850  20.648  0.00  0.00    +0.000 C 
ATOM      2  C   UNL     1       1.393  13.646  19.647  0.00  0.00    +0.000 A 
ATOM      3  N   UNL     1       2.260  12.602  19.352  0.00  0.00    +0.000 NA
ATOM      4  C   UNL     1       1.589  11.568  18.435  0.00  0.00    +0.000 A 
ATOM      5  C   UNL     1       0.235  12.106  18.503  0.00  0.00    +0.000 A 
ATOM      6  N   UNL     1       0.215  13.384  19.013  0.00  0.00    +0.000 N 
ATOM      7  C   UNL     1      -1.116  11.518  18.854  0.00  0.00    +0.000 C 
ATOM      8  C   UNL     1      -0.961  11.137  20.368  0.00  0.00    +0.000 C 
ATOM      9  C   UNL     1      -0.204   9.894  20.266  0.00  0.00    +0.000 C 
ATOM     10  C   UNL     1       0.596   9.384  21.404  0.00  0.00    +0.000 C 
ATOM     11  C   UNL     1       1.306   8.330  20.637  0.00  0.00    +0.000 C 
ATOM     12  C   UNL     1       1.622   7.135  21.413  0.00  0.00    +0.000 C 
ATOM     13  C   UNL     1       1.509   6.212  20.268  0.00  0.00    +0.000 C 
ATOM     14  C   UNL     1       1.676   4.858  20.697  0.00  0.00    +0.000 C 
ATOM     15  C   UNL     1       1.586   4.079  19.392  0.00  0.00    +0.000 C 
ATOM     16  C   UNL     1       3.027   3.821  19.040  0.00  0.00    +0.000 C 
ATOM     17  C   UNL     1       3.046   2.752  20.544  0.00  0.00    +0.000 C 
ATOM     18  O   UNL     1       3.265   5.548  18.391  0.00  0.00    +0.000 OA
ATOM     19  C   UNL     1       3.431   7.027  17.854  0.00  0.00    +0.000 C 
ATOM     20  O   UNL     1       4.340   7.166  16.998  0.00  0.00    +0.000 OA
ATOM     21  C   UNL     1       2.348   8.499  17.808  0.00  0.00    +0.000 C 
ATOM     22  C   UNL     1       1.788   9.923  17.938  0.00  0.00    +0.000 C 
ATOM     23  H   UNL     1      -0.612  13.706  19.501  0.00  0.00    +0.000 HD
ENDROOT
TORSDOF 0
ENDMDL
MODEL 2
REMARK VINA RESULT:      -7.1      3.693      7.888
REMARK  Name = 
REMARK  2 active torsions:
REMARK  status: ('A' for Active; 'I' for Inactive)
REMARK    1  A    between atoms: C_1  and  C_2
REMARK    2  A    between atoms: C_16  and  C_17
REMARK                            x       y       z     vdW  Elec       q    Type
REMARK                         _______ _______ _______ _____ _____    ______ ____
ROOT
ATOM      1  C   UNL     1       4.771   1.161  19.648  0.00  0.00    +0.000 C 
ATOM      2  C   UNL     1       3.783   2.244  20.268  0.00  0.00    +0.000 A 
ATOM      3  N   UNL     1       3.703   3.502  20.852  0.00  0.00    +0.000 NA
ATOM      4  C   UNL     1       2.272   4.058  20.776  0.00  0.00    +0.000 A 
ATOM      5  C   UNL     1       1.720   3.035  19.894  0.00  0.00    +0.000 A 
ATOM      6  N   UNL     1       2.538   1.931  19.812  0.00  0.00    +0.000 N 
ATOM      7  C   UNL     1       0.971   3.073  18.578  0.00  0.00    +0.000 C 
ATOM      8  C   UNL     1       2.024   3.670  17.580  0.00  0.00    +0.000 C 
ATOM      9  C   UNL     1       1.948   5.089  17.913  0.00  0.00    +0.000 C 
ATOM     10  C   UNL     1       3.060   6.015  17.596  0.00  0.00    +0.000 C 
ATOM     11  C   UNL     1       2.541   7.159  18.385  0.00  0.00    +0.000 C 
ATOM     12  C   UNL     1       2.861   8.468  17.824  0.00  0.00    +0.000 C 
ATOM     13  C   UNL     1       1.632   9.117  18.319  0.00  0.00    +0.000 C 
ATOM     14  C   UNL     1       1.555  10.467  17.852  0.00  0.00    +0.000 C 
ATOM     15  C   UNL     1       0.275  10.974  18.502  0.00  0.00    +0.000 C 
ATOM     16  C   UNL     1       0.773  11.741  19.699  0.00  0.00    +0.000 C 
ATOM     17  C   UNL     1       1.491  12.908  18.463  0.00  0.00    +0.000 C 
ATOM     18  O   UNL     1       1.062  10.187  20.680  0.00  0.00    +0.000 OA
ATOM     19  C   UNL     1       1.301   8.844  21.481  0.00  0.00    +0.000 C 
ATOM     20  O   UNL     1       1.263   8.973  22.730  0.00  0.00    +0.000 OA
ATOM     21  C   UNL     1       1.160   7.069  21.069  0.00  0.00    +0.000 C 
ATOM     22  C   UNL     1       1.437   5.568  20.895  0.00  0.00    +0.000 C 
ATOM     23  H   UNL     1       2.522   1.369  18.970  0.00  0.00    +0.000 HD
ENDROOT
TORSDOF 0
ENDMDL
MODEL 3
REMARK VINA RESULT:      -6.7      4.815      7.102
REMARK  Name = 
REMARK  2 active torsions:
REMARK  status: ('A' for Active; 'I' for Inactive)
REMARK    1  A    between atoms: C_1  and  C_2
REMARK    2  A    between atoms: C_16  and  C_17
REMARK                            x       y       z     vdW  Elec       q    Type
REMARK                         _______ _______ _______ _____ _____    ______ ____
ROOT
ATOM      1  C   UNL     1      -7.916  14.123  23.923  0.00  0.00    +0.000 C 
ATOM      2  C   UNL     1      -6.426  13.594  24.115  0.00  0.00    +0.000 A 
ATOM      3  N   UNL     1      -5.580  12.505  23.950  0.00  0.00    +0.000 NA
ATOM      4  C   UNL     1      -4.107  12.940  23.968  0.00  0.00    +0.000 A 
ATOM      5  C   UNL     1      -4.336  14.380  23.932  0.00  0.00    +0.000 A 
ATOM      6  N   UNL     1      -5.640  14.701  24.232  0.00  0.00    +0.000 N 
ATOM      7  C   UNL     1      -3.847  15.502  23.040  0.00  0.00    +0.000 C 
ATOM      8  C   UNL     1      -4.471  15.152  21.644  0.00  0.00    +0.000 C 
ATOM      9  C   UNL     1      -3.564  14.103  21.189  0.00  0.00    +0.000 C 
ATOM     10  C   UNL     1      -3.976  13.122  20.158  0.00  0.00    +0.000 C 
ATOM     11  C   UNL     1      -2.815  12.214  20.333  0.00  0.00    +0.000 C 
ATOM     12  C   UNL     1      -2.389  11.543  19.108  0.00  0.00    +0.000 C 
ATOM     13  C   UNL     1      -0.965  11.487  19.489  0.00  0.00    +0.000 C 
ATOM     14  C   UNL     1      -0.182  10.942  18.423  0.00  0.00    +0.000 C 
ATOM     15  C   UNL     1       1.219  10.912  19.016  0.00  0.00    +0.000 C 
ATOM     16  C   UNL     1       1.381   9.480  19.456  0.00  0.00    +0.000 C 
ATOM     17  C   UNL     1       1.328   9.080  17.655  0.00  0.00    +0.000 C 
ATOM     18  O   UNL     1       0.365   9.748  20.991  0.00  0.00    +0.000 OA
ATOM     19  C   UNL     1      -0.509  10.014  22.283  0.00  0.00    +0.000 C 
ATOM     20  O   UNL     1      -0.269   9.233  23.238  0.00  0.00    +0.000 OA
ATOM     21  C   UNL     1      -1.452  11.446  22.916  0.00  0.00    +0.000 C 
ATOM     22  C   UNL     1      -2.553  12.351  23.490  0.00  0.00    +0.000 C 
ATOM     23  H   UNL     1      -6.039  15.549  23.848  0.00  0.00    +0.000 HD
ENDROOT
TORSDOF 0
ENDMDL
MODEL 4
REMARK VINA RESULT:      -6.6      6.388      8.030
REMARK  Name = 
REMARK  2 active torsions:
REMARK  status: ('A' for Active; 'I' for Inactive)
REMARK    1  A    between atoms: C_1  and  C_2
REMARK    2  A    between atoms: C_16  and  C_17
REMARK                            x       y       z     vdW  Elec       q    Type
REMARK                         _______ _______ _______ _____ _____    ______ ____
ROOT
ATOM      1  C   UNL     1      -3.078  16.576  24.995  0.00  0.00    +0.000 C 
ATOM      2  C   UNL     1      -4.003  15.719  24.023  0.00  0.00    +0.000 A 
ATOM      3  N   UNL     1      -4.446  15.575  22.715  0.00  0.00    +0.000 NA
ATOM      4  C   UNL     1      -5.020  14.169  22.476  0.00  0.00    +0.000 A 
ATOM      5  C   UNL     1      -4.600  13.577  23.741  0.00  0.00    +0.000 A 
ATOM      6  N   UNL     1      -4.229  14.534  24.658  0.00  0.00    +0.000 N 
ATOM      7  C   UNL     1      -3.806  12.342  24.114  0.00  0.00    +0.000 C 
ATOM      8  C   UNL     1      -2.380  12.640  23.534  0.00  0.00    +0.000 C 
ATOM      9  C   UNL     1      -2.588  12.345  22.120  0.00  0.00    +0.000 C 
ATOM     10  C   UNL     1      -1.699  12.909  21.077  0.00  0.00    +0.000 C 
ATOM     11  C   UNL     1      -2.542  12.511  19.922  0.00  0.00    +0.000 C 
ATOM     12  C   UNL     1      -1.788  12.187  18.714  0.00  0.00    +0.000 C 
ATOM     13  C   UNL     1      -2.756  11.183  18.232  0.00  0.00    +0.000 C 
ATOM     14  C   UNL     1      -2.272  10.551  17.044  0.00  0.00    +0.000 C 
ATOM     15  C   UNL     1      -3.411   9.610  16.677  0.00  0.00    +0.000 C 
ATOM     16  C   UNL     1      -4.153  10.363  15.605  0.00  0.00    +0.000 C 
ATOM     17  C   UNL     1      -2.631  10.118  14.590  0.00  0.00    +0.000 C 
ATOM     18  O   UNL     1      -5.002  11.460  16.845  0.00  0.00    +0.000 OA
ATOM     19  C   UNL     1      -5.700  12.377  17.929  0.00  0.00    +0.000 C 
ATOM     20  O   UNL     1      -6.798  12.865  17.563  0.00  0.00    +0.000 OA
ATOM     21  C   UNL     1      -5.556  12.547  19.743  0.00  0.00    +0.000 C 
ATOM     22  C   UNL     1      -5.398  13.106  21.165  0.00  0.00    +0.000 C 
ATOM     23  H   UNL     1      -3.547  14.296  25.369  0.00  0.00    +0.000 HD
ENDROOT
TORSDOF 0
ENDMDL
MODEL 5
REMARK VINA RESULT:      -6.1      2.121      3.876
REMARK  Name = 
REMARK  2 active torsions:
REMARK  status: ('A' for Active; 'I' for Inactive)
REMARK    1  A    between atoms: C_1  and  C_2
REMARK    2  A    between atoms: C_16  and  C_17
REMARK                            x       y       z     vdW  Elec       q    Type
REMARK                         _______ _______ _______ _____ _____    ______ ____
ROOT
ATOM      1  C   UNL     1      -0.438  16.545  18.301  0.00  0.00    +0.000 C 
ATOM      2  C   UNL     1      -0.256  15.354  19.342  0.00  0.00    +0.000 A 
ATOM      3  N   UNL     1      -0.698  14.088  19.705  0.00  0.00    +0.000 NA
ATOM      4  C   UNL     1       0.324  13.382  20.609  0.00  0.00    +0.000 A 
ATOM      5  C   UNL     1       1.406  14.350  20.461  0.00  0.00    +0.000 A 
ATOM      6  N   UNL     1       0.964  15.536  19.922  0.00  0.00    +0.000 N 
ATOM      7  C   UNL     1       2.862  14.247  20.054  0.00  0.00    +0.000 C 
ATOM      8  C   UNL     1       2.787  13.779  18.559  0.00  0.00    +0.000 C 
ATOM      9  C   UNL     1       2.509  12.356  18.727  0.00  0.00    +0.000 C 
ATOM     10  C   UNL     1       1.889  11.559  17.643  0.00  0.00    +0.000 C 
ATOM     11  C   UNL     1       1.617  10.356  18.469  0.00  0.00    +0.000 C 
ATOM     12  C   UNL     1       1.701   9.096  17.737  0.00  0.00    +0.000 C 
ATOM     13  C   UNL     1       2.171   8.313  18.896  0.00  0.00    +0.000 C 
ATOM     14  C   UNL     1       2.464   6.968  18.506  0.00  0.00    +0.000 C 
ATOM     15  C   UNL     1       2.869   6.318  19.821  0.00  0.00    +0.000 C 
ATOM     16  C   UNL     1       1.621   5.595  20.252  0.00  0.00    +0.000 C 
ATOM     17  C   UNL     1       1.910   4.527  18.775  0.00  0.00    +0.000 C 
ATOM     18  O   UNL     1       0.828   7.160  20.873  0.00  0.00    +0.000 OA
ATOM     19  C   UNL     1       0.185   8.511  21.385  0.00  0.00    +0.000 C 
ATOM     20  O   UNL     1      -0.681   8.364  22.283  0.00  0.00    +0.000 OA
ATOM     21  C   UNL     1       0.695  10.266  21.343  0.00  0.00    +0.000 C 
ATOM     22  C   UNL     1       0.725  11.790  21.153  0.00  0.00    +0.000 C 
ATOM     23  H   UNL     1       1.609  16.103  19.385  0.00  0.00    +0.000 HD
ENDROOT
TORSDOF 0
ENDMDL
MODEL 6
REMARK VINA RESULT:      -6.1      3.514      5.219
REMARK  Name = 
REMARK  2 active torsions:
REMARK  status: ('A' for Active; 'I' for Inactive)
REMARK    1  A    between atoms: C_1  and  C_2
REMARK    2  A    between atoms: C_16  and  C_17
REMARK                            x       y       z     vdW  Elec       q    Type
REMARK                         _______ _______ _______ _____ _____    ______ ____
ROOT
ATOM      1  C   UNL     1      -1.742  15.904  26.034  0.00  0.00    +0.000 C 
ATOM      2  C   UNL     1      -1.313  15.771  24.506  0.00  0.00    +0.000 A 
ATOM      3  N   UNL     1      -0.279  15.428  23.645  0.00  0.00    +0.000 NA
ATOM      4  C   UNL     1      -0.809  15.129  22.234  0.00  0.00    +0.000 A 
ATOM      5  C   UNL     1      -2.231  15.144  22.561  0.00  0.00    +0.000 A 
ATOM      6  N   UNL     1      -2.470  15.718  23.788  0.00  0.00    +0.000 N 
ATOM      7  C   UNL     1      -3.369  14.168  22.350  0.00  0.00    +0.000 C 
ATOM      8  C   UNL     1      -2.960  12.939  23.234  0.00  0.00    +0.000 C 
ATOM      9  C   UNL     1      -1.966  12.300  22.378  0.00  0.00    +0.000 C 
ATOM     10  C   UNL     1      -0.947  11.380  22.936  0.00  0.00    +0.000 C 
ATOM     11  C   UNL     1      -0.118  11.301  21.707  0.00  0.00    +0.000 C 
ATOM     12  C   UNL     1       0.541  10.013  21.511  0.00  0.00    +0.000 C 
ATOM     13  C   UNL     1       0.500  10.079  20.037  0.00  0.00    +0.000 C 
ATOM     14  C   UNL     1       1.008   8.869  19.467  0.00  0.00    +0.000 C 
ATOM     15  C   UNL     1       0.939   9.148  17.972  0.00  0.00    +0.000 C 
ATOM     16  C   UNL     1       2.350   9.541  17.626  0.00  0.00    +0.000 C 
ATOM     17  C   UNL     1       2.779   7.794  18.037  0.00  0.00    +0.000 C 
ATOM     18  O   UNL     1       2.128  11.259  18.305  0.00  0.00    +0.000 OA
ATOM     19  C   UNL     1       1.902  12.709  18.897  0.00  0.00    +0.000 C 
ATOM     20  O   UNL     1       2.652  13.589  18.406  0.00  0.00    +0.000 OA
ATOM     21  C   UNL     1       0.525  13.530  19.774  0.00  0.00    +0.000 C 
ATOM     22  C   UNL     1      -0.314  14.328  20.784  0.00  0.00    +0.000 C 
ATOM     23  H   UNL     1      -3.285  15.428  24.316  0.00  0.00    +0.000 HD
ENDROOT
TORSDOF 0
ENDMDL
MODEL 7
REMARK VINA RESULT:      -6.0      3.595      7.531
REMARK  Name = 
REMARK  2 active torsions:
REMARK  status: ('A' for Active; 'I' for Inactive)
REMARK    1  A    between atoms: C_1  and  C_2
REMARK    2  A    between atoms: C_16  and  C_17
REMARK                            x       y       z     vdW  Elec       q    Type
REMARK                         _______ _______ _______ _____ _____    ______ ____
ROOT
ATOM      1  C   UNL     1       8.003   4.459  18.078  0.00  0.00    +0.000 C 
ATOM      2  C   UNL     1       6.651   4.698  18.885  0.00  0.00    +0.000 A 
ATOM      3  N   UNL     1       5.953   5.591  19.689  0.00  0.00    +0.000 NA
ATOM      4  C   UNL     1       4.454   5.257  19.714  0.00  0.00    +0.000 A 
ATOM      5  C   UNL     1       4.468   4.248  18.660  0.00  0.00    +0.000 A 
ATOM      6  N   UNL     1       5.743   3.816  18.379  0.00  0.00    +0.000 N 
ATOM      7  C   UNL     1       3.692   4.060  17.373  0.00  0.00    +0.000 C 
ATOM      8  C   UNL     1       4.136   5.286  16.501  0.00  0.00    +0.000 C 
ATOM      9  C   UNL     1       3.329   6.351  17.087  0.00  0.00    +0.000 C 
ATOM     10  C   UNL     1       3.711   7.775  16.944  0.00  0.00    +0.000 C 
ATOM     11  C   UNL     1       2.732   8.299  17.929  0.00  0.00    +0.000 C 
ATOM     12  C   UNL     1       2.222   9.631  17.616  0.00  0.00    +0.000 C 
ATOM     13  C   UNL     1       0.897   9.399  18.220  0.00  0.00    +0.000 C 
ATOM     14  C   UNL     1       0.044  10.528  18.007  0.00  0.00    +0.000 C 
ATOM     15  C   UNL     1      -1.230  10.129  18.738  0.00  0.00    +0.000 C 
ATOM     16  C   UNL     1      -1.117  10.851  20.055  0.00  0.00    +0.000 C 
ATOM     17  C   UNL     1      -1.286  12.392  19.053  0.00  0.00    +0.000 C 
ATOM     18  O   UNL     1       0.076   9.596  20.737  0.00  0.00    +0.000 OA
ATOM     19  C   UNL     1       1.092   8.512  21.279  0.00  0.00    +0.000 C 
ATOM     20  O   UNL     1       1.116   8.407  22.531  0.00  0.00    +0.000 OA
ATOM     21  C   UNL     1       1.908   7.048  20.550  0.00  0.00    +0.000 C 
ATOM     22  C   UNL     1       2.944   6.005  20.106  0.00  0.00    +0.000 C 
ATOM     23  H   UNL     1       5.954   3.477  17.448  0.00  0.00    +0.000 HD
ENDROOT
TORSDOF 0
ENDMDL
MODEL 8
REMARK VINA RESULT:      -5.9      5.397      8.225
REMARK  Name = 
REMARK  2 active torsions:
REMARK  status: ('A' for Active; 'I' for Inactive)
REMARK    1  A    between atoms: C_1  and  C_2
REMARK    2  A    between atoms: C_16  and  C_17
REMARK                            x       y       z     vdW  Elec       q    Type
REMARK                         _______ _______ _______ _____ _____    ______ ____
ROOT
ATOM      1  C   UNL     1      -7.133  13.487  23.609  0.00  0.00    +0.000 C 
ATOM      2  C   UNL     1      -5.651  12.915  23.495  0.00  0.00    +0.000 A 
ATOM      3  N   UNL     1      -4.696  12.406  22.624  0.00  0.00    +0.000 NA
ATOM      4  C   UNL     1      -3.288  12.492  23.234  0.00  0.00    +0.000 A 
ATOM      5  C   UNL     1      -3.636  13.302  24.396  0.00  0.00    +0.000 A 
ATOM      6  N   UNL     1      -4.994  13.332  24.615  0.00  0.00    +0.000 N 
ATOM      7  C   UNL     1      -3.114  14.606  24.965  0.00  0.00    +0.000 C 
ATOM      8  C   UNL     1      -3.477  15.655  23.856  0.00  0.00    +0.000 C 
ATOM      9  C   UNL     1      -2.421  15.406  22.881  0.00  0.00    +0.000 C 
ATOM     10  C   UNL     1      -2.577  15.796  21.460  0.00  0.00    +0.000 C 
ATOM     11  C   UNL     1      -1.382  15.068  20.966  0.00  0.00    +0.000 C 
ATOM     12  C   UNL     1      -0.712  15.711  19.840  0.00  0.00    +0.000 C 
ATOM     13  C   UNL     1       0.634  15.235  20.211  0.00  0.00    +0.000 C 
ATOM     14  C   UNL     1       1.620  15.781  19.329  0.00  0.00    +0.000 C 
ATOM     15  C   UNL     1       2.908  15.141  19.828  0.00  0.00    +0.000 C 
ATOM     16  C   UNL     1       3.125  14.001  18.869  0.00  0.00    +0.000 C 
ATOM     17  C   UNL     1       3.391  15.315  17.602  0.00  0.00    +0.000 C 
ATOM     18  O   UNL     1       1.860  12.933  19.721  0.00  0.00    +0.000 OA
ATOM     19  C   UNL     1       0.774  12.058  20.467  0.00  0.00    +0.000 C 
ATOM     20  O   UNL     1       0.930  10.818  20.334  0.00  0.00    +0.000 OA
ATOM     21  C   UNL     1      -0.379  12.361  21.852  0.00  0.00    +0.000 C 
ATOM     22  C   UNL     1      -1.632  12.449  22.736  0.00  0.00    +0.000 C 
ATOM     23  H   UNL     1      -5.401  14.139  25.071  0.00  0.00    +0.000 HD
ENDROOT
TORSDOF 0
ENDMDL
MODEL 9
REMARK VINA RESULT:      -5.7      5.395      8.625
REMARK  Name = 
REMARK  2 active torsions:
REMARK  status: ('A' for Active; 'I' for Inactive)
REMARK    1  A    between atoms: C_1  and  C_2
REMARK    2  A    between atoms: C_16  and  C_17
REMARK                            x       y       z     vdW  Elec       q    Type
REMARK                         _______ _______ _______ _____ _____    ______ ____
ROOT
ATOM      1  C   UNL     1       1.971   9.114  18.888  0.00  0.00    +0.000 C 
ATOM      2  C   UNL     1       0.583   9.831  18.582  0.00  0.00    +0.000 A 
ATOM      3  N   UNL     1      -0.789   9.779  18.789  0.00  0.00    +0.000 NA
ATOM      4  C   UNL     1      -1.443  11.143  18.518  0.00  0.00    +0.000 A 
ATOM      5  C   UNL     1      -0.213  11.916  18.377  0.00  0.00    +0.000 A 
ATOM      6  N   UNL     1       0.886  11.106  18.207  0.00  0.00    +0.000 N 
ATOM      7  C   UNL     1       0.319  13.175  19.030  0.00  0.00    +0.000 C 
ATOM      8  C   UNL     1       0.501  12.756  20.530  0.00  0.00    +0.000 C 
ATOM      9  C   UNL     1      -0.876  12.830  21.008  0.00  0.00    +0.000 C 
ATOM     10  C   UNL     1      -1.315  12.089  22.213  0.00  0.00    +0.000 C 
ATOM     11  C   UNL     1      -2.768  12.321  22.020  0.00  0.00    +0.000 C 
ATOM     12  C   UNL     1      -3.526  12.434  23.262  0.00  0.00    +0.000 C 
ATOM     13  C   UNL     1      -4.522  13.373  22.712  0.00  0.00    +0.000 C 
ATOM     14  C   UNL     1      -5.427  13.800  23.734  0.00  0.00    +0.000 C 
ATOM     15  C   UNL     1      -6.392  14.699  22.974  0.00  0.00    +0.000 C 
ATOM     16  C   UNL     1      -7.579  13.805  22.726  0.00  0.00    +0.000 C 
ATOM     17  C   UNL     1      -7.806  13.852  24.557  0.00  0.00    +0.000 C 
ATOM     18  O   UNL     1      -6.735  12.936  21.313  0.00  0.00    +0.000 OA
ATOM     19  C   UNL     1      -5.984  12.217  20.121  0.00  0.00    +0.000 C 
ATOM     20  O   UNL     1      -6.746  11.705  19.264  0.00  0.00    +0.000 OA
ATOM     21  C   UNL     1      -4.300  12.331  19.419  0.00  0.00    +0.000 C 
ATOM     22  C   UNL     1      -2.905  11.997  18.869  0.00  0.00    +0.000 C 
ATOM     23  H   UNL     1       1.793  11.436  18.515  0.00  0.00    +0.000 HD
ENDROOT
TORSDOF 0
ENDMDL
