MODEL 1
REMARK VINA RESULT:      -9.4      0.000      0.000
REMARK  Name = 
REMARK  2 active torsions:
REMARK  status: ('A' for Active; 'I' for Inactive)
REMARK    1  A    between atoms: C_2  and  O_3
REMARK    2  A    between atoms: C_2  and  C_4
REMARK                            x       y       z     vdW  Elec       q    Type
REMARK                         _______ _______ _______ _____ _____    ______ ____
ROOT
ATOM      1  C   UNL     1       6.184   4.200  13.958  0.00  0.00    +0.000 A 
ATOM      2  C   UNL     1       5.476   3.970  15.075  0.00  0.00    +0.000 A 
ATOM      3  C   UNL     1       5.836   4.614  16.324  0.00  0.00    +0.000 A 
ATOM      4  C   UNL     1       6.947   5.460  16.358  0.00  0.00    +0.000 A 
ATOM      5  C   UNL     1       7.373   6.085  17.527  0.00  0.00    +0.000 A 
ATOM      6  C   UNL     1       6.676   5.876  18.719  0.00  0.00    +0.000 A 
ATOM      7  C   UNL     1       5.560   5.037  18.665  0.00  0.00    +0.000 A 
ATOM      8  O   UNL     1       4.772   4.732  19.730  0.00  0.00    +0.000 OA
ATOM      9  C   UNL     1       3.799   3.894  19.283  0.00  0.00    +0.000 A 
ATOM     10  C   UNL     1       2.787   3.350  20.073  0.00  0.00    +0.000 A 
ATOM     11  C   UNL     1       1.874   2.508  19.434  0.00  0.00    +0.000 A 
ATOM     12  C   UNL     1       1.981   2.234  18.071  0.00  0.00    +0.000 A 
ATOM     13  C   UNL     1       3.009   2.797  17.303  0.00  0.00    +0.000 A 
ATOM     14  C   UNL     1       3.950   3.650  17.921  0.00  0.00    +0.000 A 
ATOM     15  C   UNL     1       5.105   4.394  17.513  0.00  0.00    +0.000 A 
ATOM     16  O   UNL     1       7.682   5.710  15.181  0.00  0.00    +0.000 OA
ATOM     17  C   UNL     1       7.328   5.125  13.971  0.00  0.00    +0.000 A 
ATOM     18  O   UNL     1       7.946   5.360  12.934  0.00  0.00    +0.000 OA
ENDROOT
BRANCH   1  20
ATOM     19  O   UNL     1       4.638   3.601  12.248  0.00  0.00    +0.000 OA
ATOM     20  C   UNL     1       5.754   3.478  12.736  0.00  0.00    +0.000 C 
BRANCH  20  21
ATOM     21  O   UNL     1       6.679   2.664  12.188  0.00  0.00    +0.000 OA
ATOM     22  H   UNL     1       7.527   2.588  12.687  0.00  0.00    +0.000 HD
ENDBRANCH  20  21
ENDBRANCH   1  20
TORSDOF 2
ENDMDL
MODEL 2
REMARK VINA RESULT:      -8.8      1.610      5.647
REMARK  Name = 
REMARK  2 active torsions:
REMARK  status: ('A' for Active; 'I' for Inactive)
REMARK    1  A    between atoms: C_2  and  O_3
REMARK    2  A    between atoms: C_2  and  C_4
REMARK                            x       y       z     vdW  Elec       q    Type
REMARK                         _______ _______ _______ _____ _____    ______ ____
ROOT
ATOM      1  C   UNL     1       3.220   3.585  18.239  0.00  0.00    +0.000 A 
ATOM      2  C   UNL     1       3.979   3.765  17.147  0.00  0.00    +0.000 A 
ATOM      3  C   UNL     1       5.164   4.600  17.200  0.00  0.00    +0.000 A 
ATOM      4  C   UNL     1       5.494   5.237  18.399  0.00  0.00    +0.000 A 
ATOM      5  C   UNL     1       6.597   6.080  18.516  0.00  0.00    +0.000 A 
ATOM      6  C   UNL     1       7.418   6.307  17.409  0.00  0.00    +0.000 A 
ATOM      7  C   UNL     1       7.080   5.653  16.222  0.00  0.00    +0.000 A 
ATOM      8  O   UNL     1       7.773   5.762  15.058  0.00  0.00    +0.000 OA
ATOM      9  C   UNL     1       7.140   4.984  14.139  0.00  0.00    +0.000 A 
ATOM     10  C   UNL     1       7.541   4.825  12.813  0.00  0.00    +0.000 A 
ATOM     11  C   UNL     1       6.763   3.982  12.016  0.00  0.00    +0.000 A 
ATOM     12  C   UNL     1       5.642   3.336  12.537  0.00  0.00    +0.000 A 
ATOM     13  C   UNL     1       5.265   3.514  13.874  0.00  0.00    +0.000 A 
ATOM     14  C   UNL     1       6.029   4.364  14.704  0.00  0.00    +0.000 A 
ATOM     15  C   UNL     1       5.984   4.802  16.068  0.00  0.00    +0.000 A 
ATOM     16  O   UNL     1       4.702   5.037  19.548  0.00  0.00    +0.000 OA
ATOM     17  C   UNL     1       3.583   4.214  19.519  0.00  0.00    +0.000 A 
ATOM     18  O   UNL     1       2.903   4.010  20.523  0.00  0.00    +0.000 OA
ENDROOT
BRANCH   1  20
ATOM     19  O   UNL     1       0.911   3.185  17.810  0.00  0.00    +0.000 OA
ATOM     20  C   UNL     1       2.016   2.733  18.080  0.00  0.00    +0.000 C 
BRANCH  20  21
ATOM     21  O   UNL     1       2.215   1.411  18.256  0.00  0.00    +0.000 OA
ATOM     22  H   UNL     1       1.428   0.838  18.094  0.00  0.00    +0.000 HD
ENDBRANCH  20  21
ENDBRANCH   1  20
TORSDOF 2
ENDMDL
MODEL 3
REMARK VINA RESULT:      -7.9      5.270      7.591
REMARK  Name = 
REMARK  2 active torsions:
REMARK  status: ('A' for Active; 'I' for Inactive)
REMARK    1  A    between atoms: C_2  and  O_3
REMARK    2  A    between atoms: C_2  and  C_4
REMARK                            x       y       z     vdW  Elec       q    Type
REMARK                         _______ _______ _______ _____ _____    ______ ____
ROOT
ATOM      1  C   UNL     1       2.050   4.730  20.323  0.00  0.00    +0.000 A 
ATOM      2  C   UNL     1       1.608   5.958  20.637  0.00  0.00    +0.000 A 
ATOM      3  C   UNL     1       1.817   7.072  19.732  0.00  0.00    +0.000 A 
ATOM      4  C   UNL     1       2.508   6.858  18.536  0.00  0.00    +0.000 A 
ATOM      5  C   UNL     1       2.776   7.886  17.636  0.00  0.00    +0.000 A 
ATOM      6  C   UNL     1       2.344   9.184  17.915  0.00  0.00    +0.000 A 
ATOM      7  C   UNL     1       1.643   9.379  19.109  0.00  0.00    +0.000 A 
ATOM      8  O   UNL     1       1.152  10.574  19.528  0.00  0.00    +0.000 OA
ATOM      9  C   UNL     1       0.541  10.360  20.724  0.00  0.00    +0.000 A 
ATOM     10  C   UNL     1      -0.092  11.342  21.486  0.00  0.00    +0.000 A 
ATOM     11  C   UNL     1      -0.666  10.931  22.691  0.00  0.00    +0.000 A 
ATOM     12  C   UNL     1      -0.604   9.598  23.099  0.00  0.00    +0.000 A 
ATOM     13  C   UNL     1       0.038   8.635  22.310  0.00  0.00    +0.000 A 
ATOM     14  C   UNL     1       0.632   9.020  21.088  0.00  0.00    +0.000 A 
ATOM     15  C   UNL     1       1.357   8.373  20.034  0.00  0.00    +0.000 A 
ATOM     16  O   UNL     1       2.961   5.566  18.203  0.00  0.00    +0.000 OA
ATOM     17  C   UNL     1       2.739   4.483  19.046  0.00  0.00    +0.000 A 
ATOM     18  O   UNL     1       3.105   3.347  18.750  0.00  0.00    +0.000 OA
ENDROOT
BRANCH   1  20
ATOM     19  O   UNL     1       2.492   3.523  22.328  0.00  0.00    +0.000 OA
ATOM     20  C   UNL     1       1.810   3.661  21.321  0.00  0.00    +0.000 C 
BRANCH  20  21
ATOM     21  O   UNL     1       0.779   2.835  21.048  0.00  0.00    +0.000 OA
ATOM     22  H   UNL     1      -0.120   3.219  21.185  0.00  0.00    +0.000 HD
ENDBRANCH  20  21
ENDBRANCH   1  20
TORSDOF 2
ENDMDL
MODEL 4
REMARK VINA RESULT:      -7.8      5.346      8.290
REMARK  Name = 
REMARK  2 active torsions:
REMARK  status: ('A' for Active; 'I' for Inactive)
REMARK    1  A    between atoms: C_2  and  O_3
REMARK    2  A    between atoms: C_2  and  C_4
REMARK                            x       y       z     vdW  Elec       q    Type
REMARK                         _______ _______ _______ _____ _____    ______ ____
ROOT
ATOM      1  C   UNL     1       0.649   9.531  21.877  0.00  0.00    +0.000 A 
ATOM      2  C   UNL     1       1.078   8.347  21.415  0.00  0.00    +0.000 A 
ATOM      3  C   UNL     1       1.609   8.227  20.070  0.00  0.00    +0.000 A 
ATOM      4  C   UNL     1       1.645   9.357  19.250  0.00  0.00    +0.000 A 
ATOM      5  C   UNL     1       2.109   9.311  17.937  0.00  0.00    +0.000 A 
ATOM      6  C   UNL     1       2.562   8.103  17.403  0.00  0.00    +0.000 A 
ATOM      7  C   UNL     1       2.531   6.985  18.241  0.00  0.00    +0.000 A 
ATOM      8  O   UNL     1       2.937   5.740  17.880  0.00  0.00    +0.000 OA
ATOM      9  C   UNL     1       2.752   4.929  18.956  0.00  0.00    +0.000 A 
ATOM     10  C   UNL     1       3.049   3.567  18.992  0.00  0.00    +0.000 A 
ATOM     11  C   UNL     1       2.791   2.898  20.191  0.00  0.00    +0.000 A 
ATOM     12  C   UNL     1       2.264   3.573  21.291  0.00  0.00    +0.000 A 
ATOM     13  C   UNL     1       1.978   4.943  21.225  0.00  0.00    +0.000 A 
ATOM     14  C   UNL     1       2.224   5.646  20.025  0.00  0.00    +0.000 A 
ATOM     15  C   UNL     1       2.073   6.994  19.560  0.00  0.00    +0.000 A 
ATOM     16  O   UNL     1       1.205  10.603  19.742  0.00  0.00    +0.000 OA
ATOM     17  C   UNL     1       0.725  10.737  21.039  0.00  0.00    +0.000 A 
ATOM     18  O   UNL     1       0.366  11.826  21.486  0.00  0.00    +0.000 OA
ENDROOT
BRANCH   1  20
ATOM     19  O   UNL     1       0.793   9.368  24.249  0.00  0.00    +0.000 OA
ATOM     20  C   UNL     1       0.102   9.549  23.256  0.00  0.00    +0.000 C 
BRANCH  20  21
ATOM     21  O   UNL     1      -1.224   9.778  23.350  0.00  0.00    +0.000 OA
ATOM     22  H   UNL     1      -1.790   8.972  23.418  0.00  0.00    +0.000 HD
ENDBRANCH  20  21
ENDBRANCH   1  20
TORSDOF 2
ENDMDL
MODEL 5
REMARK VINA RESULT:      -7.7      4.518      7.034
REMARK  Name = 
REMARK  2 active torsions:
REMARK  status: ('A' for Active; 'I' for Inactive)
REMARK    1  A    between atoms: C_2  and  O_3
REMARK    2  A    between atoms: C_2  and  C_4
REMARK                            x       y       z     vdW  Elec       q    Type
REMARK                         _______ _______ _______ _____ _____    ______ ____
ROOT
ATOM      1  C   UNL     1       2.576   3.914  20.497  0.00  0.00    +0.000 A 
ATOM      2  C   UNL     1       2.091   5.159  20.622  0.00  0.00    +0.000 A 
ATOM      3  C   UNL     1       2.380   6.169  19.622  0.00  0.00    +0.000 A 
ATOM      4  C   UNL     1       3.193   5.837  18.535  0.00  0.00    +0.000 A 
ATOM      5  C   UNL     1       3.541   6.764  17.555  0.00  0.00    +0.000 A 
ATOM      6  C   UNL     1       3.069   8.075  17.640  0.00  0.00    +0.000 A 
ATOM      7  C   UNL     1       2.248   8.387  18.726  0.00  0.00    +0.000 A 
ATOM      8  O   UNL     1       1.703   9.611  18.955  0.00  0.00    +0.000 OA
ATOM      9  C   UNL     1       0.974   9.519  20.100  0.00  0.00    +0.000 A 
ATOM     10  C   UNL     1       0.257  10.566  20.677  0.00  0.00    +0.000 A 
ATOM     11  C   UNL     1      -0.434  10.280  21.857  0.00  0.00    +0.000 A 
ATOM     12  C   UNL     1      -0.400   9.003  22.418  0.00  0.00    +0.000 A 
ATOM     13  C   UNL     1       0.329   7.971  21.813  0.00  0.00    +0.000 A 
ATOM     14  C   UNL     1       1.042   8.230  20.622  0.00  0.00    +0.000 A 
ATOM     15  C   UNL     1       1.878   7.485  19.726  0.00  0.00    +0.000 A 
ATOM     16  O   UNL     1       3.691   4.526  18.399  0.00  0.00    +0.000 OA
ATOM     17  C   UNL     1       3.394   3.540  19.332  0.00  0.00    +0.000 A 
ATOM     18  O   UNL     1       3.800   2.386  19.207  0.00  0.00    +0.000 OA
ENDROOT
BRANCH   1  20
ATOM     19  O   UNL     1       1.129   2.872  22.076  0.00  0.00    +0.000 OA
ATOM     20  C   UNL     1       2.245   2.958  21.581  0.00  0.00    +0.000 C 
BRANCH  20  21
ATOM     21  O   UNL     1       3.263   2.178  21.996  0.00  0.00    +0.000 OA
ATOM     22  H   UNL     1       3.467   2.223  22.961  0.00  0.00    +0.000 HD
ENDBRANCH  20  21
ENDBRANCH   1  20
TORSDOF 2
ENDMDL
MODEL 6
REMARK VINA RESULT:      -7.5      3.936      6.787
REMARK  Name = 
REMARK  2 active torsions:
REMARK  status: ('A' for Active; 'I' for Inactive)
REMARK    1  A    between atoms: C_2  and  O_3
REMARK    2  A    between atoms: C_2  and  C_4
REMARK                            x       y       z     vdW  Elec       q    Type
REMARK                         _______ _______ _______ _____ _____    ______ ____
ROOT
ATOM      1  C   UNL     1       1.755   8.862  18.893  0.00  0.00    +0.000 A 
ATOM      2  C   UNL     1       2.558   7.955  18.318  0.00  0.00    +0.000 A 
ATOM      3  C   UNL     1       2.750   6.650  18.921  0.00  0.00    +0.000 A 
ATOM      4  C   UNL     1       2.107   6.356  20.126  0.00  0.00    +0.000 A 
ATOM      5  C   UNL     1       2.272   5.138  20.781  0.00  0.00    +0.000 A 
ATOM      6  C   UNL     1       3.101   4.159  20.229  0.00  0.00    +0.000 A 
ATOM      7  C   UNL     1       3.726   4.464  19.017  0.00  0.00    +0.000 A 
ATOM      8  O   UNL     1       4.559   3.625  18.346  0.00  0.00    +0.000 OA
ATOM      9  C   UNL     1       4.964   4.275  17.223  0.00  0.00    +0.000 A 
ATOM     10  C   UNL     1       5.830   3.751  16.264  0.00  0.00    +0.000 A 
ATOM     11  C   UNL     1       6.131   4.569  15.173  0.00  0.00    +0.000 A 
ATOM     12  C   UNL     1       5.584   5.847  15.060  0.00  0.00    +0.000 A 
ATOM     13  C   UNL     1       4.715   6.345  16.040  0.00  0.00    +0.000 A 
ATOM     14  C   UNL     1       4.394   5.543  17.157  0.00  0.00    +0.000 A 
ATOM     15  C   UNL     1       3.585   5.673  18.334  0.00  0.00    +0.000 A 
ATOM     16  O   UNL     1       1.254   7.306  20.723  0.00  0.00    +0.000 OA
ATOM     17  C   UNL     1       1.036   8.548  20.138  0.00  0.00    +0.000 A 
ATOM     18  O   UNL     1       0.271   9.372  20.637  0.00  0.00    +0.000 OA
ENDROOT
BRANCH   1  20
ATOM     19  O   UNL     1       2.605  10.886  17.969  0.00  0.00    +0.000 OA
ATOM     20  C   UNL     1       1.639  10.176  18.214  0.00  0.00    +0.000 C 
BRANCH  20  21
ATOM     21  O   UNL     1       0.386  10.546  17.878  0.00  0.00    +0.000 OA
ATOM     22  H   UNL     1       0.126  10.363  16.943  0.00  0.00    +0.000 HD
ENDBRANCH  20  21
ENDBRANCH   1  20
TORSDOF 2
ENDMDL
MODEL 7
REMARK VINA RESULT:      -7.4      4.866      7.747
REMARK  Name = 
REMARK  2 active torsions:
REMARK  status: ('A' for Active; 'I' for Inactive)
REMARK    1  A    between atoms: C_2  and  O_3
REMARK    2  A    between atoms: C_2  and  C_4
REMARK                            x       y       z     vdW  Elec       q    Type
REMARK                         _______ _______ _______ _____ _____    ______ ____
ROOT
ATOM      1  C   UNL     1       0.617   9.122  21.246  0.00  0.00    +0.000 A 
ATOM      2  C   UNL     1       1.145   7.915  20.989  0.00  0.00    +0.000 A 
ATOM      3  C   UNL     1       1.899   7.682  19.772  0.00  0.00    +0.000 A 
ATOM      4  C   UNL     1       2.048   8.724  18.853  0.00  0.00    +0.000 A 
ATOM      5  C   UNL     1       2.728   8.564  17.648  0.00  0.00    +0.000 A 
ATOM      6  C   UNL     1       3.292   7.328  17.328  0.00  0.00    +0.000 A 
ATOM      7  C   UNL     1       3.144   6.299  18.263  0.00  0.00    +0.000 A 
ATOM      8  O   UNL     1       3.633   5.041  18.109  0.00  0.00    +0.000 OA
ATOM      9  C   UNL     1       3.287   4.336  19.219  0.00  0.00    +0.000 A 
ATOM     10  C   UNL     1       3.604   2.998  19.448  0.00  0.00    +0.000 A 
ATOM     11  C   UNL     1       3.161   2.443  20.651  0.00  0.00    +0.000 A 
ATOM     12  C   UNL     1       2.441   3.204  21.571  0.00  0.00    +0.000 A 
ATOM     13  C   UNL     1       2.140   4.548  21.313  0.00  0.00    +0.000 A 
ATOM     14  C   UNL     1       2.569   5.136  20.103  0.00  0.00    +0.000 A 
ATOM     15  C   UNL     1       2.469   6.423  19.479  0.00  0.00    +0.000 A 
ATOM     16  O   UNL     1       1.503   9.994  19.131  0.00  0.00    +0.000 OA
ATOM     17  C   UNL     1       0.808  10.240  20.308  0.00  0.00    +0.000 A 
ATOM     18  O   UNL     1       0.354  11.353  20.572  0.00  0.00    +0.000 OA
ENDROOT
BRANCH   1  20
ATOM     19  O   UNL     1      -1.062   8.497  22.815  0.00  0.00    +0.000 OA
ATOM     20  C   UNL     1      -0.155   9.257  22.505  0.00  0.00    +0.000 C 
BRANCH  20  21
ATOM     21  O   UNL     1       0.208  10.285  23.299  0.00  0.00    +0.000 OA
ATOM     22  H   UNL     1       0.873  10.904  22.915  0.00  0.00    +0.000 HD
ENDBRANCH  20  21
ENDBRANCH   1  20
TORSDOF 2
ENDMDL
MODEL 8
REMARK VINA RESULT:      -7.4      4.122      6.647
REMARK  Name = 
REMARK  2 active torsions:
REMARK  status: ('A' for Active; 'I' for Inactive)
REMARK    1  A    between atoms: C_2  and  O_3
REMARK    2  A    between atoms: C_2  and  C_4
REMARK                            x       y       z     vdW  Elec       q    Type
REMARK                         _______ _______ _______ _____ _____    ______ ____
ROOT
ATOM      1  C   UNL     1       2.698   3.666  20.151  0.00  0.00    +0.000 A 
ATOM      2  C   UNL     1       2.358   4.958  20.029  0.00  0.00    +0.000 A 
ATOM      3  C   UNL     1       2.888   5.762  18.944  0.00  0.00    +0.000 A 
ATOM      4  C   UNL     1       3.778   5.180  18.037  0.00  0.00    +0.000 A 
ATOM      5  C   UNL     1       4.353   5.899  16.992  0.00  0.00    +0.000 A 
ATOM      6  C   UNL     1       4.040   7.249  16.822  0.00  0.00    +0.000 A 
ATOM      7  C   UNL     1       3.138   7.812  17.729  0.00  0.00    +0.000 A 
ATOM      8  O   UNL     1       2.725   9.106  17.703  0.00  0.00    +0.000 OA
ATOM      9  C   UNL     1       1.859   9.273  18.738  0.00  0.00    +0.000 A 
ATOM     10  C   UNL     1       1.211  10.466  19.055  0.00  0.00    +0.000 A 
ATOM     11  C   UNL     1       0.354  10.444  20.158  0.00  0.00    +0.000 A 
ATOM     12  C   UNL     1       0.162   9.275  20.895  0.00  0.00    +0.000 A 
ATOM     13  C   UNL     1       0.827   8.091  20.550  0.00  0.00    +0.000 A 
ATOM     14  C   UNL     1       1.703   8.083  19.444  0.00  0.00    +0.000 A 
ATOM     15  C   UNL     1       2.543   7.123  18.788  0.00  0.00    +0.000 A 
ATOM     16  O   UNL     1       4.124   3.819  18.160  0.00  0.00    +0.000 OA
ATOM     17  C   UNL     1       3.598   3.030  19.176  0.00  0.00    +0.000 A 
ATOM     18  O   UNL     1       3.871   1.835  19.274  0.00  0.00    +0.000 OA
ENDROOT
BRANCH   1  20
ATOM     19  O   UNL     1       2.808   2.467  22.206  0.00  0.00    +0.000 OA
ATOM     20  C   UNL     1       2.123   2.933  21.305  0.00  0.00    +0.000 C 
BRANCH  20  21
ATOM     21  O   UNL     1       0.780   2.807  21.302  0.00  0.00    +0.000 OA
ATOM     22  H   UNL     1       0.313   3.263  20.561  0.00  0.00    +0.000 HD
ENDBRANCH  20  21
ENDBRANCH   1  20
TORSDOF 2
ENDMDL
MODEL 9
REMARK VINA RESULT:      -7.1      3.919      5.235
REMARK  Name = 
REMARK  2 active torsions:
REMARK  status: ('A' for Active; 'I' for Inactive)
REMARK    1  A    between atoms: C_2  and  O_3
REMARK    2  A    between atoms: C_2  and  C_4
REMARK                            x       y       z     vdW  Elec       q    Type
REMARK                         _______ _______ _______ _____ _____    ______ ____
ROOT
ATOM      1  C   UNL     1       4.889   5.705  16.778  0.00  0.00    +0.000 A 
ATOM      2  C   UNL     1       4.042   6.531  17.410  0.00  0.00    +0.000 A 
ATOM      3  C   UNL     1       3.360   6.108  18.619  0.00  0.00    +0.000 A 
ATOM      4  C   UNL     1       3.576   4.816  19.105  0.00  0.00    +0.000 A 
ATOM      5  C   UNL     1       2.931   4.329  20.239  0.00  0.00    +0.000 A 
ATOM      6  C   UNL     1       2.034   5.145  20.932  0.00  0.00    +0.000 A 
ATOM      7  C   UNL     1       1.838   6.438  20.439  0.00  0.00    +0.000 A 
ATOM      8  O   UNL     1       1.005   7.357  20.994  0.00  0.00    +0.000 OA
ATOM      9  C   UNL     1       1.085   8.482  20.235  0.00  0.00    +0.000 A 
ATOM     10  C   UNL     1       0.378   9.660  20.475  0.00  0.00    +0.000 A 
ATOM     11  C   UNL     1       0.592  10.714  19.583  0.00  0.00    +0.000 A 
ATOM     12  C   UNL     1       1.474  10.581  18.512  0.00  0.00    +0.000 A 
ATOM     13  C   UNL     1       2.171   9.385  18.298  0.00  0.00    +0.000 A 
ATOM     14  C   UNL     1       1.973   8.299  19.180  0.00  0.00    +0.000 A 
ATOM     15  C   UNL     1       2.467   6.959  19.307  0.00  0.00    +0.000 A 
ATOM     16  O   UNL     1       4.477   3.954  18.447  0.00  0.00    +0.000 OA
ATOM     17  C   UNL     1       5.161   4.359  17.307  0.00  0.00    +0.000 A 
ATOM     18  O   UNL     1       5.970   3.624  16.743  0.00  0.00    +0.000 OA
ENDROOT
BRANCH   1  20
ATOM     19  O   UNL     1       4.975   7.025  14.797  0.00  0.00    +0.000 OA
ATOM     20  C   UNL     1       5.521   6.219  15.539  0.00  0.00    +0.000 C 
BRANCH  20  21
ATOM     21  O   UNL     1       6.753   5.737  15.274  0.00  0.00    +0.000 OA
ATOM     22  H   UNL     1       7.257   5.408  16.056  0.00  0.00    +0.000 HD
ENDBRANCH  20  21
ENDBRANCH   1  20
TORSDOF 2
ENDMDL
