MODEL 1
REMARK VINA RESULT:      -7.6      0.000      0.000
REMARK  Name = 
REMARK  4 active torsions:
REMARK  status: ('A' for Active; 'I' for Inactive)
REMARK    1  A    between atoms: C_2  and  C_3
REMARK    2  A    between atoms: C_2  and  C_18
REMARK    3  A    between atoms: C_8  and  O_9
REMARK    4  A    between atoms: O_9  and  C_10
REMARK                            x       y       z     vdW  Elec       q    Type
REMARK                         _______ _______ _______ _____ _____    ______ ____
ROOT
ATOM      1  C   UNL     1       1.974   5.927  19.704  0.00  0.00    +0.000 C 
ATOM      2  O   UNL     1       1.416   5.280  20.587  0.00  0.00    +0.000 OA
ATOM      3  N   UNL     1       2.160   7.314  19.761  0.00  0.00    +0.000 N 
ATOM      4  C   UNL     1       1.802   7.980  20.994  0.00  0.00    +0.000 C 
ATOM      5  C   UNL     1       0.443   8.632  20.836  0.00  0.00    +0.000 C 
ATOM      6  C   UNL     1       0.480   9.697  19.734  0.00  0.00    +0.000 C 
ATOM      7  C   UNL     1       1.038   9.081  18.425  0.00  0.00    +0.000 C 
ATOM      8  C   UNL     1       2.306   8.219  18.619  0.00  0.00    +0.000 C 
ENDROOT
BRANCH   1  10
ATOM      9  O   UNL     1       1.639   4.742  17.708  0.00  0.00    +0.000 OA
ATOM     10  C   UNL     1       2.489   5.167  18.493  0.00  0.00    +0.000 C 
BRANCH  10  11
ATOM     11  C   UNL     1       3.900   4.807  18.342  0.00  0.00    +0.000 A 
ATOM     12  C   UNL     1       4.549   4.050  19.301  0.00  0.00    +0.000 A 
ATOM     13  N   UNL     1       5.858   4.456  19.216  0.00  0.00    +0.000 N 
ATOM     14  C   UNL     1       6.124   4.634  17.899  0.00  0.00    +0.000 A 
ATOM     15  C   UNL     1       7.347   4.539  17.207  0.00  0.00    +0.000 A 
ATOM     16  C   UNL     1       7.304   4.778  15.838  0.00  0.00    +0.000 A 
ATOM     17  C   UNL     1       6.124   5.213  15.229  0.00  0.00    +0.000 A 
ATOM     18  C   UNL     1       4.923   5.360  15.961  0.00  0.00    +0.000 A 
ATOM     19  C   UNL     1       4.899   4.985  17.308  0.00  0.00    +0.000 A 
ATOM     20  H   UNL     1       6.476   4.621  19.985  0.00  0.00    +0.000 HD
ENDBRANCH  10  11
ENDBRANCH   1  10
BRANCH   6  21
ATOM     21  O   UNL     1       1.293  10.826  20.116  0.00  0.00    +0.000 OA
BRANCH  21  22
ATOM     22  C   UNL     1       0.841  12.061  19.712  0.00  0.00    +0.000 A 
ATOM     23  C   UNL     1      -0.460  12.532  19.892  0.00  0.00    +0.000 A 
ATOM     24  C   UNL     1      -0.827  13.816  19.475  0.00  0.00    +0.000 A 
ATOM     25  C   UNL     1       0.106  14.645  18.867  0.00  0.00    +0.000 A 
ATOM     26  C   UNL     1       1.413  14.193  18.693  0.00  0.00    +0.000 A 
ATOM     27  C   UNL     1       1.781  12.912  19.126  0.00  0.00    +0.000 A 
ENDBRANCH  21  22
ENDBRANCH   6  21
TORSDOF 4
ENDMDL
MODEL 2
REMARK VINA RESULT:      -7.5      2.617      9.262
REMARK  Name = 
REMARK  4 active torsions:
REMARK  status: ('A' for Active; 'I' for Inactive)
REMARK    1  A    between atoms: C_2  and  C_3
REMARK    2  A    between atoms: C_2  and  C_18
REMARK    3  A    between atoms: C_8  and  O_9
REMARK    4  A    between atoms: O_9  and  C_10
REMARK                            x       y       z     vdW  Elec       q    Type
REMARK                         _______ _______ _______ _____ _____    ______ ____
ROOT
ATOM      1  C   UNL     1       1.075   9.930  21.187  0.00  0.00    +0.000 C 
ATOM      2  O   UNL     1       1.432   9.635  22.325  0.00  0.00    +0.000 OA
ATOM      3  N   UNL     1       0.940   8.997  20.152  0.00  0.00    +0.000 N 
ATOM      4  C   UNL     1       1.091   7.600  20.496  0.00  0.00    +0.000 C 
ATOM      5  C   UNL     1       2.482   7.136  20.112  0.00  0.00    +0.000 C 
ATOM      6  C   UNL     1       2.695   7.262  18.598  0.00  0.00    +0.000 C 
ATOM      7  C   UNL     1       2.364   8.705  18.138  0.00  0.00    +0.000 C 
ATOM      8  C   UNL     1       1.047   9.269  18.717  0.00  0.00    +0.000 C 
ENDROOT
BRANCH   1  10
ATOM      9  O   UNL     1       1.713  12.173  20.936  0.00  0.00    +0.000 OA
ATOM     10  C   UNL     1       0.762  11.390  20.905  0.00  0.00    +0.000 C 
BRANCH  10  11
ATOM     11  C   UNL     1      -0.611  11.879  20.766  0.00  0.00    +0.000 A 
ATOM     12  C   UNL     1      -1.183  12.054  19.519  0.00  0.00    +0.000 A 
ATOM     13  N   UNL     1      -2.090  13.067  19.709  0.00  0.00    +0.000 N 
ATOM     14  C   UNL     1      -2.659  12.858  20.921  0.00  0.00    +0.000 A 
ATOM     15  C   UNL     1      -3.932  13.229  21.395  0.00  0.00    +0.000 A 
ATOM     16  C   UNL     1      -4.235  12.867  22.703  0.00  0.00    +0.000 A 
ATOM     17  C   UNL     1      -3.266  12.283  23.522  0.00  0.00    +0.000 A 
ATOM     18  C   UNL     1      -1.973  11.977  23.038  0.00  0.00    +0.000 A 
ATOM     19  C   UNL     1      -1.685  12.193  21.687  0.00  0.00    +0.000 A 
ATOM     20  H   UNL     1      -2.264  13.829  19.083  0.00  0.00    +0.000 HD
ENDBRANCH  10  11
ENDBRANCH   1  10
BRANCH   6  21
ATOM     21  O   UNL     1       1.873   6.327  17.869  0.00  0.00    +0.000 OA
BRANCH  21  22
ATOM     22  C   UNL     1       2.278   5.012  17.903  0.00  0.00    +0.000 A 
ATOM     23  C   UNL     1       1.469   3.938  18.279  0.00  0.00    +0.000 A 
ATOM     24  C   UNL     1       1.954   2.627  18.256  0.00  0.00    +0.000 A 
ATOM     25  C   UNL     1       3.261   2.374  17.861  0.00  0.00    +0.000 A 
ATOM     26  C   UNL     1       4.076   3.434  17.470  0.00  0.00    +0.000 A 
ATOM     27  C   UNL     1       3.581   4.746  17.479  0.00  0.00    +0.000 A 
ENDBRANCH  21  22
ENDBRANCH   6  21
TORSDOF 4
ENDMDL
MODEL 3
REMARK VINA RESULT:      -7.4      2.735      3.860
REMARK  Name = 
REMARK  4 active torsions:
REMARK  status: ('A' for Active; 'I' for Inactive)
REMARK    1  A    between atoms: C_2  and  C_3
REMARK    2  A    between atoms: C_2  and  C_18
REMARK    3  A    between atoms: C_8  and  O_9
REMARK    4  A    between atoms: O_9  and  C_10
REMARK                            x       y       z     vdW  Elec       q    Type
REMARK                         _______ _______ _______ _____ _____    ______ ____
ROOT
ATOM      1  C   UNL     1       1.723   7.740  20.258  0.00  0.00    +0.000 C 
ATOM      2  O   UNL     1       1.621   6.714  20.928  0.00  0.00    +0.000 OA
ATOM      3  N   UNL     1       1.474   9.021  20.765  0.00  0.00    +0.000 N 
ATOM      4  C   UNL     1       1.230   9.136  22.186  0.00  0.00    +0.000 C 
ATOM      5  C   UNL     1      -0.261   9.251  22.431  0.00  0.00    +0.000 C 
ATOM      6  C   UNL     1      -0.823  10.514  21.766  0.00  0.00    +0.000 C 
ATOM      7  C   UNL     1      -0.428  10.539  20.267  0.00  0.00    +0.000 C 
ATOM      8  C   UNL     1       1.054  10.194  19.994  0.00  0.00    +0.000 C 
ENDROOT
BRANCH   1  10
ATOM      9  O   UNL     1       1.753   8.464  18.028  0.00  0.00    +0.000 OA
ATOM     10  C   UNL     1       2.146   7.593  18.806  0.00  0.00    +0.000 C 
BRANCH  10  11
ATOM     11  C   UNL     1       2.842   6.402  18.315  0.00  0.00    +0.000 A 
ATOM     12  C   UNL     1       4.174   6.457  17.946  0.00  0.00    +0.000 A 
ATOM     13  N   UNL     1       4.292   5.483  16.985  0.00  0.00    +0.000 N 
ATOM     14  C   UNL     1       3.529   4.440  17.393  0.00  0.00    +0.000 A 
ATOM     15  C   UNL     1       3.660   3.065  17.116  0.00  0.00    +0.000 A 
ATOM     16  C   UNL     1       2.711   2.225  17.687  0.00  0.00    +0.000 A 
ATOM     17  C   UNL     1       1.623   2.754  18.387  0.00  0.00    +0.000 A 
ATOM     18  C   UNL     1       1.483   4.145  18.598  0.00  0.00    +0.000 A 
ATOM     19  C   UNL     1       2.498   5.003  18.164  0.00  0.00    +0.000 A 
ATOM     20  H   UNL     1       4.815   5.553  16.134  0.00  0.00    +0.000 HD
ENDBRANCH  10  11
ENDBRANCH   1  10
BRANCH   6  21
ATOM     21  O   UNL     1      -0.336  11.710  22.408  0.00  0.00    +0.000 OA
BRANCH  21  22
ATOM     22  C   UNL     1      -1.286  12.499  23.017  0.00  0.00    +0.000 A 
ATOM     23  C   UNL     1      -1.095  13.828  23.397  0.00  0.00    +0.000 A 
ATOM     24  C   UNL     1      -2.127  14.566  23.986  0.00  0.00    +0.000 A 
ATOM     25  C   UNL     1      -3.365  13.979  24.206  0.00  0.00    +0.000 A 
ATOM     26  C   UNL     1      -3.575  12.656  23.819  0.00  0.00    +0.000 A 
ATOM     27  C   UNL     1      -2.543  11.925  23.215  0.00  0.00    +0.000 A 
ENDBRANCH  21  22
ENDBRANCH   6  21
TORSDOF 4
ENDMDL
MODEL 4
REMARK VINA RESULT:      -7.3      1.177      1.672
REMARK  Name = 
REMARK  4 active torsions:
REMARK  status: ('A' for Active; 'I' for Inactive)
REMARK    1  A    between atoms: C_2  and  C_3
REMARK    2  A    between atoms: C_2  and  C_18
REMARK    3  A    between atoms: C_8  and  O_9
REMARK    4  A    between atoms: O_9  and  C_10
REMARK                            x       y       z     vdW  Elec       q    Type
REMARK                         _______ _______ _______ _____ _____    ______ ____
ROOT
ATOM      1  C   UNL     1       1.955   5.770  19.744  0.00  0.00    +0.000 C 
ATOM      2  O   UNL     1       1.428   5.063  20.601  0.00  0.00    +0.000 OA
ATOM      3  N   UNL     1       2.131   7.152  19.883  0.00  0.00    +0.000 N 
ATOM      4  C   UNL     1       1.803   7.736  21.165  0.00  0.00    +0.000 C 
ATOM      5  C   UNL     1       0.435   8.383  21.087  0.00  0.00    +0.000 C 
ATOM      6  C   UNL     1       0.430   9.515  20.053  0.00  0.00    +0.000 C 
ATOM      7  C   UNL     1       0.955   8.988  18.692  0.00  0.00    +0.000 C 
ATOM      8  C   UNL     1       2.236   8.128  18.796  0.00  0.00    +0.000 C 
ENDROOT
BRANCH   1  10
ATOM      9  O   UNL     1       1.575   4.761  17.661  0.00  0.00    +0.000 OA
ATOM     10  C   UNL     1       2.441   5.092  18.474  0.00  0.00    +0.000 C 
BRANCH  10  11
ATOM     11  C   UNL     1       3.839   4.697  18.289  0.00  0.00    +0.000 A 
ATOM     12  C   UNL     1       4.424   3.744  19.103  0.00  0.00    +0.000 A 
ATOM     13  N   UNL     1       5.751   4.095  19.122  0.00  0.00    +0.000 N 
ATOM     14  C   UNL     1       6.065   4.499  17.867  0.00  0.00    +0.000 A 
ATOM     15  C   UNL     1       7.302   4.473  17.195  0.00  0.00    +0.000 A 
ATOM     16  C   UNL     1       7.310   4.963  15.894  0.00  0.00    +0.000 A 
ATOM     17  C   UNL     1       6.169   5.560  15.352  0.00  0.00    +0.000 A 
ATOM     18  C   UNL     1       4.955   5.629  16.074  0.00  0.00    +0.000 A 
ATOM     19  C   UNL     1       4.874   5.014  17.326  0.00  0.00    +0.000 A 
ATOM     20  H   UNL     1       6.353   4.083  19.922  0.00  0.00    +0.000 HD
ENDBRANCH  10  11
ENDBRANCH   1  10
BRANCH   6  21
ATOM     21  O   UNL     1       1.245  10.626  20.481  0.00  0.00    +0.000 OA
BRANCH  21  22
ATOM     22  C   UNL     1       0.593  11.624  21.168  0.00  0.00    +0.000 A 
ATOM     23  C   UNL     1       0.827  12.990  21.003  0.00  0.00    +0.000 A 
ATOM     24  C   UNL     1       0.097  13.940  21.724  0.00  0.00    +0.000 A 
ATOM     25  C   UNL     1      -0.877  13.533  22.627  0.00  0.00    +0.000 A 
ATOM     26  C   UNL     1      -1.131  12.172  22.792  0.00  0.00    +0.000 A 
ATOM     27  C   UNL     1      -0.408  11.224  22.055  0.00  0.00    +0.000 A 
ENDBRANCH  21  22
ENDBRANCH   6  21
TORSDOF 4
ENDMDL
MODEL 5
REMARK VINA RESULT:      -7.2      1.341      1.572
REMARK  Name = 
REMARK  4 active torsions:
REMARK  status: ('A' for Active; 'I' for Inactive)
REMARK    1  A    between atoms: C_2  and  C_3
REMARK    2  A    between atoms: C_2  and  C_18
REMARK    3  A    between atoms: C_8  and  O_9
REMARK    4  A    between atoms: O_9  and  C_10
REMARK                            x       y       z     vdW  Elec       q    Type
REMARK                         _______ _______ _______ _____ _____    ______ ____
ROOT
ATOM      1  C   UNL     1       1.858   5.932  19.837  0.00  0.00    +0.000 C 
ATOM      2  O   UNL     1       1.304   5.215  20.667  0.00  0.00    +0.000 OA
ATOM      3  N   UNL     1       2.013   7.316  19.990  0.00  0.00    +0.000 N 
ATOM      4  C   UNL     1       1.628   7.888  21.262  0.00  0.00    +0.000 C 
ATOM      5  C   UNL     1       0.257   8.521  21.132  0.00  0.00    +0.000 C 
ATOM      6  C   UNL     1       0.282   9.660  20.104  0.00  0.00    +0.000 C 
ATOM      7  C   UNL     1       0.867   9.146  18.764  0.00  0.00    +0.000 C 
ATOM      8  C   UNL     1       2.151   8.300  18.914  0.00  0.00    +0.000 C 
ENDROOT
BRANCH   1  10
ATOM      9  O   UNL     1       1.571   4.894  17.754  0.00  0.00    +0.000 OA
ATOM     10  C   UNL     1       2.402   5.267  18.584  0.00  0.00    +0.000 C 
BRANCH  10  11
ATOM     11  C   UNL     1       3.819   4.932  18.434  0.00  0.00    +0.000 A 
ATOM     12  C   UNL     1       4.257   3.624  18.540  0.00  0.00    +0.000 A 
ATOM     13  N   UNL     1       5.544   3.742  19.006  0.00  0.00    +0.000 N 
ATOM     14  C   UNL     1       6.090   4.809  18.374  0.00  0.00    +0.000 A 
ATOM     15  C   UNL     1       7.437   5.081  18.065  0.00  0.00    +0.000 A 
ATOM     16  C   UNL     1       7.690   6.275  17.400  0.00  0.00    +0.000 A 
ATOM     17  C   UNL     1       6.664   7.197  17.177  0.00  0.00    +0.000 A 
ATOM     18  C   UNL     1       5.329   6.924  17.554  0.00  0.00    +0.000 A 
ATOM     19  C   UNL     1       5.017   5.672  18.090  0.00  0.00    +0.000 A 
ATOM     20  H   UNL     1       5.974   3.167  19.703  0.00  0.00    +0.000 HD
ENDBRANCH  10  11
ENDBRANCH   1  10
BRANCH   6  21
ATOM     21  O   UNL     1       1.067  10.776  20.572  0.00  0.00    +0.000 OA
BRANCH  21  22
ATOM     22  C   UNL     1       0.360  11.841  21.081  0.00  0.00    +0.000 A 
ATOM     23  C   UNL     1      -0.449  11.791  22.218  0.00  0.00    +0.000 A 
ATOM     24  C   UNL     1      -1.110  12.932  22.683  0.00  0.00    +0.000 A 
ATOM     25  C   UNL     1      -0.975  14.140  22.012  0.00  0.00    +0.000 A 
ATOM     26  C   UNL     1      -0.160  14.208  20.883  0.00  0.00    +0.000 A 
ATOM     27  C   UNL     1       0.515  13.066  20.429  0.00  0.00    +0.000 A 
ENDBRANCH  21  22
ENDBRANCH   6  21
TORSDOF 4
ENDMDL
MODEL 6
REMARK VINA RESULT:      -7.1      2.318      3.755
REMARK  Name = 
REMARK  4 active torsions:
REMARK  status: ('A' for Active; 'I' for Inactive)
REMARK    1  A    between atoms: C_2  and  C_3
REMARK    2  A    between atoms: C_2  and  C_18
REMARK    3  A    between atoms: C_8  and  O_9
REMARK    4  A    between atoms: O_9  and  C_10
REMARK                            x       y       z     vdW  Elec       q    Type
REMARK                         _______ _______ _______ _____ _____    ______ ____
ROOT
ATOM      1  C   UNL     1       4.345   3.966  18.069  0.00  0.00    +0.000 C 
ATOM      2  O   UNL     1       4.537   3.033  18.845  0.00  0.00    +0.000 OA
ATOM      3  N   UNL     1       4.031   5.266  18.485  0.00  0.00    +0.000 N 
ATOM      4  C   UNL     1       4.085   5.538  19.904  0.00  0.00    +0.000 C 
ATOM      5  C   UNL     1       2.680   5.511  20.474  0.00  0.00    +0.000 C 
ATOM      6  C   UNL     1       1.815   6.601  19.831  0.00  0.00    +0.000 C 
ATOM      7  C   UNL     1       1.870   6.473  18.286  0.00  0.00    +0.000 C 
ATOM      8  C   UNL     1       3.291   6.269  17.716  0.00  0.00    +0.000 C 
ENDROOT
BRANCH   1  10
ATOM      9  O   UNL     1       3.609   2.934  16.096  0.00  0.00    +0.000 OA
ATOM     10  C   UNL     1       4.462   3.679  16.581  0.00  0.00    +0.000 C 
BRANCH  10  11
ATOM     11  C   UNL     1       5.613   4.121  15.792  0.00  0.00    +0.000 A 
ATOM     12  C   UNL     1       6.753   4.609  16.406  0.00  0.00    +0.000 A 
ATOM     13  N   UNL     1       7.275   5.486  15.488  0.00  0.00    +0.000 N 
ATOM     14  C   UNL     1       7.100   4.922  14.268  0.00  0.00    +0.000 A 
ATOM     15  C   UNL     1       7.844   5.087  13.084  0.00  0.00    +0.000 A 
ATOM     16  C   UNL     1       7.415   4.363  11.977  0.00  0.00    +0.000 A 
ATOM     17  C   UNL     1       6.232   3.621  12.028  0.00  0.00    +0.000 A 
ATOM     18  C   UNL     1       5.470   3.523  13.215  0.00  0.00    +0.000 A 
ATOM     19  C   UNL     1       5.953   4.117  14.384  0.00  0.00    +0.000 A 
ATOM     20  H   UNL     1       7.674   6.381  15.688  0.00  0.00    +0.000 HD
ENDBRANCH  10  11
ENDBRANCH   1  10
BRANCH   6  21
ATOM     21  O   UNL     1       2.252   7.920  20.216  0.00  0.00    +0.000 OA
BRANCH  21  22
ATOM     22  C   UNL     1       1.309   8.715  20.828  0.00  0.00    +0.000 A 
ATOM     23  C   UNL     1       1.044   8.728  22.198  0.00  0.00    +0.000 A 
ATOM     24  C   UNL     1       0.086   9.591  22.740  0.00  0.00    +0.000 A 
ATOM     25  C   UNL     1      -0.624  10.451  21.913  0.00  0.00    +0.000 A 
ATOM     26  C   UNL     1      -0.360  10.459  20.544  0.00  0.00    +0.000 A 
ATOM     27  C   UNL     1       0.612   9.604  20.008  0.00  0.00    +0.000 A 
ENDBRANCH  21  22
ENDBRANCH   6  21
TORSDOF 4
ENDMDL
MODEL 7
REMARK VINA RESULT:      -7.1      2.615      8.702
REMARK  Name = 
REMARK  4 active torsions:
REMARK  status: ('A' for Active; 'I' for Inactive)
REMARK    1  A    between atoms: C_2  and  C_3
REMARK    2  A    between atoms: C_2  and  C_18
REMARK    3  A    between atoms: C_8  and  O_9
REMARK    4  A    between atoms: O_9  and  C_10
REMARK                            x       y       z     vdW  Elec       q    Type
REMARK                         _______ _______ _______ _____ _____    ______ ____
ROOT
ATOM      1  C   UNL     1       0.913   9.989  20.313  0.00  0.00    +0.000 C 
ATOM      2  O   UNL     1       1.100   9.893  21.524  0.00  0.00    +0.000 OA
ATOM      3  N   UNL     1       0.959   8.899  19.435  0.00  0.00    +0.000 N 
ATOM      4  C   UNL     1       1.089   7.582  20.020  0.00  0.00    +0.000 C 
ATOM      5  C   UNL     1       2.533   7.131  19.924  0.00  0.00    +0.000 C 
ATOM      6  C   UNL     1       2.971   7.027  18.458  0.00  0.00    +0.000 C 
ATOM      7  C   UNL     1       2.679   8.363  17.726  0.00  0.00    +0.000 C 
ATOM      8  C   UNL     1       1.276   8.947  18.006  0.00  0.00    +0.000 C 
ENDROOT
BRANCH   1  10
ATOM      9  O   UNL     1       1.526  12.194  19.803  0.00  0.00    +0.000 OA
ATOM     10  C   UNL     1       0.611  11.369  19.755  0.00  0.00    +0.000 C 
BRANCH  10  11
ATOM     11  C   UNL     1      -0.735  11.761  19.333  0.00  0.00    +0.000 A 
ATOM     12  C   UNL     1      -1.236  13.017  19.627  0.00  0.00    +0.000 A 
ATOM     13  N   UNL     1      -2.593  12.821  19.712  0.00  0.00    +0.000 N 
ATOM     14  C   UNL     1      -2.921  11.944  18.731  0.00  0.00    +0.000 A 
ATOM     15  C   UNL     1      -4.135  11.782  18.037  0.00  0.00    +0.000 A 
ATOM     16  C   UNL     1      -4.167  10.784  17.069  0.00  0.00    +0.000 A 
ATOM     17  C   UNL     1      -3.082   9.919  16.905  0.00  0.00    +0.000 A 
ATOM     18  C   UNL     1      -1.896  10.066  17.660  0.00  0.00    +0.000 A 
ATOM     19  C   UNL     1      -1.778  11.150  18.535  0.00  0.00    +0.000 A 
ATOM     20  H   UNL     1      -3.207  13.224  20.391  0.00  0.00    +0.000 HD
ENDBRANCH  10  11
ENDBRANCH   1  10
BRANCH   6  21
ATOM     21  O   UNL     1       2.292   5.952  17.778  0.00  0.00    +0.000 OA
BRANCH  21  22
ATOM     22  C   UNL     1       2.584   4.680  18.216  0.00  0.00    +0.000 A 
ATOM     23  C   UNL     1       3.867   4.206  18.492  0.00  0.00    +0.000 A 
ATOM     24  C   UNL     1       4.070   2.905  18.962  0.00  0.00    +0.000 A 
ATOM     25  C   UNL     1       2.988   2.057  19.158  0.00  0.00    +0.000 A 
ATOM     26  C   UNL     1       1.699   2.521  18.899  0.00  0.00    +0.000 A 
ATOM     27  C   UNL     1       1.499   3.831  18.444  0.00  0.00    +0.000 A 
ENDBRANCH  21  22
ENDBRANCH   6  21
TORSDOF 4
ENDMDL
MODEL 8
REMARK VINA RESULT:      -7.0      2.558      3.301
REMARK  Name = 
REMARK  4 active torsions:
REMARK  status: ('A' for Active; 'I' for Inactive)
REMARK    1  A    between atoms: C_2  and  C_3
REMARK    2  A    between atoms: C_2  and  C_18
REMARK    3  A    between atoms: C_8  and  O_9
REMARK    4  A    between atoms: O_9  and  C_10
REMARK                            x       y       z     vdW  Elec       q    Type
REMARK                         _______ _______ _______ _____ _____    ______ ____
ROOT
ATOM      1  C   UNL     1       1.770   7.681  20.171  0.00  0.00    +0.000 C 
ATOM      2  O   UNL     1       1.693   6.639  20.818  0.00  0.00    +0.000 OA
ATOM      3  N   UNL     1       1.521   8.948  20.715  0.00  0.00    +0.000 N 
ATOM      4  C   UNL     1       1.308   9.025  22.144  0.00  0.00    +0.000 C 
ATOM      5  C   UNL     1      -0.178   9.119  22.425  0.00  0.00    +0.000 C 
ATOM      6  C   UNL     1      -0.767  10.393  21.804  0.00  0.00    +0.000 C 
ATOM      7  C   UNL     1      -0.406  10.458  20.297  0.00  0.00    +0.000 C 
ATOM      8  C   UNL     1       1.072  10.135  19.983  0.00  0.00    +0.000 C 
ENDROOT
BRANCH   1  10
ATOM      9  O   UNL     1       1.881   8.537  17.991  0.00  0.00    +0.000 OA
ATOM     10  C   UNL     1       2.162   7.575  18.707  0.00  0.00    +0.000 C 
BRANCH  10  11
ATOM     11  C   UNL     1       2.692   6.337  18.132  0.00  0.00    +0.000 A 
ATOM     12  C   UNL     1       1.943   5.174  18.130  0.00  0.00    +0.000 A 
ATOM     13  N   UNL     1       2.883   4.174  18.169  0.00  0.00    +0.000 N 
ATOM     14  C   UNL     1       3.905   4.570  17.371  0.00  0.00    +0.000 A 
ATOM     15  C   UNL     1       4.837   3.797  16.651  0.00  0.00    +0.000 A 
ATOM     16  C   UNL     1       5.781   4.499  15.910  0.00  0.00    +0.000 A 
ATOM     17  C   UNL     1       5.859   5.891  15.994  0.00  0.00    +0.000 A 
ATOM     18  C   UNL     1       4.948   6.639  16.775  0.00  0.00    +0.000 A 
ATOM     19  C   UNL     1       3.897   5.975  17.413  0.00  0.00    +0.000 A 
ATOM     20  H   UNL     1       2.830   3.335  18.712  0.00  0.00    +0.000 HD
ENDBRANCH  10  11
ENDBRANCH   1  10
BRANCH   6  21
ATOM     21  O   UNL     1      -0.277  11.578  22.464  0.00  0.00    +0.000 OA
BRANCH  21  22
ATOM     22  C   UNL     1      -1.234  12.426  22.972  0.00  0.00    +0.000 A 
ATOM     23  C   UNL     1      -1.069  13.801  23.150  0.00  0.00    +0.000 A 
ATOM     24  C   UNL     1      -2.108  14.594  23.648  0.00  0.00    +0.000 A 
ATOM     25  C   UNL     1      -3.327  14.018  23.979  0.00  0.00    +0.000 A 
ATOM     26  C   UNL     1      -3.512  12.649  23.794  0.00  0.00    +0.000 A 
ATOM     27  C   UNL     1      -2.473  11.860  23.280  0.00  0.00    +0.000 A 
ENDBRANCH  21  22
ENDBRANCH   6  21
TORSDOF 4
ENDMDL
MODEL 9
REMARK VINA RESULT:      -7.0      2.244      8.513
REMARK  Name = 
REMARK  4 active torsions:
REMARK  status: ('A' for Active; 'I' for Inactive)
REMARK    1  A    between atoms: C_2  and  C_3
REMARK    2  A    between atoms: C_2  and  C_18
REMARK    3  A    between atoms: C_8  and  O_9
REMARK    4  A    between atoms: O_9  and  C_10
REMARK                            x       y       z     vdW  Elec       q    Type
REMARK                         _______ _______ _______ _____ _____    ______ ____
ROOT
ATOM      1  C   UNL     1       0.789  11.017  20.223  0.00  0.00    +0.000 C 
ATOM      2  O   UNL     1       1.170  11.124  21.387  0.00  0.00    +0.000 OA
ATOM      3  N   UNL     1       0.661   9.789  19.562  0.00  0.00    +0.000 N 
ATOM      4  C   UNL     1       0.850   8.590  20.348  0.00  0.00    +0.000 C 
ATOM      5  C   UNL     1       2.245   8.049  20.111  0.00  0.00    +0.000 C 
ATOM      6  C   UNL     1       2.433   7.665  18.638  0.00  0.00    +0.000 C 
ATOM      7  C   UNL     1       2.061   8.866  17.730  0.00  0.00    +0.000 C 
ATOM      8  C   UNL     1       0.739   9.568  18.116  0.00  0.00    +0.000 C 
ENDROOT
BRANCH   1  10
ATOM      9  O   UNL     1      -0.762  12.544  19.351  0.00  0.00    +0.000 OA
ATOM     10  C   UNL     1       0.437  12.293  19.477  0.00  0.00    +0.000 C 
BRANCH  10  11
ATOM     11  C   UNL     1       1.452  13.101  18.796  0.00  0.00    +0.000 A 
ATOM     12  C   UNL     1       2.456  12.505  18.054  0.00  0.00    +0.000 A 
ATOM     13  N   UNL     1       3.504  13.389  18.144  0.00  0.00    +0.000 N 
ATOM     14  C   UNL     1       2.970  14.633  18.074  0.00  0.00    +0.000 A 
ATOM     15  C   UNL     1       3.544  15.834  17.615  0.00  0.00    +0.000 A 
ATOM     16  C   UNL     1       2.736  16.965  17.666  0.00  0.00    +0.000 A 
ATOM     17  C   UNL     1       1.474  16.910  18.262  0.00  0.00    +0.000 A 
ATOM     18  C   UNL     1       0.947  15.702  18.772  0.00  0.00    +0.000 A 
ATOM     19  C   UNL     1       1.673  14.519  18.603  0.00  0.00    +0.000 A 
ATOM     20  H   UNL     1       4.467  13.151  18.273  0.00  0.00    +0.000 HD
ENDBRANCH  10  11
ENDBRANCH   1  10
BRANCH   6  21
ATOM     21  O   UNL     1       1.622   6.527  18.280  0.00  0.00    +0.000 OA
BRANCH  21  22
ATOM     22  C   UNL     1       2.302   5.362  18.006  0.00  0.00    +0.000 A 
ATOM     23  C   UNL     1       1.711   4.105  17.874  0.00  0.00    +0.000 A 
ATOM     24  C   UNL     1       2.476   2.976  17.565  0.00  0.00    +0.000 A 
ATOM     25  C   UNL     1       3.849   3.091  17.388  0.00  0.00    +0.000 A 
ATOM     26  C   UNL     1       4.452   4.343  17.503  0.00  0.00    +0.000 A 
ATOM     27  C   UNL     1       3.678   5.475  17.797  0.00  0.00    +0.000 A 
ENDBRANCH  21  22
ENDBRANCH   6  21
TORSDOF 4
ENDMDL
