MODEL 1
REMARK VINA RESULT:      -8.1      0.000      0.000
REMARK  Name = 
REMARK  5 active torsions:
REMARK  status: ('A' for Active; 'I' for Inactive)
REMARK    1  A    between atoms: N_1  and  N_2
REMARK    2  A    between atoms: C_3  and  C_5
REMARK    3  A    between atoms: C_7  and  C_8
REMARK    4  A    between atoms: N_16  and  C_17
REMARK    5  A    between atoms: C_17  and  C_18
REMARK                            x       y       z     vdW  Elec       q    Type
REMARK                         _______ _______ _______ _____ _____    ______ ____
ROOT
ATOM      1  C   UNL     1       4.097   4.291  18.783  0.00  0.00    +0.000 A 
ATOM      2  C   UNL     1       3.002   5.062  19.130  0.00  0.00    +0.000 A 
ATOM      3  C   UNL     1       3.256   6.371  18.659  0.00  0.00    +0.000 A 
ATOM      4  N   UNL     1       4.430   6.412  18.016  0.00  0.00    +0.000 NA
ATOM      5  N   UNL     1       4.922   5.149  18.091  0.00  0.00    +0.000 N 
ENDROOT
BRANCH   3   6
ATOM      6  C   UNL     1       2.428   7.557  18.881  0.00  0.00    +0.000 A 
ATOM      7  C   UNL     1       1.876   7.814  20.144  0.00  0.00    +0.000 A 
ATOM      8  C   UNL     1       1.016   8.900  20.337  0.00  0.00    +0.000 A 
ATOM      9  C   UNL     1       0.710   9.740  19.269  0.00  0.00    +0.000 A 
ATOM     10 CL   UNL     1      -0.366  11.063  19.497  0.00  0.00    +0.000 Cl
ATOM     11  C   UNL     1       1.261   9.510  18.010  0.00  0.00    +0.000 A 
ATOM     12  C   UNL     1       2.118   8.422  17.818  0.00  0.00    +0.000 A 
ENDBRANCH   3   6
BRANCH   1  14
ATOM     13  N   UNL     1       3.959   2.011  18.163  0.00  0.00    +0.000 N 
ATOM     14  C   UNL     1       4.365   2.919  19.141  0.00  0.00    +0.000 C 
ATOM     15  O   UNL     1       4.856   2.572  20.210  0.00  0.00    +0.000 OA
ATOM     16  H   UNL     1       3.791   2.357  17.222  0.00  0.00    +0.000 HD
BRANCH  13  17
ATOM     17  N   UNL     1       4.075   0.620  18.365  0.00  0.00    +0.000 NA
ATOM     18  H   UNL     1       4.180   0.442  19.366  0.00  0.00    +0.000 HD
ATOM     19  H   UNL     1       4.964   0.321  17.943  0.00  0.00    +0.000 HD
ENDBRANCH  13  17
ENDBRANCH   1  14
BRANCH   5  20
ATOM     20  C   UNL     1       6.255   4.890  17.557  0.00  0.00    +0.000 C 
BRANCH  20  21
ATOM     21  C   UNL     1       6.277   4.713  16.057  0.00  0.00    +0.000 A 
ATOM     22  C   UNL     1       7.370   5.156  15.303  0.00  0.00    +0.000 A 
ATOM     23  C   UNL     1       7.437   4.910  13.925  0.00  0.00    +0.000 A 
ATOM     24  C   UNL     1       6.401   4.228  13.295  0.00  0.00    +0.000 A 
ATOM     25  C   UNL     1       5.293   3.810  14.027  0.00  0.00    +0.000 A 
ATOM     26  C   UNL     1       5.226   4.053  15.400  0.00  0.00    +0.000 A 
ENDBRANCH  20  21
ENDBRANCH   5  20
TORSDOF 5
ENDMDL
MODEL 2
REMARK VINA RESULT:      -8.1      0.104      1.013
REMARK  Name = 
REMARK  5 active torsions:
REMARK  status: ('A' for Active; 'I' for Inactive)
REMARK    1  A    between atoms: N_1  and  N_2
REMARK    2  A    between atoms: C_3  and  C_5
REMARK    3  A    between atoms: C_7  and  C_8
REMARK    4  A    between atoms: N_16  and  C_17
REMARK    5  A    between atoms: C_17  and  C_18
REMARK                            x       y       z     vdW  Elec       q    Type
REMARK                         _______ _______ _______ _____ _____    ______ ____
ROOT
ATOM      1  C   UNL     1       4.084   4.293  18.783  0.00  0.00    +0.000 A 
ATOM      2  C   UNL     1       2.970   5.040  19.123  0.00  0.00    +0.000 A 
ATOM      3  C   UNL     1       3.201   6.355  18.658  0.00  0.00    +0.000 A 
ATOM      4  N   UNL     1       4.378   6.422  18.025  0.00  0.00    +0.000 NA
ATOM      5  N   UNL     1       4.896   5.169  18.101  0.00  0.00    +0.000 N 
ENDROOT
BRANCH   3   6
ATOM      6  C   UNL     1       2.346   7.522  18.876  0.00  0.00    +0.000 A 
ATOM      7  C   UNL     1       2.089   8.421  17.832  0.00  0.00    +0.000 A 
ATOM      8  C   UNL     1       1.342   9.582  18.059  0.00  0.00    +0.000 A 
ATOM      9  C   UNL     1       0.840   9.845  19.331  0.00  0.00    +0.000 A 
ATOM     10 CL   UNL     1      -0.059  11.283  19.621  0.00  0.00    +0.000 Cl
ATOM     11  C   UNL     1       1.070   8.955  20.379  0.00  0.00    +0.000 A 
ATOM     12  C   UNL     1       1.820   7.797  20.151  0.00  0.00    +0.000 A 
ENDBRANCH   3   6
BRANCH   1  14
ATOM     13  N   UNL     1       3.954   2.008  18.178  0.00  0.00    +0.000 N 
ATOM     14  C   UNL     1       4.378   2.926  19.140  0.00  0.00    +0.000 C 
ATOM     15  O   UNL     1       4.901   2.589  20.196  0.00  0.00    +0.000 OA
ATOM     16  H   UNL     1       3.757   2.348  17.240  0.00  0.00    +0.000 HD
BRANCH  13  17
ATOM     17  N   UNL     1       4.092   0.619  18.382  0.00  0.00    +0.000 NA
ATOM     18  H   UNL     1       4.788   0.464  19.115  0.00  0.00    +0.000 HD
ATOM     19  H   UNL     1       4.507   0.222  17.528  0.00  0.00    +0.000 HD
ENDBRANCH  13  17
ENDBRANCH   1  14
BRANCH   5  20
ATOM     20  C   UNL     1       6.239   4.940  17.577  0.00  0.00    +0.000 C 
BRANCH  20  21
ATOM     21  C   UNL     1       6.273   4.745  16.079  0.00  0.00    +0.000 A 
ATOM     22  C   UNL     1       7.378   5.169  15.331  0.00  0.00    +0.000 A 
ATOM     23  C   UNL     1       7.456   4.906  13.956  0.00  0.00    +0.000 A 
ATOM     24  C   UNL     1       6.420   4.226  13.324  0.00  0.00    +0.000 A 
ATOM     25  C   UNL     1       5.302   3.827  14.050  0.00  0.00    +0.000 A 
ATOM     26  C   UNL     1       5.223   4.086  15.419  0.00  0.00    +0.000 A 
ENDBRANCH  20  21
ENDBRANCH   5  20
TORSDOF 5
ENDMDL
MODEL 3
REMARK VINA RESULT:      -8.0      0.071      1.008
REMARK  Name = 
REMARK  5 active torsions:
REMARK  status: ('A' for Active; 'I' for Inactive)
REMARK    1  A    between atoms: N_1  and  N_2
REMARK    2  A    between atoms: C_3  and  C_5
REMARK    3  A    between atoms: C_7  and  C_8
REMARK    4  A    between atoms: N_16  and  C_17
REMARK    5  A    between atoms: C_17  and  C_18
REMARK                            x       y       z     vdW  Elec       q    Type
REMARK                         _______ _______ _______ _____ _____    ______ ____
ROOT
ATOM      1  C   UNL     1       4.106   4.321  18.779  0.00  0.00    +0.000 A 
ATOM      2  C   UNL     1       2.995   5.079  19.103  0.00  0.00    +0.000 A 
ATOM      3  C   UNL     1       3.252   6.395  18.656  0.00  0.00    +0.000 A 
ATOM      4  N   UNL     1       4.444   6.453  18.048  0.00  0.00    +0.000 NA
ATOM      5  N   UNL     1       4.944   5.193  18.123  0.00  0.00    +0.000 N 
ENDROOT
BRANCH   3   6
ATOM      6  C   UNL     1       2.408   7.571  18.867  0.00  0.00    +0.000 A 
ATOM      7  C   UNL     1       1.874   7.846  20.134  0.00  0.00    +0.000 A 
ATOM      8  C   UNL     1       1.000   8.922  20.320  0.00  0.00    +0.000 A 
ATOM      9  C   UNL     1       0.661   9.735  19.240  0.00  0.00    +0.000 A 
ATOM     10 CL   UNL     1      -0.433  11.044  19.459  0.00  0.00    +0.000 Cl
ATOM     11  C   UNL     1       1.194   9.487  17.977  0.00  0.00    +0.000 A 
ATOM     12  C   UNL     1       2.066   8.409  17.792  0.00  0.00    +0.000 A 
ENDBRANCH   3   6
BRANCH   1  14
ATOM     13  N   UNL     1       3.935   2.042  18.162  0.00  0.00    +0.000 N 
ATOM     14  C   UNL     1       4.375   2.946  19.129  0.00  0.00    +0.000 C 
ATOM     15  O   UNL     1       4.893   2.594  20.184  0.00  0.00    +0.000 OA
ATOM     16  H   UNL     1       3.743   2.390  17.226  0.00  0.00    +0.000 HD
BRANCH  13  17
ATOM     17  N   UNL     1       4.047   0.650  18.359  0.00  0.00    +0.000 NA
ATOM     18  H   UNL     1       3.642   0.414  19.268  0.00  0.00    +0.000 HD
ATOM     19  H   UNL     1       5.048   0.431  18.445  0.00  0.00    +0.000 HD
ENDBRANCH  13  17
ENDBRANCH   1  14
BRANCH   5  20
ATOM     20  C   UNL     1       6.294   4.951  17.625  0.00  0.00    +0.000 C 
BRANCH  20  21
ATOM     21  C   UNL     1       6.345   4.664  16.143  0.00  0.00    +0.000 A 
ATOM     22  C   UNL     1       5.272   4.034  15.502  0.00  0.00    +0.000 A 
ATOM     23  C   UNL     1       5.275   3.851  14.112  0.00  0.00    +0.000 A 
ATOM     24  C   UNL     1       6.361   4.289  13.361  0.00  0.00    +0.000 A 
ATOM     25  C   UNL     1       7.448   4.889  13.989  0.00  0.00    +0.000 A 
ATOM     26  C   UNL     1       7.446   5.073  15.373  0.00  0.00    +0.000 A 
ENDBRANCH  20  21
ENDBRANCH   5  20
TORSDOF 5
ENDMDL
MODEL 4
REMARK VINA RESULT:      -8.0      0.863      1.664
REMARK  Name = 
REMARK  5 active torsions:
REMARK  status: ('A' for Active; 'I' for Inactive)
REMARK    1  A    between atoms: N_1  and  N_2
REMARK    2  A    between atoms: C_3  and  C_5
REMARK    3  A    between atoms: C_7  and  C_8
REMARK    4  A    between atoms: N_16  and  C_17
REMARK    5  A    between atoms: C_17  and  C_18
REMARK                            x       y       z     vdW  Elec       q    Type
REMARK                         _______ _______ _______ _____ _____    ______ ____
ROOT
ATOM      1  C   UNL     1       3.903   4.220  18.477  0.00  0.00    +0.000 A 
ATOM      2  C   UNL     1       2.813   5.007  18.806  0.00  0.00    +0.000 A 
ATOM      3  C   UNL     1       3.159   6.340  18.486  0.00  0.00    +0.000 A 
ATOM      4  N   UNL     1       4.384   6.384  17.947  0.00  0.00    +0.000 NA
ATOM      5  N   UNL     1       4.817   5.097  17.940  0.00  0.00    +0.000 N 
ENDROOT
BRANCH   3   6
ATOM      6  C   UNL     1       2.363   7.539  18.752  0.00  0.00    +0.000 A 
ATOM      7  C   UNL     1       2.180   8.507  17.755  0.00  0.00    +0.000 A 
ATOM      8  C   UNL     1       1.489   9.692  18.032  0.00  0.00    +0.000 A 
ATOM      9  C   UNL     1       0.971   9.911  19.306  0.00  0.00    +0.000 A 
ATOM     10 CL   UNL     1       0.143  11.377  19.658  0.00  0.00    +0.000 Cl
ATOM     11  C   UNL     1       1.129   8.952  20.306  0.00  0.00    +0.000 A 
ATOM     12  C   UNL     1       1.821   7.769  20.028  0.00  0.00    +0.000 A 
ENDBRANCH   3   6
BRANCH   1  14
ATOM     13  N   UNL     1       4.895   2.549  19.829  0.00  0.00    +0.000 N 
ATOM     14  C   UNL     1       4.085   2.810  18.723  0.00  0.00    +0.000 C 
ATOM     15  O   UNL     1       3.620   1.924  18.014  0.00  0.00    +0.000 OA
ATOM     16  H   UNL     1       5.045   3.293  20.505  0.00  0.00    +0.000 HD
BRANCH  13  17
ATOM     17  N   UNL     1       5.243   1.229  20.184  0.00  0.00    +0.000 NA
ATOM     18  H   UNL     1       5.447   0.703  19.331  0.00  0.00    +0.000 HD
ATOM     19  H   UNL     1       4.403   0.785  20.580  0.00  0.00    +0.000 HD
ENDBRANCH  13  17
ENDBRANCH   1  14
BRANCH   5  20
ATOM     20  C   UNL     1       6.180   4.826  17.494  0.00  0.00    +0.000 C 
BRANCH  20  21
ATOM     21  C   UNL     1       6.289   4.594  16.005  0.00  0.00    +0.000 A 
ATOM     22  C   UNL     1       5.247   3.976  15.302  0.00  0.00    +0.000 A 
ATOM     23  C   UNL     1       5.304   3.845  13.908  0.00  0.00    +0.000 A 
ATOM     24  C   UNL     1       6.412   4.321  13.214  0.00  0.00    +0.000 A 
ATOM     25  C   UNL     1       7.468   4.909  13.904  0.00  0.00    +0.000 A 
ATOM     26  C   UNL     1       7.412   5.043  15.292  0.00  0.00    +0.000 A 
ENDBRANCH  20  21
ENDBRANCH   5  20
TORSDOF 5
ENDMDL
MODEL 5
REMARK VINA RESULT:      -7.9      1.292      1.771
REMARK  Name = 
REMARK  5 active torsions:
REMARK  status: ('A' for Active; 'I' for Inactive)
REMARK    1  A    between atoms: N_1  and  N_2
REMARK    2  A    between atoms: C_3  and  C_5
REMARK    3  A    between atoms: C_7  and  C_8
REMARK    4  A    between atoms: N_16  and  C_17
REMARK    5  A    between atoms: C_17  and  C_18
REMARK                            x       y       z     vdW  Elec       q    Type
REMARK                         _______ _______ _______ _____ _____    ______ ____
ROOT
ATOM      1  C   UNL     1       3.082   4.162  19.459  0.00  0.00    +0.000 A 
ATOM      2  C   UNL     1       2.601   5.350  19.983  0.00  0.00    +0.000 A 
ATOM      3  C   UNL     1       2.477   6.253  18.902  0.00  0.00    +0.000 A 
ATOM      4  N   UNL     1       2.822   5.654  17.755  0.00  0.00    +0.000 NA
ATOM      5  N   UNL     1       3.177   4.391  18.106  0.00  0.00    +0.000 N 
ENDROOT
BRANCH   3   6
ATOM      6  C   UNL     1       2.102   7.665  18.981  0.00  0.00    +0.000 A 
ATOM      7  C   UNL     1       1.513   8.181  20.144  0.00  0.00    +0.000 A 
ATOM      8  C   UNL     1       1.077   9.510  20.192  0.00  0.00    +0.000 A 
ATOM      9  C   UNL     1       1.236  10.332  19.079  0.00  0.00    +0.000 A 
ATOM     10 CL   UNL     1       0.680  11.959  19.125  0.00  0.00    +0.000 Cl
ATOM     11  C   UNL     1       1.834   9.842  17.919  0.00  0.00    +0.000 A 
ATOM     12  C   UNL     1       2.267   8.512  17.872  0.00  0.00    +0.000 A 
ENDBRANCH   3   6
BRANCH   1  14
ATOM     13  N   UNL     1       4.761   2.534  19.827  0.00  0.00    +0.000 N 
ATOM     14  C   UNL     1       3.484   2.976  20.176  0.00  0.00    +0.000 C 
ATOM     15  O   UNL     1       2.770   2.382  20.977  0.00  0.00    +0.000 OA
ATOM     16  H   UNL     1       5.386   3.184  19.357  0.00  0.00    +0.000 HD
BRANCH  13  17
ATOM     17  N   UNL     1       5.298   1.349  20.371  0.00  0.00    +0.000 NA
ATOM     18  H   UNL     1       4.534   0.792  20.759  0.00  0.00    +0.000 HD
ATOM     19  H   UNL     1       5.875   1.617  21.180  0.00  0.00    +0.000 HD
ENDBRANCH  13  17
ENDBRANCH   1  14
BRANCH   5  20
ATOM     20  C   UNL     1       3.702   3.505  17.072  0.00  0.00    +0.000 C 
BRANCH  20  21
ATOM     21  C   UNL     1       5.008   3.980  16.482  0.00  0.00    +0.000 A 
ATOM     22  C   UNL     1       5.187   4.031  15.094  0.00  0.00    +0.000 A 
ATOM     23  C   UNL     1       6.362   4.559  14.541  0.00  0.00    +0.000 A 
ATOM     24  C   UNL     1       7.369   5.027  15.380  0.00  0.00    +0.000 A 
ATOM     25  C   UNL     1       7.217   4.954  16.762  0.00  0.00    +0.000 A 
ATOM     26  C   UNL     1       6.047   4.430  17.313  0.00  0.00    +0.000 A 
ENDBRANCH  20  21
ENDBRANCH   5  20
TORSDOF 5
ENDMDL
MODEL 6
REMARK VINA RESULT:      -7.9      2.150      2.755
REMARK  Name = 
REMARK  5 active torsions:
REMARK  status: ('A' for Active; 'I' for Inactive)
REMARK    1  A    between atoms: N_1  and  N_2
REMARK    2  A    between atoms: C_3  and  C_5
REMARK    3  A    between atoms: C_7  and  C_8
REMARK    4  A    between atoms: N_16  and  C_17
REMARK    5  A    between atoms: C_17  and  C_18
REMARK                            x       y       z     vdW  Elec       q    Type
REMARK                         _______ _______ _______ _____ _____    ______ ____
ROOT
ATOM      1  C   UNL     1       3.029   4.477  19.354  0.00  0.00    +0.000 A 
ATOM      2  C   UNL     1       2.147   5.277  20.058  0.00  0.00    +0.000 A 
ATOM      3  C   UNL     1       2.301   6.592  19.562  0.00  0.00    +0.000 A 
ATOM      4  N   UNL     1       3.202   6.611  18.572  0.00  0.00    +0.000 NA
ATOM      5  N   UNL     1       3.626   5.326  18.452  0.00  0.00    +0.000 N 
ENDROOT
BRANCH   3   6
ATOM      6  C   UNL     1       1.652   7.801  20.071  0.00  0.00    +0.000 A 
ATOM      7  C   UNL     1       1.101   7.824  21.360  0.00  0.00    +0.000 A 
ATOM      8  C   UNL     1       0.407   8.949  21.817  0.00  0.00    +0.000 A 
ATOM      9  C   UNL     1       0.266  10.061  20.989  0.00  0.00    +0.000 A 
ATOM     10 CL   UNL     1      -0.608  11.437  21.538  0.00  0.00    +0.000 Cl
ATOM     11  C   UNL     1       0.820  10.062  19.711  0.00  0.00    +0.000 A 
ATOM     12  C   UNL     1       1.512   8.936  19.254  0.00  0.00    +0.000 A 
ENDBRANCH   3   6
BRANCH   1  14
ATOM     13  N   UNL     1       4.644   2.864  19.983  0.00  0.00    +0.000 N 
ATOM     14  C   UNL     1       3.329   3.082  19.572  0.00  0.00    +0.000 C 
ATOM     15  O   UNL     1       2.533   2.169  19.375  0.00  0.00    +0.000 OA
ATOM     16  H   UNL     1       5.170   3.650  20.357  0.00  0.00    +0.000 HD
BRANCH  13  17
ATOM     17  N   UNL     1       5.142   1.559  20.178  0.00  0.00    +0.000 NA
ATOM     18  H   UNL     1       4.870   1.242  21.111  0.00  0.00    +0.000 HD
ATOM     19  H   UNL     1       6.169   1.622  20.203  0.00  0.00    +0.000 HD
ENDBRANCH  13  17
ENDBRANCH   1  14
BRANCH   5  20
ATOM     20  C   UNL     1       4.698   5.035  17.505  0.00  0.00    +0.000 C 
BRANCH  20  21
ATOM     21  C   UNL     1       5.971   5.797  17.787  0.00  0.00    +0.000 A 
ATOM     22  C   UNL     1       6.271   6.970  17.083  0.00  0.00    +0.000 A 
ATOM     23  C   UNL     1       7.403   7.730  17.407  0.00  0.00    +0.000 A 
ATOM     24  C   UNL     1       8.247   7.311  18.430  0.00  0.00    +0.000 A 
ATOM     25  C   UNL     1       7.978   6.130  19.117  0.00  0.00    +0.000 A 
ATOM     26  C   UNL     1       6.850   5.373  18.797  0.00  0.00    +0.000 A 
ENDBRANCH  20  21
ENDBRANCH   5  20
TORSDOF 5
ENDMDL
MODEL 7
REMARK VINA RESULT:      -7.8      2.196      2.981
REMARK  Name = 
REMARK  5 active torsions:
REMARK  status: ('A' for Active; 'I' for Inactive)
REMARK    1  A    between atoms: N_1  and  N_2
REMARK    2  A    between atoms: C_3  and  C_5
REMARK    3  A    between atoms: C_7  and  C_8
REMARK    4  A    between atoms: N_16  and  C_17
REMARK    5  A    between atoms: C_17  and  C_18
REMARK                            x       y       z     vdW  Elec       q    Type
REMARK                         _______ _______ _______ _____ _____    ______ ____
ROOT
ATOM      1  C   UNL     1       2.966   4.653  19.330  0.00  0.00    +0.000 A 
ATOM      2  C   UNL     1       2.097   5.446  20.060  0.00  0.00    +0.000 A 
ATOM      3  C   UNL     1       2.230   6.763  19.565  0.00  0.00    +0.000 A 
ATOM      4  N   UNL     1       3.106   6.792  18.552  0.00  0.00    +0.000 NA
ATOM      5  N   UNL     1       3.535   5.510  18.417  0.00  0.00    +0.000 N 
ENDROOT
BRANCH   3   6
ATOM      6  C   UNL     1       1.586   7.966  20.094  0.00  0.00    +0.000 A 
ATOM      7  C   UNL     1       1.385   9.085  19.274  0.00  0.00    +0.000 A 
ATOM      8  C   UNL     1       0.845  10.264  19.800  0.00  0.00    +0.000 A 
ATOM      9  C   UNL     1       0.497  10.328  21.147  0.00  0.00    +0.000 A 
ATOM     10 CL   UNL     1      -0.143  11.784  21.802  0.00  0.00    +0.000 Cl
ATOM     11  C   UNL     1       0.675   9.220  21.974  0.00  0.00    +0.000 A 
ATOM     12  C   UNL     1       1.217   8.043  21.448  0.00  0.00    +0.000 A 
ENDBRANCH   3   6
BRANCH   1  14
ATOM     13  N   UNL     1       4.585   3.055  19.984  0.00  0.00    +0.000 N 
ATOM     14  C   UNL     1       3.280   3.260  19.535  0.00  0.00    +0.000 C 
ATOM     15  O   UNL     1       2.505   2.339  19.298  0.00  0.00    +0.000 OA
ATOM     16  H   UNL     1       5.086   3.842  20.388  0.00  0.00    +0.000 HD
BRANCH  13  17
ATOM     17  N   UNL     1       5.096   1.754  20.174  0.00  0.00    +0.000 NA
ATOM     18  H   UNL     1       4.904   1.201  19.336  0.00  0.00    +0.000 HD
ATOM     19  H   UNL     1       4.544   1.313  20.921  0.00  0.00    +0.000 HD
ENDBRANCH  13  17
ENDBRANCH   1  14
BRANCH   5  20
ATOM     20  C   UNL     1       4.584   5.230  17.442  0.00  0.00    +0.000 C 
BRANCH  20  21
ATOM     21  C   UNL     1       5.904   5.883  17.777  0.00  0.00    +0.000 A 
ATOM     22  C   UNL     1       6.325   7.032  17.095  0.00  0.00    +0.000 A 
ATOM     23  C   UNL     1       7.502   7.694  17.466  0.00  0.00    +0.000 A 
ATOM     24  C   UNL     1       8.271   7.200  18.516  0.00  0.00    +0.000 A 
ATOM     25  C   UNL     1       7.881   6.042  19.181  0.00  0.00    +0.000 A 
ATOM     26  C   UNL     1       6.708   5.382  18.814  0.00  0.00    +0.000 A 
ENDBRANCH  20  21
ENDBRANCH   5  20
TORSDOF 5
ENDMDL
MODEL 8
REMARK VINA RESULT:      -7.8      2.325      2.957
REMARK  Name = 
REMARK  5 active torsions:
REMARK  status: ('A' for Active; 'I' for Inactive)
REMARK    1  A    between atoms: N_1  and  N_2
REMARK    2  A    between atoms: C_3  and  C_5
REMARK    3  A    between atoms: C_7  and  C_8
REMARK    4  A    between atoms: N_16  and  C_17
REMARK    5  A    between atoms: C_17  and  C_18
REMARK                            x       y       z     vdW  Elec       q    Type
REMARK                         _______ _______ _______ _____ _____    ______ ____
ROOT
ATOM      1  C   UNL     1       2.559   5.070  19.416  0.00  0.00    +0.000 A 
ATOM      2  C   UNL     1       1.782   5.849  20.255  0.00  0.00    +0.000 A 
ATOM      3  C   UNL     1       1.927   7.187  19.821  0.00  0.00    +0.000 A 
ATOM      4  N   UNL     1       2.720   7.242  18.744  0.00  0.00    +0.000 NA
ATOM      5  N   UNL     1       3.087   5.956  18.506  0.00  0.00    +0.000 N 
ENDROOT
BRANCH   3   6
ATOM      6  C   UNL     1       1.375   8.380  20.464  0.00  0.00    +0.000 A 
ATOM      7  C   UNL     1       1.148   8.402  21.847  0.00  0.00    +0.000 A 
ATOM      8  C   UNL     1       0.543   9.510  22.451  0.00  0.00    +0.000 A 
ATOM      9  C   UNL     1       0.168  10.604  21.676  0.00  0.00    +0.000 A 
ATOM     10 CL   UNL     1      -0.599  11.957  22.411  0.00  0.00    +0.000 Cl
ATOM     11  C   UNL     1       0.399  10.607  20.302  0.00  0.00    +0.000 A 
ATOM     12  C   UNL     1       1.002   9.498  19.698  0.00  0.00    +0.000 A 
ENDBRANCH   3   6
BRANCH   1  14
ATOM     13  N   UNL     1       2.129   2.894  18.588  0.00  0.00    +0.000 N 
ATOM     14  C   UNL     1       2.833   3.657  19.520  0.00  0.00    +0.000 C 
ATOM     15  O   UNL     1       3.570   3.161  20.366  0.00  0.00    +0.000 OA
ATOM     16  H   UNL     1       1.736   3.364  17.776  0.00  0.00    +0.000 HD
BRANCH  13  17
ATOM     17  N   UNL     1       2.214   1.486  18.582  0.00  0.00    +0.000 NA
ATOM     18  H   UNL     1       1.304   1.102  18.846  0.00  0.00    +0.000 HD
ATOM     19  H   UNL     1       2.852   1.214  19.342  0.00  0.00    +0.000 HD
ENDBRANCH  13  17
ENDBRANCH   1  14
BRANCH   5  20
ATOM     20  C   UNL     1       4.044   5.694  17.436  0.00  0.00    +0.000 C 
BRANCH  20  21
ATOM     21  C   UNL     1       5.472   6.006  17.817  0.00  0.00    +0.000 A 
ATOM     22  C   UNL     1       6.189   7.003  17.144  0.00  0.00    +0.000 A 
ATOM     23  C   UNL     1       7.479   7.360  17.557  0.00  0.00    +0.000 A 
ATOM     24  C   UNL     1       8.062   6.710  18.640  0.00  0.00    +0.000 A 
ATOM     25  C   UNL     1       7.373   5.696  19.299  0.00  0.00    +0.000 A 
ATOM     26  C   UNL     1       6.087   5.341  18.890  0.00  0.00    +0.000 A 
ENDBRANCH  20  21
ENDBRANCH   5  20
TORSDOF 5
ENDMDL
MODEL 9
REMARK VINA RESULT:      -7.8      2.402      3.063
REMARK  Name = 
REMARK  5 active torsions:
REMARK  status: ('A' for Active; 'I' for Inactive)
REMARK    1  A    between atoms: N_1  and  N_2
REMARK    2  A    between atoms: C_3  and  C_5
REMARK    3  A    between atoms: C_7  and  C_8
REMARK    4  A    between atoms: N_16  and  C_17
REMARK    5  A    between atoms: C_17  and  C_18
REMARK                            x       y       z     vdW  Elec       q    Type
REMARK                         _______ _______ _______ _____ _____    ______ ____
ROOT
ATOM      1  C   UNL     1       2.496   5.063  19.511  0.00  0.00    +0.000 A 
ATOM      2  C   UNL     1       1.703   5.857  20.321  0.00  0.00    +0.000 A 
ATOM      3  C   UNL     1       1.886   7.192  19.891  0.00  0.00    +0.000 A 
ATOM      4  N   UNL     1       2.716   7.231  18.842  0.00  0.00    +0.000 NA
ATOM      5  N   UNL     1       3.070   5.939  18.619  0.00  0.00    +0.000 N 
ENDROOT
BRANCH   3   6
ATOM      6  C   UNL     1       1.331   8.395  20.512  0.00  0.00    +0.000 A 
ATOM      7  C   UNL     1       1.126   8.450  21.898  0.00  0.00    +0.000 A 
ATOM      8  C   UNL     1       0.519   9.566  22.484  0.00  0.00    +0.000 A 
ATOM      9  C   UNL     1       0.120  10.637  21.687  0.00  0.00    +0.000 A 
ATOM     10 CL   UNL     1      -0.649  12.000  22.400  0.00  0.00    +0.000 Cl
ATOM     11  C   UNL     1       0.330  10.607  20.309  0.00  0.00    +0.000 A 
ATOM     12  C   UNL     1       0.935   9.489  19.724  0.00  0.00    +0.000 A 
ENDBRANCH   3   6
BRANCH   1  14
ATOM     13  N   UNL     1       2.027   2.890  18.699  0.00  0.00    +0.000 N 
ATOM     14  C   UNL     1       2.743   3.646  19.628  0.00  0.00    +0.000 C 
ATOM     15  O   UNL     1       3.468   3.143  20.479  0.00  0.00    +0.000 OA
ATOM     16  H   UNL     1       1.646   3.361  17.883  0.00  0.00    +0.000 HD
BRANCH  13  17
ATOM     17  N   UNL     1       2.085   1.481  18.704  0.00  0.00    +0.000 NA
ATOM     18  H   UNL     1       2.321   1.166  19.649  0.00  0.00    +0.000 HD
ATOM     19  H   UNL     1       2.886   1.204  18.120  0.00  0.00    +0.000 HD
ENDBRANCH  13  17
ENDBRANCH   1  14
BRANCH   5  20
ATOM     20  C   UNL     1       4.059   5.659  17.583  0.00  0.00    +0.000 C 
BRANCH  20  21
ATOM     21  C   UNL     1       5.463   6.061  17.969  0.00  0.00    +0.000 A 
ATOM     22  C   UNL     1       6.132   5.404  19.009  0.00  0.00    +0.000 A 
ATOM     23  C   UNL     1       7.467   5.709  19.308  0.00  0.00    +0.000 A 
ATOM     24  C   UNL     1       8.133   6.684  18.572  0.00  0.00    +0.000 A 
ATOM     25  C   UNL     1       7.470   7.367  17.557  0.00  0.00    +0.000 A 
ATOM     26  C   UNL     1       6.142   7.063  17.257  0.00  0.00    +0.000 A 
ENDBRANCH  20  21
ENDBRANCH   5  20
TORSDOF 5
ENDMDL
