MODEL 1
REMARK VINA RESULT:      -6.8      0.000      0.000
REMARK  Name = 
REMARK  3 active torsions:
REMARK  status: ('A' for Active; 'I' for Inactive)
REMARK    1  A    between atoms: C_2  and  C_3
REMARK    2  A    between atoms: C_3  and  N_4
REMARK    3  A    between atoms: N_11  and  C_12
REMARK                            x       y       z     vdW  Elec       q    Type
REMARK                         _______ _______ _______ _____ _____    ______ ____
ROOT
ATOM      1  O   UNL     1       1.029   5.233  20.523  0.00  0.00    +0.000 OA
ATOM      2  C   UNL     1       2.114   5.714  20.200  0.00  0.00    +0.000 C 
ATOM      3  N   UNL     1       2.406   7.061  20.117  0.00  0.00    +0.000 N 
ATOM      4  H   UNL     1       3.300   7.284  19.683  0.00  0.00    +0.000 HD
ENDROOT
BRANCH   3   5
ATOM      5  C   UNL     1       1.603   8.140  20.554  0.00  0.00    +0.000 A 
ATOM      6  C   UNL     1       1.191   8.266  21.886  0.00  0.00    +0.000 A 
ATOM      7  C   UNL     1       0.389   9.337  22.293  0.00  0.00    +0.000 A 
ATOM      8  C   UNL     1      -0.009  10.294  21.366  0.00  0.00    +0.000 A 
ATOM      9 BR   UNL     1      -1.122  11.719  21.915  0.00  0.00    +0.000 Br
ATOM     10  C   UNL     1       0.408  10.207  20.040  0.00  0.00    +0.000 A 
ATOM     11  C   UNL     1       1.219   9.137  19.640  0.00  0.00    +0.000 A 
ATOM     12 BR   UNL     1       1.762   9.076  17.818  0.00  0.00    +0.000 Br
ENDBRANCH   3   5
BRANCH   2  13
ATOM     13  C   UNL     1       3.259   4.790  19.770  0.00  0.00    +0.000 C 
BRANCH  13  14
ATOM     14  N   UNL     1       4.392   5.494  19.103  0.00  0.00    +0.000 NA
ATOM     15  C   UNL     1       5.630   4.702  19.156  0.00  0.00    +0.000 C 
ATOM     16  C   UNL     1       6.852   5.626  19.159  0.00  0.00    +0.000 C 
ATOM     17  C   UNL     1       7.271   6.150  17.791  0.00  0.00    +0.000 C 
ATOM     18  C   UNL     1       6.185   6.917  17.043  0.00  0.00    +0.000 C 
ATOM     19  C   UNL     1       5.022   6.022  16.640  0.00  0.00    +0.000 C 
ATOM     20  C   UNL     1       3.963   5.821  17.727  0.00  0.00    +0.000 C 
ENDBRANCH  13  14
ENDBRANCH   2  13
TORSDOF 3
ENDMDL
MODEL 2
REMARK VINA RESULT:      -6.6      1.396      1.923
REMARK  Name = 
REMARK  3 active torsions:
REMARK  status: ('A' for Active; 'I' for Inactive)
REMARK    1  A    between atoms: C_2  and  C_3
REMARK    2  A    between atoms: C_3  and  N_4
REMARK    3  A    between atoms: N_11  and  C_12
REMARK                            x       y       z     vdW  Elec       q    Type
REMARK                         _______ _______ _______ _____ _____    ______ ____
ROOT
ATOM      1  O   UNL     1       1.708   4.890  18.572  0.00  0.00    +0.000 OA
ATOM      2  C   UNL     1       2.628   5.101  19.361  0.00  0.00    +0.000 C 
ATOM      3  N   UNL     1       2.867   6.290  20.022  0.00  0.00    +0.000 N 
ATOM      4  H   UNL     1       3.757   6.341  20.513  0.00  0.00    +0.000 HD
ENDROOT
BRANCH   3   5
ATOM      5  C   UNL     1       2.023   7.423  20.078  0.00  0.00    +0.000 A 
ATOM      6  C   UNL     1       1.206   7.686  21.183  0.00  0.00    +0.000 A 
ATOM      7  C   UNL     1       0.372   8.809  21.212  0.00  0.00    +0.000 A 
ATOM      8  C   UNL     1       0.350   9.681  20.129  0.00  0.00    +0.000 A 
ATOM      9 BR   UNL     1      -0.804  11.177  20.159  0.00  0.00    +0.000 Br
ATOM     10  C   UNL     1       1.172   9.457  19.028  0.00  0.00    +0.000 A 
ATOM     11  C   UNL     1       2.012   8.336  19.009  0.00  0.00    +0.000 A 
ATOM     12 BR   UNL     1       3.117   8.088  17.480  0.00  0.00    +0.000 Br
ENDBRANCH   3   5
BRANCH   2  13
ATOM     13  C   UNL     1       3.675   4.013  19.617  0.00  0.00    +0.000 C 
BRANCH  13  14
ATOM     14  N   UNL     1       4.828   4.042  18.671  0.00  0.00    +0.000 NA
ATOM     15  C   UNL     1       4.409   4.438  17.317  0.00  0.00    +0.000 C 
ATOM     16  C   UNL     1       5.330   3.803  16.270  0.00  0.00    +0.000 C 
ATOM     17  C   UNL     1       6.653   4.525  16.049  0.00  0.00    +0.000 C 
ATOM     18  C   UNL     1       7.511   4.680  17.301  0.00  0.00    +0.000 C 
ATOM     19  C   UNL     1       6.871   5.606  18.325  0.00  0.00    +0.000 C 
ATOM     20  C   UNL     1       5.855   4.932  19.251  0.00  0.00    +0.000 C 
ENDBRANCH  13  14
ENDBRANCH   2  13
TORSDOF 3
ENDMDL
MODEL 3
REMARK VINA RESULT:      -6.4      2.865      4.089
REMARK  Name = 
REMARK  3 active torsions:
REMARK  status: ('A' for Active; 'I' for Inactive)
REMARK    1  A    between atoms: C_2  and  C_3
REMARK    2  A    between atoms: C_3  and  N_4
REMARK    3  A    between atoms: N_11  and  C_12
REMARK                            x       y       z     vdW  Elec       q    Type
REMARK                         _______ _______ _______ _____ _____    ______ ____
ROOT
ATOM      1  O   UNL     1       2.205   9.383  17.323  0.00  0.00    +0.000 OA
ATOM      2  C   UNL     1       2.121   8.592  18.262  0.00  0.00    +0.000 C 
ATOM      3  N   UNL     1       1.365   8.774  19.403  0.00  0.00    +0.000 N 
ATOM      4  H   UNL     1       1.533   8.098  20.145  0.00  0.00    +0.000 HD
ENDROOT
BRANCH   3   5
ATOM      5  C   UNL     1       0.409   9.787  19.645  0.00  0.00    +0.000 A 
ATOM      6  C   UNL     1      -0.275  10.425  18.604  0.00  0.00    +0.000 A 
ATOM      7  C   UNL     1      -1.211  11.431  18.867  0.00  0.00    +0.000 A 
ATOM      8  C   UNL     1      -1.469  11.808  20.180  0.00  0.00    +0.000 A 
ATOM      9 BR   UNL     1      -2.708  13.192  20.526  0.00  0.00    +0.000 Br
ATOM     10  C   UNL     1      -0.823  11.172  21.235  0.00  0.00    +0.000 A 
ATOM     11  C   UNL     1       0.106  10.158  20.966  0.00  0.00    +0.000 A 
ATOM     12 BR   UNL     1       0.952   9.321  22.451  0.00  0.00    +0.000 Br
ENDBRANCH   3   5
BRANCH   2  13
ATOM     13  C   UNL     1       2.962   7.311  18.256  0.00  0.00    +0.000 C 
BRANCH  13  14
ATOM     14  N   UNL     1       2.211   6.089  18.660  0.00  0.00    +0.000 NA
ATOM     15  C   UNL     1       2.583   4.925  17.839  0.00  0.00    +0.000 C 
ATOM     16  C   UNL     1       1.405   3.952  17.733  0.00  0.00    +0.000 C 
ATOM     17  C   UNL     1       1.224   3.023  18.927  0.00  0.00    +0.000 C 
ATOM     18  C   UNL     1       1.043   3.733  20.264  0.00  0.00    +0.000 C 
ATOM     19  C   UNL     1       2.298   4.478  20.695  0.00  0.00    +0.000 C 
ATOM     20  C   UNL     1       2.443   5.883  20.105  0.00  0.00    +0.000 C 
ENDBRANCH  13  14
ENDBRANCH   2  13
TORSDOF 3
ENDMDL
MODEL 4
REMARK VINA RESULT:      -6.3      3.150      7.493
REMARK  Name = 
REMARK  3 active torsions:
REMARK  status: ('A' for Active; 'I' for Inactive)
REMARK    1  A    between atoms: C_2  and  C_3
REMARK    2  A    between atoms: C_3  and  N_4
REMARK    3  A    between atoms: N_11  and  C_12
REMARK                            x       y       z     vdW  Elec       q    Type
REMARK                         _______ _______ _______ _____ _____    ______ ____
ROOT
ATOM      1  O   UNL     1       2.026   8.886  17.459  0.00  0.00    +0.000 OA
ATOM      2  C   UNL     1       2.074   8.298  18.539  0.00  0.00    +0.000 C 
ATOM      3  N   UNL     1       2.690   7.084  18.769  0.00  0.00    +0.000 N 
ATOM      4  H   UNL     1       2.499   6.668  19.679  0.00  0.00    +0.000 HD
ENDROOT
BRANCH   3   5
ATOM      5  C   UNL     1       3.533   6.370  17.887  0.00  0.00    +0.000 A 
ATOM      6  C   UNL     1       4.641   6.967  17.273  0.00  0.00    +0.000 A 
ATOM      7  C   UNL     1       5.455   6.243  16.397  0.00  0.00    +0.000 A 
ATOM      8  C   UNL     1       5.166   4.910  16.125  0.00  0.00    +0.000 A 
ATOM      9 BR   UNL     1       6.249   3.948  14.913  0.00  0.00    +0.000 Br
ATOM     10  C   UNL     1       4.086   4.285  16.742  0.00  0.00    +0.000 A 
ATOM     11  C   UNL     1       3.279   5.012  17.627  0.00  0.00    +0.000 A 
ATOM     12 BR   UNL     1       1.822   4.101  18.443  0.00  0.00    +0.000 Br
ENDBRANCH   3   5
BRANCH   2  13
ATOM     13  C   UNL     1       1.342   8.878  19.754  0.00  0.00    +0.000 C 
BRANCH  13  14
ATOM     14  N   UNL     1       0.712  10.206  19.508  0.00  0.00    +0.000 NA
ATOM     15  C   UNL     1      -0.724  10.080  19.209  0.00  0.00    +0.000 C 
ATOM     16  C   UNL     1      -1.179  11.226  18.299  0.00  0.00    +0.000 C 
ATOM     17  C   UNL     1      -1.465  12.542  19.011  0.00  0.00    +0.000 C 
ATOM     18  C   UNL     1      -0.294  13.102  19.811  0.00  0.00    +0.000 C 
ATOM     19  C   UNL     1       0.058  12.225  21.005  0.00  0.00    +0.000 C 
ATOM     20  C   UNL     1       0.991  11.054  20.685  0.00  0.00    +0.000 C 
ENDBRANCH  13  14
ENDBRANCH   2  13
TORSDOF 3
ENDMDL
MODEL 5
REMARK VINA RESULT:      -6.3      2.917      7.472
REMARK  Name = 
REMARK  3 active torsions:
REMARK  status: ('A' for Active; 'I' for Inactive)
REMARK    1  A    between atoms: C_2  and  C_3
REMARK    2  A    between atoms: C_3  and  N_4
REMARK    3  A    between atoms: N_11  and  C_12
REMARK                            x       y       z     vdW  Elec       q    Type
REMARK                         _______ _______ _______ _____ _____    ______ ____
ROOT
ATOM      1  O   UNL     1      -0.617   7.878  21.500  0.00  0.00    +0.000 OA
ATOM      2  C   UNL     1       0.416   8.545  21.463  0.00  0.00    +0.000 C 
ATOM      3  N   UNL     1       1.625   8.131  20.940  0.00  0.00    +0.000 N 
ATOM      4  H   UNL     1       2.413   8.746  21.133  0.00  0.00    +0.000 HD
ENDROOT
BRANCH   3   5
ATOM      5  C   UNL     1       1.877   6.960  20.189  0.00  0.00    +0.000 A 
ATOM      6  C   UNL     1       1.811   5.683  20.760  0.00  0.00    +0.000 A 
ATOM      7  C   UNL     1       2.074   4.540  19.999  0.00  0.00    +0.000 A 
ATOM      8  C   UNL     1       2.406   4.665  18.654  0.00  0.00    +0.000 A 
ATOM      9 BR   UNL     1       2.793   3.119  17.641  0.00  0.00    +0.000 Br
ATOM     10  C   UNL     1       2.452   5.921  18.055  0.00  0.00    +0.000 A 
ATOM     11  C   UNL     1       2.179   7.062  18.820  0.00  0.00    +0.000 A 
ATOM     12 BR   UNL     1       2.252   8.749  17.943  0.00  0.00    +0.000 Br
ENDBRANCH   3   5
BRANCH   2  13
ATOM     13  C   UNL     1       0.446   9.937  22.103  0.00  0.00    +0.000 C 
BRANCH  13  14
ATOM     14  N   UNL     1      -0.776  10.751  21.848  0.00  0.00    +0.000 NA
ATOM     15  C   UNL     1      -0.995  11.749  22.907  0.00  0.00    +0.000 C 
ATOM     16  C   UNL     1      -2.491  12.046  23.055  0.00  0.00    +0.000 C 
ATOM     17  C   UNL     1      -3.059  13.031  22.040  0.00  0.00    +0.000 C 
ATOM     18  C   UNL     1      -2.869  12.623  20.583  0.00  0.00    +0.000 C 
ATOM     19  C   UNL     1      -1.405  12.630  20.169  0.00  0.00    +0.000 C 
ATOM     20  C   UNL     1      -0.640  11.346  20.502  0.00  0.00    +0.000 C 
ENDBRANCH  13  14
ENDBRANCH   2  13
TORSDOF 3
ENDMDL
MODEL 6
REMARK VINA RESULT:      -6.2      2.575      4.109
REMARK  Name = 
REMARK  3 active torsions:
REMARK  status: ('A' for Active; 'I' for Inactive)
REMARK    1  A    between atoms: C_2  and  C_3
REMARK    2  A    between atoms: C_3  and  N_4
REMARK    3  A    between atoms: N_11  and  C_12
REMARK                            x       y       z     vdW  Elec       q    Type
REMARK                         _______ _______ _______ _____ _____    ______ ____
ROOT
ATOM      1  O   UNL     1       4.175   7.592  17.623  0.00  0.00    +0.000 OA
ATOM      2  C   UNL     1       3.202   6.948  18.011  0.00  0.00    +0.000 C 
ATOM      3  N   UNL     1       2.103   7.464  18.668  0.00  0.00    +0.000 N 
ATOM      4  H   UNL     1       1.466   6.772  19.056  0.00  0.00    +0.000 HD
ENDROOT
BRANCH   3   5
ATOM      5  C   UNL     1       1.784   8.828  18.862  0.00  0.00    +0.000 A 
ATOM      6  C   UNL     1       2.023   9.793  17.877  0.00  0.00    +0.000 A 
ATOM      7  C   UNL     1       1.707  11.139  18.095  0.00  0.00    +0.000 A 
ATOM      8  C   UNL     1       1.147  11.530  19.306  0.00  0.00    +0.000 A 
ATOM      9 BR   UNL     1       0.756  13.353  19.607  0.00  0.00    +0.000 Br
ATOM     10  C   UNL     1       0.875  10.586  20.293  0.00  0.00    +0.000 A 
ATOM     11  C   UNL     1       1.184   9.239  20.065  0.00  0.00    +0.000 A 
ATOM     12 BR   UNL     1       0.781   7.996  21.448  0.00  0.00    +0.000 Br
ENDBRANCH   3   5
BRANCH   2  13
ATOM     13  C   UNL     1       3.182   5.425  17.845  0.00  0.00    +0.000 C 
BRANCH  13  14
ATOM     14  N   UNL     1       2.801   4.682  19.080  0.00  0.00    +0.000 NA
ATOM     15  C   UNL     1       1.514   3.987  18.921  0.00  0.00    +0.000 C 
ATOM     16  C   UNL     1       0.806   3.865  20.275  0.00  0.00    +0.000 C 
ATOM     17  C   UNL     1       1.290   2.721  21.157  0.00  0.00    +0.000 C 
ATOM     18  C   UNL     1       2.780   2.754  21.481  0.00  0.00    +0.000 C 
ATOM     19  C   UNL     1       3.642   2.521  20.249  0.00  0.00    +0.000 C 
ATOM     20  C   UNL     1       3.919   3.776  19.416  0.00  0.00    +0.000 C 
ENDBRANCH  13  14
ENDBRANCH   2  13
TORSDOF 3
ENDMDL
MODEL 7
REMARK VINA RESULT:      -6.2      4.066      6.037
REMARK  Name = 
REMARK  3 active torsions:
REMARK  status: ('A' for Active; 'I' for Inactive)
REMARK    1  A    between atoms: C_2  and  C_3
REMARK    2  A    between atoms: C_3  and  N_4
REMARK    3  A    between atoms: N_11  and  C_12
REMARK                            x       y       z     vdW  Elec       q    Type
REMARK                         _______ _______ _______ _____ _____    ______ ____
ROOT
ATOM      1  O   UNL     1       7.232   4.491  18.181  0.00  0.00    +0.000 OA
ATOM      2  C   UNL     1       6.475   4.869  17.287  0.00  0.00    +0.000 C 
ATOM      3  N   UNL     1       5.105   4.696  17.264  0.00  0.00    +0.000 N 
ATOM      4  H   UNL     1       4.655   4.927  16.381  0.00  0.00    +0.000 HD
ENDROOT
BRANCH   3   5
ATOM      5  C   UNL     1       4.283   4.232  18.317  0.00  0.00    +0.000 A 
ATOM      6  C   UNL     1       4.430   2.953  18.865  0.00  0.00    +0.000 A 
ATOM      7  C   UNL     1       3.598   2.512  19.900  0.00  0.00    +0.000 A 
ATOM      8  C   UNL     1       2.608   3.353  20.396  0.00  0.00    +0.000 A 
ATOM      9 BR   UNL     1       1.465   2.739  21.770  0.00  0.00    +0.000 Br
ATOM     10  C   UNL     1       2.457   4.640  19.887  0.00  0.00    +0.000 A 
ATOM     11  C   UNL     1       3.299   5.079  18.857  0.00  0.00    +0.000 A 
ATOM     12 BR   UNL     1       3.049   6.850  18.208  0.00  0.00    +0.000 Br
ENDBRANCH   3   5
BRANCH   2  13
ATOM     13  C   UNL     1       7.051   5.529  16.030  0.00  0.00    +0.000 C 
BRANCH  13  14
ATOM     14  N   UNL     1       6.876   4.725  14.786  0.00  0.00    +0.000 NA
ATOM     15  C   UNL     1       5.480   4.743  14.320  0.00  0.00    +0.000 C 
ATOM     16  C   UNL     1       5.156   3.448  13.568  0.00  0.00    +0.000 C 
ATOM     17  C   UNL     1       5.617   3.410  12.116  0.00  0.00    +0.000 C 
ATOM     18  C   UNL     1       7.114   3.630  11.918  0.00  0.00    +0.000 C 
ATOM     19  C   UNL     1       7.543   5.040  12.297  0.00  0.00    +0.000 C 
ATOM     20  C   UNL     1       7.834   5.242  13.786  0.00  0.00    +0.000 C 
ENDBRANCH  13  14
ENDBRANCH   2  13
TORSDOF 3
ENDMDL
MODEL 8
REMARK VINA RESULT:      -6.2      2.959      6.769
REMARK  Name = 
REMARK  3 active torsions:
REMARK  status: ('A' for Active; 'I' for Inactive)
REMARK    1  A    between atoms: C_2  and  C_3
REMARK    2  A    between atoms: C_3  and  N_4
REMARK    3  A    between atoms: N_11  and  C_12
REMARK                            x       y       z     vdW  Elec       q    Type
REMARK                         _______ _______ _______ _____ _____    ______ ____
ROOT
ATOM      1  O   UNL     1      -0.339   7.915  21.309  0.00  0.00    +0.000 OA
ATOM      2  C   UNL     1       0.797   8.388  21.313  0.00  0.00    +0.000 C 
ATOM      3  N   UNL     1       1.939   7.746  20.876  0.00  0.00    +0.000 N 
ATOM      4  H   UNL     1       2.812   8.219  21.097  0.00  0.00    +0.000 HD
ENDROOT
BRANCH   3   5
ATOM      5  C   UNL     1       2.018   6.518  20.178  0.00  0.00    +0.000 A 
ATOM      6  C   UNL     1       1.737   5.294  20.796  0.00  0.00    +0.000 A 
ATOM      7  C   UNL     1       1.830   4.092  20.087  0.00  0.00    +0.000 A 
ATOM      8  C   UNL     1       2.208   4.106  18.749  0.00  0.00    +0.000 A 
ATOM      9 BR   UNL     1       2.367   2.475  17.807  0.00  0.00    +0.000 Br
ATOM     10  C   UNL     1       2.468   5.311  18.104  0.00  0.00    +0.000 A 
ATOM     11  C   UNL     1       2.363   6.513  18.815  0.00  0.00    +0.000 A 
ATOM     12 BR   UNL     1       2.724   8.128  17.877  0.00  0.00    +0.000 Br
ENDBRANCH   3   5
BRANCH   2  13
ATOM     13  C   UNL     1       1.041   9.777  21.910  0.00  0.00    +0.000 C 
BRANCH  13  14
ATOM     14  N   UNL     1       0.546  10.900  21.062  0.00  0.00    +0.000 NA
ATOM     15  C   UNL     1       0.368  10.485  19.662  0.00  0.00    +0.000 C 
ATOM     16  C   UNL     1       0.575  11.680  18.725  0.00  0.00    +0.000 C 
ATOM     17  C   UNL     1      -0.627  12.605  18.581  0.00  0.00    +0.000 C 
ATOM     18  C   UNL     1      -1.132  13.201  19.891  0.00  0.00    +0.000 C 
ATOM     19  C   UNL     1      -1.720  12.144  20.815  0.00  0.00    +0.000 C 
ATOM     20  C   UNL     1      -0.693  11.412  21.683  0.00  0.00    +0.000 C 
ENDBRANCH  13  14
ENDBRANCH   2  13
TORSDOF 3
ENDMDL
MODEL 9
REMARK VINA RESULT:      -6.1      3.105      7.345
REMARK  Name = 
REMARK  3 active torsions:
REMARK  status: ('A' for Active; 'I' for Inactive)
REMARK    1  A    between atoms: C_2  and  C_3
REMARK    2  A    between atoms: C_3  and  N_4
REMARK    3  A    between atoms: N_11  and  C_12
REMARK                            x       y       z     vdW  Elec       q    Type
REMARK                         _______ _______ _______ _____ _____    ______ ____
ROOT
ATOM      1  O   UNL     1       2.290   8.631  18.445  0.00  0.00    +0.000 OA
ATOM      2  C   UNL     1       2.223   7.745  19.296  0.00  0.00    +0.000 C 
ATOM      3  N   UNL     1       2.714   6.461  19.164  0.00  0.00    +0.000 N 
ATOM      4  H   UNL     1       2.434   5.814  19.898  0.00  0.00    +0.000 HD
ENDROOT
BRANCH   3   5
ATOM      5  C   UNL     1       3.539   5.962  18.130  0.00  0.00    +0.000 A 
ATOM      6  C   UNL     1       4.553   6.735  17.552  0.00  0.00    +0.000 A 
ATOM      7  C   UNL     1       5.351   6.223  16.523  0.00  0.00    +0.000 A 
ATOM      8  C   UNL     1       5.139   4.928  16.063  0.00  0.00    +0.000 A 
ATOM      9 BR   UNL     1       6.197   4.255  14.650  0.00  0.00    +0.000 Br
ATOM     10  C   UNL     1       4.155   4.129  16.638  0.00  0.00    +0.000 A 
ATOM     11  C   UNL     1       3.365   4.644  17.675  0.00  0.00    +0.000 A 
ATOM     12 BR   UNL     1       2.041   3.502  18.425  0.00  0.00    +0.000 Br
ENDBRANCH   3   5
BRANCH   2  13
ATOM     13  C   UNL     1       1.477   8.006  20.609  0.00  0.00    +0.000 C 
BRANCH  13  14
ATOM     14  N   UNL     1       0.883   9.369  20.711  0.00  0.00    +0.000 NA
ATOM     15  C   UNL     1      -0.351   9.486  19.918  0.00  0.00    +0.000 C 
ATOM     16  C   UNL     1      -0.541  10.930  19.441  0.00  0.00    +0.000 C 
ATOM     17  C   UNL     1      -1.140  11.878  20.473  0.00  0.00    +0.000 C 
ATOM     18  C   UNL     1      -0.353  11.982  21.775  0.00  0.00    +0.000 C 
ATOM     19  C   UNL     1      -0.375  10.682  22.566  0.00  0.00    +0.000 C 
ATOM     20  C   UNL     1       0.686   9.661  22.147  0.00  0.00    +0.000 C 
ENDBRANCH  13  14
ENDBRANCH   2  13
TORSDOF 3
ENDMDL
