MODEL 1
REMARK VINA RESULT:      -8.3      0.000      0.000
REMARK  Name = 
REMARK  6 active torsions:
REMARK  status: ('A' for Active; 'I' for Inactive)
REMARK    1  A    between atoms: C_7  and  C_8
REMARK    2  A    between atoms: C_8  and  C_9
REMARK    3  A    between atoms: C_12  and  N_13
REMARK    4  A    between atoms: C_14  and  C_16
REMARK    5  A    between atoms: C_16  and  C_17
REMARK    6  A    between atoms: C_20  and  C_21
REMARK                            x       y       z     vdW  Elec       q    Type
REMARK                         _______ _______ _______ _____ _____    ______ ____
ROOT
ATOM      1  C   UNL     1       2.452   7.255  19.312  0.00  0.00    +0.000 A 
ATOM      2  C   UNL     1       2.434   7.914  18.079  0.00  0.00    +0.000 A 
ATOM      3  C   UNL     1       1.646   9.051  17.893  0.00  0.00    +0.000 A 
ATOM      4  C   UNL     1       0.860   9.555  18.932  0.00  0.00    +0.000 A 
ATOM      5  C   UNL     1       0.961   8.968  20.197  0.00  0.00    +0.000 A 
ATOM      6  C   UNL     1       1.740   7.816  20.382  0.00  0.00    +0.000 A 
ENDROOT
BRANCH   4   7
ATOM      7  N   UNL     1      -0.044  10.625  18.747  0.00  0.00    +0.000 N 
ATOM      8  C   UNL     1      -1.160  10.581  17.921  0.00  0.00    +0.000 C 
ATOM      9  O   UNL     1      -1.551   9.598  17.291  0.00  0.00    +0.000 OA
ATOM     10  H   UNL     1       0.045  11.415  19.373  0.00  0.00    +0.000 HD
BRANCH   8  11
ATOM     11  C   UNL     1      -1.922  11.896  17.829  0.00  0.00    +0.000 C 
BRANCH  11  12
ATOM     12  C   UNL     1      -3.307  11.755  18.408  0.00  0.00    +0.000 A 
ATOM     13  C   UNL     1      -4.304  11.089  17.681  0.00  0.00    +0.000 A 
ATOM     14  C   UNL     1      -5.624  11.089  18.126  0.00  0.00    +0.000 A 
ATOM     15  C   UNL     1      -5.966  11.740  19.314  0.00  0.00    +0.000 A 
ATOM     16  C   UNL     1      -7.395  11.826  19.759  0.00  0.00    +0.000 C 
ATOM     17  C   UNL     1      -4.957  12.337  20.081  0.00  0.00    +0.000 A 
ATOM     18  C   UNL     1      -3.634  12.343  19.633  0.00  0.00    +0.000 A 
ENDBRANCH  11  12
ENDBRANCH   8  11
ENDBRANCH   4   7
BRANCH   1  19
ATOM     19  C   UNL     1       3.242   5.969  19.472  0.00  0.00    +0.000 C 
BRANCH  19  26
ATOM     20  C   UNL     1       1.422   4.019  17.847  0.00  0.00    +0.000 C 
ATOM     21  C   UNL     1       1.642   3.957  19.161  0.00  0.00    +0.000 C 
ATOM     22  O   UNL     1       1.038   2.971  19.935  0.00  0.00    +0.000 OA
ATOM     23  C   UNL     1       1.508   3.184  21.199  0.00  0.00    +0.000 C 
ATOM     24  O   UNL     1       1.218   2.522  22.183  0.00  0.00    +0.000 OA
ATOM     25  C   UNL     1       2.407   4.330  21.226  0.00  0.00    +0.000 C 
ATOM     26  C   UNL     1       2.468   4.795  19.979  0.00  0.00    +0.000 C 
ENDBRANCH  19  26
ENDBRANCH   1  19
TORSDOF 5
ENDMDL
MODEL 2
REMARK VINA RESULT:      -8.2      2.066      2.551
REMARK  Name = 
REMARK  6 active torsions:
REMARK  status: ('A' for Active; 'I' for Inactive)
REMARK    1  A    between atoms: C_7  and  C_8
REMARK    2  A    between atoms: C_8  and  C_9
REMARK    3  A    between atoms: C_12  and  N_13
REMARK    4  A    between atoms: C_14  and  C_16
REMARK    5  A    between atoms: C_16  and  C_17
REMARK    6  A    between atoms: C_20  and  C_21
REMARK                            x       y       z     vdW  Elec       q    Type
REMARK                         _______ _______ _______ _____ _____    ______ ____
ROOT
ATOM      1  C   UNL     1       2.367   7.297  19.372  0.00  0.00    +0.000 A 
ATOM      2  C   UNL     1       2.233   8.066  18.213  0.00  0.00    +0.000 A 
ATOM      3  C   UNL     1       1.440   9.215  18.210  0.00  0.00    +0.000 A 
ATOM      4  C   UNL     1       0.764   9.621  19.363  0.00  0.00    +0.000 A 
ATOM      5  C   UNL     1       0.983   8.921  20.552  0.00  0.00    +0.000 A 
ATOM      6  C   UNL     1       1.768   7.757  20.554  0.00  0.00    +0.000 A 
ENDROOT
BRANCH   4   7
ATOM      7  N   UNL     1      -0.145  10.703  19.367  0.00  0.00    +0.000 N 
ATOM      8  C   UNL     1       0.195  12.018  19.657  0.00  0.00    +0.000 C 
ATOM      9  O   UNL     1       1.331  12.434  19.886  0.00  0.00    +0.000 OA
ATOM     10  H   UNL     1      -1.066  10.531  18.986  0.00  0.00    +0.000 HD
BRANCH   8  11
ATOM     11  C   UNL     1      -0.985  12.979  19.680  0.00  0.00    +0.000 C 
BRANCH  11  12
ATOM     12  C   UNL     1      -1.861  12.722  20.880  0.00  0.00    +0.000 A 
ATOM     13  C   UNL     1      -3.248  12.904  20.785  0.00  0.00    +0.000 A 
ATOM     14  C   UNL     1      -4.052  12.828  21.921  0.00  0.00    +0.000 A 
ATOM     15  C   UNL     1      -3.484  12.552  23.167  0.00  0.00    +0.000 A 
ATOM     16  C   UNL     1      -4.321  12.556  24.410  0.00  0.00    +0.000 C 
ATOM     17  C   UNL     1      -2.110  12.292  23.250  0.00  0.00    +0.000 A 
ATOM     18  C   UNL     1      -1.303  12.374  22.113  0.00  0.00    +0.000 A 
ENDBRANCH  11  12
ENDBRANCH   8  11
ENDBRANCH   4   7
BRANCH   1  19
ATOM     19  C   UNL     1       3.158   6.003  19.335  0.00  0.00    +0.000 C 
BRANCH  19  26
ATOM     20  C   UNL     1       1.394   3.955  17.769  0.00  0.00    +0.000 C 
ATOM     21  C   UNL     1       1.646   3.916  19.078  0.00  0.00    +0.000 C 
ATOM     22  O   UNL     1       1.107   2.911  19.873  0.00  0.00    +0.000 OA
ATOM     23  C   UNL     1       1.596   3.156  21.125  0.00  0.00    +0.000 C 
ATOM     24  O   UNL     1       1.360   2.491  22.121  0.00  0.00    +0.000 OA
ATOM     25  C   UNL     1       2.441   4.343  21.122  0.00  0.00    +0.000 C 
ATOM     26  C   UNL     1       2.451   4.799  19.870  0.00  0.00    +0.000 C 
ENDBRANCH  19  26
ENDBRANCH   1  19
TORSDOF 5
ENDMDL
MODEL 3
REMARK VINA RESULT:      -8.2      6.550      9.858
REMARK  Name = 
REMARK  6 active torsions:
REMARK  status: ('A' for Active; 'I' for Inactive)
REMARK    1  A    between atoms: C_7  and  C_8
REMARK    2  A    between atoms: C_8  and  C_9
REMARK    3  A    between atoms: C_12  and  N_13
REMARK    4  A    between atoms: C_14  and  C_16
REMARK    5  A    between atoms: C_16  and  C_17
REMARK    6  A    between atoms: C_20  and  C_21
REMARK                            x       y       z     vdW  Elec       q    Type
REMARK                         _______ _______ _______ _____ _____    ______ ____
ROOT
ATOM      1  C   UNL     1       6.121   5.047  17.134  0.00  0.00    +0.000 A 
ATOM      2  C   UNL     1       6.263   6.294  16.519  0.00  0.00    +0.000 A 
ATOM      3  C   UNL     1       7.103   7.265  17.068  0.00  0.00    +0.000 A 
ATOM      4  C   UNL     1       7.817   7.013  18.241  0.00  0.00    +0.000 A 
ATOM      5  C   UNL     1       7.766   5.732  18.797  0.00  0.00    +0.000 A 
ATOM      6  C   UNL     1       6.911   4.759  18.256  0.00  0.00    +0.000 A 
ENDROOT
BRANCH   4   7
ATOM      7  N   UNL     1       8.577   8.010  18.894  0.00  0.00    +0.000 N 
ATOM      8  C   UNL     1       8.584   9.354  18.541  0.00  0.00    +0.000 C 
ATOM      9  O   UNL     1       7.893   9.871  17.664  0.00  0.00    +0.000 OA
ATOM     10  H   UNL     1       9.021   7.752  19.765  0.00  0.00    +0.000 HD
BRANCH   8  11
ATOM     11  C   UNL     1       9.555  10.206  19.347  0.00  0.00    +0.000 C 
BRANCH  11  12
ATOM     12  C   UNL     1       9.862  11.494  18.626  0.00  0.00    +0.000 A 
ATOM     13  C   UNL     1      10.940  11.556  17.733  0.00  0.00    +0.000 A 
ATOM     14  C   UNL     1      11.336  12.774  17.183  0.00  0.00    +0.000 A 
ATOM     15  C   UNL     1      10.648  13.947  17.504  0.00  0.00    +0.000 A 
ATOM     16  C   UNL     1      11.116  15.276  16.993  0.00  0.00    +0.000 C 
ATOM     17  C   UNL     1       9.522  13.874  18.334  0.00  0.00    +0.000 A 
ATOM     18  C   UNL     1       9.129  12.655  18.891  0.00  0.00    +0.000 A 
ENDBRANCH  11  12
ENDBRANCH   8  11
ENDBRANCH   4   7
BRANCH   1  19
ATOM     19  C   UNL     1       5.136   4.035  16.577  0.00  0.00    +0.000 C 
BRANCH  19  26
ATOM     20  C   UNL     1       3.034   5.956  17.861  0.00  0.00    +0.000 C 
ATOM     21  C   UNL     1       3.082   4.635  18.035  0.00  0.00    +0.000 C 
ATOM     22  O   UNL     1       2.153   3.994  18.847  0.00  0.00    +0.000 OA
ATOM     23  C   UNL     1       2.473   2.669  18.765  0.00  0.00    +0.000 C 
ATOM     24  O   UNL     1       1.888   1.761  19.335  0.00  0.00    +0.000 OA
ATOM     25  C   UNL     1       3.631   2.474  17.902  0.00  0.00    +0.000 C 
ATOM     26  C   UNL     1       3.995   3.682  17.476  0.00  0.00    +0.000 C 
ENDBRANCH  19  26
ENDBRANCH   1  19
TORSDOF 5
ENDMDL
MODEL 4
REMARK VINA RESULT:      -8.2      1.666      2.329
REMARK  Name = 
REMARK  6 active torsions:
REMARK  status: ('A' for Active; 'I' for Inactive)
REMARK    1  A    between atoms: C_7  and  C_8
REMARK    2  A    between atoms: C_8  and  C_9
REMARK    3  A    between atoms: C_12  and  N_13
REMARK    4  A    between atoms: C_14  and  C_16
REMARK    5  A    between atoms: C_16  and  C_17
REMARK    6  A    between atoms: C_20  and  C_21
REMARK                            x       y       z     vdW  Elec       q    Type
REMARK                         _______ _______ _______ _____ _____    ______ ____
ROOT
ATOM      1  C   UNL     1       2.399   7.291  19.269  0.00  0.00    +0.000 A 
ATOM      2  C   UNL     1       2.342   8.160  18.176  0.00  0.00    +0.000 A 
ATOM      3  C   UNL     1       1.640   9.363  18.261  0.00  0.00    +0.000 A 
ATOM      4  C   UNL     1       0.980   9.725  19.437  0.00  0.00    +0.000 A 
ATOM      5  C   UNL     1       1.126   8.915  20.567  0.00  0.00    +0.000 A 
ATOM      6  C   UNL     1       1.819   7.697  20.480  0.00  0.00    +0.000 A 
ENDROOT
BRANCH   4   7
ATOM      7  N   UNL     1       0.157  10.871  19.522  0.00  0.00    +0.000 N 
ATOM      8  C   UNL     1      -1.176  10.915  19.132  0.00  0.00    +0.000 C 
ATOM      9  O   UNL     1      -1.838   9.961  18.724  0.00  0.00    +0.000 OA
ATOM     10  H   UNL     1       0.520  11.660  20.040  0.00  0.00    +0.000 HD
BRANCH   8  11
ATOM     11  C   UNL     1      -1.814  12.293  19.243  0.00  0.00    +0.000 C 
BRANCH  11  12
ATOM     12  C   UNL     1      -2.427  12.491  20.607  0.00  0.00    +0.000 A 
ATOM     13  C   UNL     1      -1.648  12.301  21.757  0.00  0.00    +0.000 A 
ATOM     14  C   UNL     1      -2.235  12.323  23.021  0.00  0.00    +0.000 A 
ATOM     15  C   UNL     1      -3.607  12.551  23.155  0.00  0.00    +0.000 A 
ATOM     16  C   UNL     1      -4.268  12.487  24.499  0.00  0.00    +0.000 C 
ATOM     17  C   UNL     1      -4.371  12.819  22.012  0.00  0.00    +0.000 A 
ATOM     18  C   UNL     1      -3.785  12.792  20.745  0.00  0.00    +0.000 A 
ENDBRANCH  11  12
ENDBRANCH   8  11
ENDBRANCH   4   7
BRANCH   1  19
ATOM     19  C   UNL     1       3.088   5.946  19.134  0.00  0.00    +0.000 C 
BRANCH  19  26
ATOM     20  C   UNL     1       1.197   3.889  17.737  0.00  0.00    +0.000 C 
ATOM     21  C   UNL     1       1.507   3.897  19.033  0.00  0.00    +0.000 C 
ATOM     22  O   UNL     1       0.975   2.943  19.895  0.00  0.00    +0.000 OA
ATOM     23  C   UNL     1       1.526   3.227  21.112  0.00  0.00    +0.000 C 
ATOM     24  O   UNL     1       1.316   2.611  22.145  0.00  0.00    +0.000 OA
ATOM     25  C   UNL     1       2.405   4.386  21.020  0.00  0.00    +0.000 C 
ATOM     26  C   UNL     1       2.372   4.787  19.750  0.00  0.00    +0.000 C 
ENDBRANCH  19  26
ENDBRANCH   1  19
TORSDOF 5
ENDMDL
MODEL 5
REMARK VINA RESULT:      -8.2      3.556      4.734
REMARK  Name = 
REMARK  6 active torsions:
REMARK  status: ('A' for Active; 'I' for Inactive)
REMARK    1  A    between atoms: C_7  and  C_8
REMARK    2  A    between atoms: C_8  and  C_9
REMARK    3  A    between atoms: C_12  and  N_13
REMARK    4  A    between atoms: C_14  and  C_16
REMARK    5  A    between atoms: C_16  and  C_17
REMARK    6  A    between atoms: C_20  and  C_21
REMARK                            x       y       z     vdW  Elec       q    Type
REMARK                         _______ _______ _______ _____ _____    ______ ____
ROOT
ATOM      1  C   UNL     1       2.817   5.612  18.399  0.00  0.00    +0.000 A 
ATOM      2  C   UNL     1       2.329   5.105  19.607  0.00  0.00    +0.000 A 
ATOM      3  C   UNL     1       1.859   5.966  20.600  0.00  0.00    +0.000 A 
ATOM      4  C   UNL     1       1.866   7.349  20.410  0.00  0.00    +0.000 A 
ATOM      5  C   UNL     1       2.246   7.855  19.164  0.00  0.00    +0.000 A 
ATOM      6  C   UNL     1       2.734   6.993  18.170  0.00  0.00    +0.000 A 
ENDROOT
BRANCH   4   7
ATOM      7  N   UNL     1       1.517   8.256  21.436  0.00  0.00    +0.000 N 
ATOM      8  C   UNL     1       0.217   8.504  21.862  0.00  0.00    +0.000 C 
ATOM      9  O   UNL     1      -0.794   7.931  21.457  0.00  0.00    +0.000 OA
ATOM     10  H   UNL     1       2.272   8.631  21.995  0.00  0.00    +0.000 HD
BRANCH   8  11
ATOM     11  C   UNL     1       0.104   9.591  22.922  0.00  0.00    +0.000 C 
BRANCH  11  12
ATOM     12  C   UNL     1      -0.694  10.761  22.405  0.00  0.00    +0.000 A 
ATOM     13  C   UNL     1      -0.389  11.319  21.156  0.00  0.00    +0.000 A 
ATOM     14  C   UNL     1      -1.006  12.495  20.735  0.00  0.00    +0.000 A 
ATOM     15  C   UNL     1      -1.951  13.124  21.550  0.00  0.00    +0.000 A 
ATOM     16  C   UNL     1      -2.556  14.436  21.152  0.00  0.00    +0.000 C 
ATOM     17  C   UNL     1      -2.315  12.524  22.763  0.00  0.00    +0.000 A 
ATOM     18  C   UNL     1      -1.692  11.349  23.188  0.00  0.00    +0.000 A 
ENDBRANCH  11  12
ENDBRANCH   8  11
ENDBRANCH   4   7
BRANCH   1  19
ATOM     19  C   UNL     1       3.409   4.671  17.366  0.00  0.00    +0.000 C 
BRANCH  19  26
ATOM     20  C   UNL     1       5.251   4.489  14.850  0.00  0.00    +0.000 C 
ATOM     21  C   UNL     1       5.671   4.521  16.115  0.00  0.00    +0.000 C 
ATOM     22  O   UNL     1       7.029   4.467  16.412  0.00  0.00    +0.000 OA
ATOM     23  C   UNL     1       7.092   4.558  17.773  0.00  0.00    +0.000 C 
ATOM     24  O   UNL     1       8.117   4.552  18.437  0.00  0.00    +0.000 OA
ATOM     25  C   UNL     1       5.755   4.654  18.343  0.00  0.00    +0.000 C 
ATOM     26  C   UNL     1       4.902   4.619  17.320  0.00  0.00    +0.000 C 
ENDBRANCH  19  26
ENDBRANCH   1  19
TORSDOF 5
ENDMDL
MODEL 6
REMARK VINA RESULT:      -8.1      2.265      3.036
REMARK  Name = 
REMARK  6 active torsions:
REMARK  status: ('A' for Active; 'I' for Inactive)
REMARK    1  A    between atoms: C_7  and  C_8
REMARK    2  A    between atoms: C_8  and  C_9
REMARK    3  A    between atoms: C_12  and  N_13
REMARK    4  A    between atoms: C_14  and  C_16
REMARK    5  A    between atoms: C_16  and  C_17
REMARK    6  A    between atoms: C_20  and  C_21
REMARK                            x       y       z     vdW  Elec       q    Type
REMARK                         _______ _______ _______ _____ _____    ______ ____
ROOT
ATOM      1  C   UNL     1       2.580   7.011  18.472  0.00  0.00    +0.000 A 
ATOM      2  C   UNL     1       2.138   7.112  19.794  0.00  0.00    +0.000 A 
ATOM      3  C   UNL     1       1.477   8.260  20.236  0.00  0.00    +0.000 A 
ATOM      4  C   UNL     1       1.244   9.330  19.370  0.00  0.00    +0.000 A 
ATOM      5  C   UNL     1       1.582   9.189  18.022  0.00  0.00    +0.000 A 
ATOM      6  C   UNL     1       2.261   8.043  17.578  0.00  0.00    +0.000 A 
ENDROOT
BRANCH   4   7
ATOM      7  N   UNL     1       0.693  10.554  19.811  0.00  0.00    +0.000 N 
ATOM      8  C   UNL     1      -0.580  11.009  19.486  0.00  0.00    +0.000 C 
ATOM      9  O   UNL     1      -1.419  10.391  18.831  0.00  0.00    +0.000 OA
ATOM     10  H   UNL     1       1.200  11.055  20.528  0.00  0.00    +0.000 HD
BRANCH   8  11
ATOM     11  C   UNL     1      -0.900  12.400  20.015  0.00  0.00    +0.000 C 
BRANCH  11  12
ATOM     12  C   UNL     1      -1.875  12.325  21.162  0.00  0.00    +0.000 A 
ATOM     13  C   UNL     1      -3.182  12.806  21.001  0.00  0.00    +0.000 A 
ATOM     14  C   UNL     1      -4.045  12.893  22.092  0.00  0.00    +0.000 A 
ATOM     15  C   UNL     1      -3.620  12.484  23.359  0.00  0.00    +0.000 A 
ATOM     16  C   UNL     1      -4.503  12.655  24.557  0.00  0.00    +0.000 C 
ATOM     17  C   UNL     1      -2.342  11.930  23.505  0.00  0.00    +0.000 A 
ATOM     18  C   UNL     1      -1.474  11.849  22.413  0.00  0.00    +0.000 A 
ENDBRANCH  11  12
ENDBRANCH   8  11
ENDBRANCH   4   7
BRANCH   1  19
ATOM     19  C   UNL     1       3.376   5.797  18.030  0.00  0.00    +0.000 C 
BRANCH  19  26
ATOM     20  C   UNL     1       4.651   3.295  19.397  0.00  0.00    +0.000 C 
ATOM     21  C   UNL     1       3.406   3.368  18.927  0.00  0.00    +0.000 C 
ATOM     22  O   UNL     1       2.550   2.275  19.015  0.00  0.00    +0.000 OA
ATOM     23  C   UNL     1       1.372   2.711  18.481  0.00  0.00    +0.000 C 
ATOM     24  O   UNL     1       0.353   2.046  18.374  0.00  0.00    +0.000 OA
ATOM     25  C   UNL     1       1.491   4.093  18.034  0.00  0.00    +0.000 C 
ATOM     26  C   UNL     1       2.739   4.473  18.304  0.00  0.00    +0.000 C 
ENDBRANCH  19  26
ENDBRANCH   1  19
TORSDOF 5
ENDMDL
MODEL 7
REMARK VINA RESULT:      -8.1      2.294      3.107
REMARK  Name = 
REMARK  6 active torsions:
REMARK  status: ('A' for Active; 'I' for Inactive)
REMARK    1  A    between atoms: C_7  and  C_8
REMARK    2  A    between atoms: C_8  and  C_9
REMARK    3  A    between atoms: C_12  and  N_13
REMARK    4  A    between atoms: C_14  and  C_16
REMARK    5  A    between atoms: C_16  and  C_17
REMARK    6  A    between atoms: C_20  and  C_21
REMARK                            x       y       z     vdW  Elec       q    Type
REMARK                         _______ _______ _______ _____ _____    ______ ____
ROOT
ATOM      1  C   UNL     1       2.724   6.843  18.560  0.00  0.00    +0.000 A 
ATOM      2  C   UNL     1       2.209   7.069  19.839  0.00  0.00    +0.000 A 
ATOM      3  C   UNL     1       1.568   8.271  20.145  0.00  0.00    +0.000 A 
ATOM      4  C   UNL     1       1.428   9.272  19.182  0.00  0.00    +0.000 A 
ATOM      5  C   UNL     1       1.840   9.009  17.873  0.00  0.00    +0.000 A 
ATOM      6  C   UNL     1       2.498   7.807  17.567  0.00  0.00    +0.000 A 
ENDROOT
BRANCH   4   7
ATOM      7  N   UNL     1       0.900  10.547  19.487  0.00  0.00    +0.000 N 
ATOM      8  C   UNL     1      -0.440  10.897  19.361  0.00  0.00    +0.000 C 
ATOM      9  O   UNL     1      -1.353  10.139  19.033  0.00  0.00    +0.000 OA
ATOM     10  H   UNL     1       1.509  11.194  19.969  0.00  0.00    +0.000 HD
BRANCH   8  11
ATOM     11  C   UNL     1      -0.735  12.358  19.669  0.00  0.00    +0.000 C 
BRANCH  11  12
ATOM     12  C   UNL     1      -1.571  12.484  20.917  0.00  0.00    +0.000 A 
ATOM     13  C   UNL     1      -1.078  12.008  22.140  0.00  0.00    +0.000 A 
ATOM     14  C   UNL     1      -1.897  11.969  23.268  0.00  0.00    +0.000 A 
ATOM     15  C   UNL     1      -3.217  12.423  23.194  0.00  0.00    +0.000 A 
ATOM     16  C   UNL     1      -4.136  12.304  24.372  0.00  0.00    +0.000 C 
ATOM     17  C   UNL     1      -3.685  12.971  21.994  0.00  0.00    +0.000 A 
ATOM     18  C   UNL     1      -2.867  13.004  20.862  0.00  0.00    +0.000 A 
ENDBRANCH  11  12
ENDBRANCH   8  11
ENDBRANCH   4   7
BRANCH   1  19
ATOM     19  C   UNL     1       3.497   5.570  18.268  0.00  0.00    +0.000 C 
BRANCH  19  26
ATOM     20  C   UNL     1       4.505   2.972  19.678  0.00  0.00    +0.000 C 
ATOM     21  C   UNL     1       3.297   3.140  19.141  0.00  0.00    +0.000 C 
ATOM     22  O   UNL     1       2.360   2.113  19.169  0.00  0.00    +0.000 OA
ATOM     23  C   UNL     1       1.248   2.639  18.575  0.00  0.00    +0.000 C 
ATOM     24  O   UNL     1       0.191   2.052  18.406  0.00  0.00    +0.000 OA
ATOM     25  C   UNL     1       1.494   4.011  18.151  0.00  0.00    +0.000 C 
ATOM     26  C   UNL     1       2.749   4.295  18.493  0.00  0.00    +0.000 C 
ENDBRANCH  19  26
ENDBRANCH   1  19
TORSDOF 5
ENDMDL
MODEL 8
REMARK VINA RESULT:      -8.1      3.841      5.071
REMARK  Name = 
REMARK  6 active torsions:
REMARK  status: ('A' for Active; 'I' for Inactive)
REMARK    1  A    between atoms: C_7  and  C_8
REMARK    2  A    between atoms: C_8  and  C_9
REMARK    3  A    between atoms: C_12  and  N_13
REMARK    4  A    between atoms: C_14  and  C_16
REMARK    5  A    between atoms: C_16  and  C_17
REMARK    6  A    between atoms: C_20  and  C_21
REMARK                            x       y       z     vdW  Elec       q    Type
REMARK                         _______ _______ _______ _____ _____    ______ ____
ROOT
ATOM      1  C   UNL     1       3.805   5.107  17.392  0.00  0.00    +0.000 A 
ATOM      2  C   UNL     1       2.511   4.919  17.885  0.00  0.00    +0.000 A 
ATOM      3  C   UNL     1       1.791   5.991  18.416  0.00  0.00    +0.000 A 
ATOM      4  C   UNL     1       2.347   7.271  18.467  0.00  0.00    +0.000 A 
ATOM      5  C   UNL     1       3.594   7.487  17.875  0.00  0.00    +0.000 A 
ATOM      6  C   UNL     1       4.326   6.408  17.354  0.00  0.00    +0.000 A 
ENDROOT
BRANCH   4   7
ATOM      7  N   UNL     1       1.702   8.352  19.109  0.00  0.00    +0.000 N 
ATOM      8  C   UNL     1       1.528   9.612  18.550  0.00  0.00    +0.000 C 
ATOM      9  O   UNL     1       1.849   9.943  17.409  0.00  0.00    +0.000 OA
ATOM     10  H   UNL     1       1.204   8.147  19.966  0.00  0.00    +0.000 HD
BRANCH   8  11
ATOM     11  C   UNL     1       0.879  10.625  19.483  0.00  0.00    +0.000 C 
BRANCH  11  12
ATOM     12  C   UNL     1      -0.517  10.960  19.023  0.00  0.00    +0.000 A 
ATOM     13  C   UNL     1      -1.238  11.980  19.659  0.00  0.00    +0.000 A 
ATOM     14  C   UNL     1      -2.581  12.194  19.357  0.00  0.00    +0.000 A 
ATOM     15  C   UNL     1      -3.221  11.402  18.400  0.00  0.00    +0.000 A 
ATOM     16  C   UNL     1      -4.687  11.559  18.129  0.00  0.00    +0.000 C 
ATOM     17  C   UNL     1      -2.481  10.435  17.707  0.00  0.00    +0.000 A 
ATOM     18  C   UNL     1      -1.136  10.216  18.015  0.00  0.00    +0.000 A 
ENDBRANCH  11  12
ENDBRANCH   8  11
ENDBRANCH   4   7
BRANCH   1  19
ATOM     19  C   UNL     1       4.609   3.917  16.902  0.00  0.00    +0.000 C 
BRANCH  19  26
ATOM     20  C   UNL     1       7.602   4.555  17.526  0.00  0.00    +0.000 C 
ATOM     21  C   UNL     1       7.055   4.529  16.311  0.00  0.00    +0.000 C 
ATOM     22  O   UNL     1       7.821   4.804  15.183  0.00  0.00    +0.000 OA
ATOM     23  C   UNL     1       6.962   4.651  14.132  0.00  0.00    +0.000 C 
ATOM     24  O   UNL     1       7.249   4.800  12.955  0.00  0.00    +0.000 OA
ATOM     25  C   UNL     1       5.632   4.291  14.605  0.00  0.00    +0.000 C 
ATOM     26  C   UNL     1       5.704   4.232  15.934  0.00  0.00    +0.000 C 
ENDBRANCH  19  26
ENDBRANCH   1  19
TORSDOF 5
ENDMDL
MODEL 9
REMARK VINA RESULT:      -8.0      3.257      4.090
REMARK  Name = 
REMARK  6 active torsions:
REMARK  status: ('A' for Active; 'I' for Inactive)
REMARK    1  A    between atoms: C_7  and  C_8
REMARK    2  A    between atoms: C_8  and  C_9
REMARK    3  A    between atoms: C_12  and  N_13
REMARK    4  A    between atoms: C_14  and  C_16
REMARK    5  A    between atoms: C_16  and  C_17
REMARK    6  A    between atoms: C_20  and  C_21
REMARK                            x       y       z     vdW  Elec       q    Type
REMARK                         _______ _______ _______ _____ _____    ______ ____
ROOT
ATOM      1  C   UNL     1       2.764   6.647  18.477  0.00  0.00    +0.000 A 
ATOM      2  C   UNL     1       2.263   6.768  19.776  0.00  0.00    +0.000 A 
ATOM      3  C   UNL     1       1.632   7.944  20.187  0.00  0.00    +0.000 A 
ATOM      4  C   UNL     1       1.488   9.023  19.312  0.00  0.00    +0.000 A 
ATOM      5  C   UNL     1       1.886   8.867  17.981  0.00  0.00    +0.000 A 
ATOM      6  C   UNL     1       2.534   7.692  17.569  0.00  0.00    +0.000 A 
ENDROOT
BRANCH   4   7
ATOM      7  N   UNL     1       0.971  10.271  19.727  0.00  0.00    +0.000 N 
ATOM      8  C   UNL     1      -0.326  10.707  19.485  0.00  0.00    +0.000 C 
ATOM      9  O   UNL     1      -1.215  10.053  18.939  0.00  0.00    +0.000 OA
ATOM     10  H   UNL     1       1.534  10.812  20.370  0.00  0.00    +0.000 HD
BRANCH   8  11
ATOM     11  C   UNL     1      -0.607  12.126  19.959  0.00  0.00    +0.000 C 
BRANCH  11  12
ATOM     12  C   UNL     1      -1.598  12.125  21.095  0.00  0.00    +0.000 A 
ATOM     13  C   UNL     1      -2.838  12.761  20.943  0.00  0.00    +0.000 A 
ATOM     14  C   UNL     1      -3.697  12.908  22.030  0.00  0.00    +0.000 A 
ATOM     15  C   UNL     1      -3.337  12.407  23.284  0.00  0.00    +0.000 A 
ATOM     16  C   UNL     1      -4.208  12.638  24.481  0.00  0.00    +0.000 C 
ATOM     17  C   UNL     1      -2.134  11.703  23.419  0.00  0.00    +0.000 A 
ATOM     18  C   UNL     1      -1.269  11.560  22.331  0.00  0.00    +0.000 A 
ENDBRANCH  11  12
ENDBRANCH   8  11
ENDBRANCH   4   7
BRANCH   1  19
ATOM     19  C   UNL     1       3.526   5.399  18.072  0.00  0.00    +0.000 C 
BRANCH  19  26
ATOM     20  C   UNL     1       5.539   6.149  15.804  0.00  0.00    +0.000 C 
ATOM     21  C   UNL     1       5.869   5.836  17.057  0.00  0.00    +0.000 C 
ATOM     22  O   UNL     1       7.201   5.816  17.455  0.00  0.00    +0.000 OA
ATOM     23  C   UNL     1       7.164   5.498  18.783  0.00  0.00    +0.000 C 
ATOM     24  O   UNL     1       8.137   5.383  19.512  0.00  0.00    +0.000 OA
ATOM     25  C   UNL     1       5.789   5.298  19.224  0.00  0.00    +0.000 C 
ATOM     26  C   UNL     1       5.016   5.496  18.158  0.00  0.00    +0.000 C 
ENDBRANCH  19  26
ENDBRANCH   1  19
TORSDOF 5
ENDMDL
