MODEL 1
REMARK VINA RESULT:      -6.4      0.000      0.000
REMARK  Name = 
REMARK  9 active torsions:
REMARK  status: ('A' for Active; 'I' for Inactive)
REMARK    1  A    between atoms: C_1  and  C_2
REMARK    2  A    between atoms: C_2  and  S_3
REMARK    3  A    between atoms: S_3  and  C_4
REMARK    4  A    between atoms: C_11  and  C_12
REMARK    5  A    between atoms: C_15  and  O_16
REMARK    6  A    between atoms: O_16  and  C_17
REMARK    7  A    between atoms: C_19  and  O_20
REMARK    8  A    between atoms: O_20  and  C_21
REMARK    9  A    between atoms: C_23  and  C_24
REMARK                            x       y       z     vdW  Elec       q    Type
REMARK                         _______ _______ _______ _____ _____    ______ ____
ROOT
ATOM      1  C   UNL     1      -5.475  12.411  19.609  0.00  0.00    +0.000 A 
ATOM      2  N   UNL     1      -5.896  13.695  19.510  0.00  0.00    +0.000 NA
ATOM      3  N   UNL     1      -5.685  14.564  20.557  0.00  0.00    +0.000 NA
ATOM      4  C   UNL     1      -5.039  14.111  21.649  0.00  0.00    +0.000 A 
ATOM      5  C   UNL     1      -4.606  12.794  21.670  0.00  0.00    +0.000 A 
ATOM      6  N   UNL     1      -4.834  11.909  20.682  0.00  0.00    +0.000 NA
ATOM      7  O   UNL     1      -4.015  12.282  22.807  0.00  0.00    +0.000 OA
ATOM      8  C   UNL     1      -2.665  12.754  23.057  0.00  0.00    +0.000 C 
ATOM      9  N   UNL     1      -2.476  14.215  22.792  0.00  0.00    +0.000 N 
ATOM     10  C   UNL     1      -1.188  14.736  22.693  0.00  0.00    +0.000 C 
ATOM     11  C   UNL     1      -1.067  16.185  22.226  0.00  0.00    +0.000 C 
ATOM     12  O   UNL     1      -0.151  14.089  22.854  0.00  0.00    +0.000 OA
ATOM     13  C   UNL     1      -3.507  15.030  23.357  0.00  0.00    +0.000 A 
ATOM     14  C   UNL     1      -3.244  15.814  24.490  0.00  0.00    +0.000 A 
ATOM     15  C   UNL     1      -4.242  16.630  25.013  0.00  0.00    +0.000 A 
ATOM     16  C   UNL     1      -5.487  16.675  24.404  0.00  0.00    +0.000 A 
ATOM     17  C   UNL     1      -5.756  15.875  23.282  0.00  0.00    +0.000 A 
ATOM     18  C   UNL     1      -4.781  15.022  22.760  0.00  0.00    +0.000 A 
ENDROOT
BRANCH   8  19
ATOM     19  C   UNL     1      -1.699  11.785  22.406  0.00  0.00    +0.000 A 
ATOM     20  C   UNL     1      -1.178  10.744  23.211  0.00  0.00    +0.000 A 
ATOM     21  C   UNL     1      -0.398   9.722  22.677  0.00  0.00    +0.000 A 
ATOM     22  C   UNL     1      -0.073   9.723  21.328  0.00  0.00    +0.000 A 
ATOM     23  C   UNL     1      -0.550  10.756  20.521  0.00  0.00    +0.000 A 
ATOM     24  C   UNL     1      -1.346  11.800  21.040  0.00  0.00    +0.000 A 
BRANCH  22  25
ATOM     25  O   UNL     1       0.696   8.666  20.929  0.00  0.00    +0.000 OA
ATOM     26  C   UNL     1       1.409   8.817  19.709  0.00  0.00    +0.000 C 
ENDBRANCH  22  25
BRANCH  24  27
ATOM     27  O   UNL     1      -1.794  12.625  20.043  0.00  0.00    +0.000 OA
ATOM     28  C   UNL     1      -0.889  13.331  19.208  0.00  0.00    +0.000 C 
ENDBRANCH  24  27
ENDBRANCH   8  19
BRANCH   1  29
ATOM     29  S   UNL     1      -5.855  11.280  18.296  0.00  0.00    +0.000 S 
BRANCH  29  31
ATOM     30  C   UNL     1      -3.431  10.194  17.656  0.00  0.00    +0.000 C 
ATOM     31  C   UNL     1      -4.316  11.391  17.331  0.00  0.00    +0.000 C 
ENDBRANCH  29  31
ENDBRANCH   1  29
TORSDOF 5
ENDMDL
MODEL 2
REMARK VINA RESULT:      -6.3      1.346      2.043
REMARK  Name = 
REMARK  9 active torsions:
REMARK  status: ('A' for Active; 'I' for Inactive)
REMARK    1  A    between atoms: C_1  and  C_2
REMARK    2  A    between atoms: C_2  and  S_3
REMARK    3  A    between atoms: S_3  and  C_4
REMARK    4  A    between atoms: C_11  and  C_12
REMARK    5  A    between atoms: C_15  and  O_16
REMARK    6  A    between atoms: O_16  and  C_17
REMARK    7  A    between atoms: C_19  and  O_20
REMARK    8  A    between atoms: O_20  and  C_21
REMARK    9  A    between atoms: C_23  and  C_24
REMARK                            x       y       z     vdW  Elec       q    Type
REMARK                         _______ _______ _______ _____ _____    ______ ____
ROOT
ATOM      1  C   UNL     1      -6.419  12.638  20.511  0.00  0.00    +0.000 A 
ATOM      2  N   UNL     1      -6.863  13.909  20.650  0.00  0.00    +0.000 NA
ATOM      3  N   UNL     1      -6.245  14.752  21.546  0.00  0.00    +0.000 NA
ATOM      4  C   UNL     1      -5.192  14.287  22.246  0.00  0.00    +0.000 A 
ATOM      5  C   UNL     1      -4.770  12.984  22.030  0.00  0.00    +0.000 A 
ATOM      6  N   UNL     1      -5.379  12.123  21.193  0.00  0.00    +0.000 NA
ATOM      7  O   UNL     1      -3.747  12.457  22.791  0.00  0.00    +0.000 OA
ATOM      8  C   UNL     1      -2.425  12.964  22.470  0.00  0.00    +0.000 C 
ATOM      9  N   UNL     1      -2.388  14.437  22.210  0.00  0.00    +0.000 N 
ATOM     10  C   UNL     1      -1.270  15.001  21.601  0.00  0.00    +0.000 C 
ATOM     11  C   UNL     1      -1.380  16.467  21.186  0.00  0.00    +0.000 C 
ATOM     12  O   UNL     1      -0.252  14.382  21.285  0.00  0.00    +0.000 OA
ATOM     13  C   UNL     1      -3.098  15.201  23.189  0.00  0.00    +0.000 A 
ATOM     14  C   UNL     1      -2.395  15.959  24.138  0.00  0.00    +0.000 A 
ATOM     15  C   UNL     1      -3.094  16.726  25.065  0.00  0.00    +0.000 A 
ATOM     16  C   UNL     1      -4.480  16.750  25.038  0.00  0.00    +0.000 A 
ATOM     17  C   UNL     1      -5.184  15.977  24.101  0.00  0.00    +0.000 A 
ATOM     18  C   UNL     1      -4.505  15.172  23.183  0.00  0.00    +0.000 A 
ENDROOT
BRANCH   8  19
ATOM     19  C   UNL     1      -1.807  12.046  21.435  0.00  0.00    +0.000 A 
ATOM     20  C   UNL     1      -2.221  12.206  20.091  0.00  0.00    +0.000 A 
ATOM     21  C   UNL     1      -1.614  11.514  19.047  0.00  0.00    +0.000 A 
ATOM     22  C   UNL     1      -0.599  10.604  19.309  0.00  0.00    +0.000 A 
ATOM     23  C   UNL     1      -0.195  10.407  20.629  0.00  0.00    +0.000 A 
ATOM     24  C   UNL     1      -0.793  11.102  21.703  0.00  0.00    +0.000 A 
BRANCH  22  25
ATOM     25  O   UNL     1      -0.086   9.992  18.199  0.00  0.00    +0.000 OA
ATOM     26  C   UNL     1       1.297   9.670  18.228  0.00  0.00    +0.000 C 
ENDBRANCH  22  25
BRANCH  24  27
ATOM     27  O   UNL     1      -0.152  10.837  22.884  0.00  0.00    +0.000 OA
ATOM     28  C   UNL     1      -0.010   9.508  23.363  0.00  0.00    +0.000 C 
ENDBRANCH  24  27
ENDBRANCH   8  19
BRANCH   1  29
ATOM     29  S   UNL     1      -7.298  11.535  19.433  0.00  0.00    +0.000 S 
BRANCH  29  31
ATOM     30  C   UNL     1      -5.260  11.287  17.632  0.00  0.00    +0.000 C 
ATOM     31  C   UNL     1      -6.579  12.021  17.833  0.00  0.00    +0.000 C 
ENDBRANCH  29  31
ENDBRANCH   1  29
TORSDOF 5
ENDMDL
MODEL 3
REMARK VINA RESULT:      -6.3      1.123      1.399
REMARK  Name = 
REMARK  9 active torsions:
REMARK  status: ('A' for Active; 'I' for Inactive)
REMARK    1  A    between atoms: C_1  and  C_2
REMARK    2  A    between atoms: C_2  and  S_3
REMARK    3  A    between atoms: S_3  and  C_4
REMARK    4  A    between atoms: C_11  and  C_12
REMARK    5  A    between atoms: C_15  and  O_16
REMARK    6  A    between atoms: O_16  and  C_17
REMARK    7  A    between atoms: C_19  and  O_20
REMARK    8  A    between atoms: O_20  and  C_21
REMARK    9  A    between atoms: C_23  and  C_24
REMARK                            x       y       z     vdW  Elec       q    Type
REMARK                         _______ _______ _______ _____ _____    ______ ____
ROOT
ATOM      1  C   UNL     1      -5.579  12.595  20.413  0.00  0.00    +0.000 A 
ATOM      2  N   UNL     1      -5.891  13.908  20.310  0.00  0.00    +0.000 NA
ATOM      3  N   UNL     1      -5.416  14.798  21.247  0.00  0.00    +0.000 NA
ATOM      4  C   UNL     1      -4.627  14.331  22.234  0.00  0.00    +0.000 A 
ATOM      5  C   UNL     1      -4.319  12.980  22.261  0.00  0.00    +0.000 A 
ATOM      6  N   UNL     1      -4.803  12.079  21.385  0.00  0.00    +0.000 NA
ATOM      7  O   UNL     1      -3.581  12.462  23.306  0.00  0.00    +0.000 OA
ATOM      8  C   UNL     1      -2.171  12.806  23.284  0.00  0.00    +0.000 C 
ATOM      9  N   UNL     1      -1.900  14.228  22.900  0.00  0.00    +0.000 N 
ATOM     10  C   UNL     1      -0.610  14.611  22.544  0.00  0.00    +0.000 C 
ATOM     11  C   UNL     1      -0.443  16.018  21.973  0.00  0.00    +0.000 C 
ATOM     12  O   UNL     1       0.375  13.870  22.559  0.00  0.00    +0.000 OA
ATOM     13  C   UNL     1      -2.733  15.167  23.586  0.00  0.00    +0.000 A 
ATOM     14  C   UNL     1      -2.199  15.970  24.604  0.00  0.00    +0.000 A 
ATOM     15  C   UNL     1      -3.007  16.905  25.243  0.00  0.00    +0.000 A 
ATOM     16  C   UNL     1      -4.332  17.048  24.861  0.00  0.00    +0.000 A 
ATOM     17  C   UNL     1      -4.872  16.231  23.856  0.00  0.00    +0.000 A 
ATOM     18  C   UNL     1      -4.090  15.261  23.224  0.00  0.00    +0.000 A 
ENDROOT
BRANCH   8  19
ATOM     19  C   UNL     1      -1.431  11.717  22.535  0.00  0.00    +0.000 A 
ATOM     20  C   UNL     1      -0.930  10.631  23.291  0.00  0.00    +0.000 A 
ATOM     21  C   UNL     1      -0.362   9.513  22.685  0.00  0.00    +0.000 A 
ATOM     22  C   UNL     1      -0.236   9.455  21.305  0.00  0.00    +0.000 A 
ATOM     23  C   UNL     1      -0.696  10.527  20.540  0.00  0.00    +0.000 A 
ATOM     24  C   UNL     1      -1.279  11.668  21.133  0.00  0.00    +0.000 A 
BRANCH  22  25
ATOM     25  O   UNL     1       0.335   8.305  20.835  0.00  0.00    +0.000 OA
ATOM     26  C   UNL     1       1.634   8.420  20.271  0.00  0.00    +0.000 C 
ENDBRANCH  22  25
BRANCH  24  27
ATOM     27  O   UNL     1      -1.763  12.528  20.183  0.00  0.00    +0.000 OA
ATOM     28  C   UNL     1      -2.154  12.065  18.900  0.00  0.00    +0.000 C 
ENDBRANCH  24  27
ENDBRANCH   8  19
BRANCH   1  29
ATOM     29  S   UNL     1      -6.292  11.450  19.260  0.00  0.00    +0.000 S 
BRANCH  29  31
ATOM     30  C   UNL     1      -7.310   9.061  20.105  0.00  0.00    +0.000 C 
ATOM     31  C   UNL     1      -7.428  10.557  20.366  0.00  0.00    +0.000 C 
ENDBRANCH  29  31
ENDBRANCH   1  29
TORSDOF 5
ENDMDL
MODEL 4
REMARK VINA RESULT:      -6.1      1.981      6.181
REMARK  Name = 
REMARK  9 active torsions:
REMARK  status: ('A' for Active; 'I' for Inactive)
REMARK    1  A    between atoms: C_1  and  C_2
REMARK    2  A    between atoms: C_2  and  S_3
REMARK    3  A    between atoms: S_3  and  C_4
REMARK    4  A    between atoms: C_11  and  C_12
REMARK    5  A    between atoms: C_15  and  O_16
REMARK    6  A    between atoms: O_16  and  C_17
REMARK    7  A    between atoms: C_19  and  O_20
REMARK    8  A    between atoms: O_20  and  C_21
REMARK    9  A    between atoms: C_23  and  C_24
REMARK                            x       y       z     vdW  Elec       q    Type
REMARK                         _______ _______ _______ _____ _____    ______ ____
ROOT
ATOM      1  C   UNL     1      -4.345  11.643  18.163  0.00  0.00    +0.000 A 
ATOM      2  N   UNL     1      -4.133  10.376  17.734  0.00  0.00    +0.000 NA
ATOM      3  N   UNL     1      -2.879   9.819  17.846  0.00  0.00    +0.000 NA
ATOM      4  C   UNL     1      -1.898  10.552  18.407  0.00  0.00    +0.000 A 
ATOM      5  C   UNL     1      -2.193  11.831  18.855  0.00  0.00    +0.000 A 
ATOM      6  N   UNL     1      -3.397  12.418  18.720  0.00  0.00    +0.000 NA
ATOM      7  O   UNL     1      -1.188  12.632  19.358  0.00  0.00    +0.000 OA
ATOM      8  C   UNL     1      -0.711  12.256  20.676  0.00  0.00    +0.000 C 
ATOM      9  N   UNL     1      -0.561  10.779  20.866  0.00  0.00    +0.000 N 
ATOM     10  C   UNL     1      -0.410  10.262  22.150  0.00  0.00    +0.000 C 
ATOM     11  C   UNL     1      -0.463   8.742  22.289  0.00  0.00    +0.000 C 
ATOM     12  O   UNL     1      -0.343  10.937  23.179  0.00  0.00    +0.000 OA
ATOM     13  C   UNL     1       0.114  10.135  19.781  0.00  0.00    +0.000 A 
ATOM     14  C   UNL     1       1.432   9.684  19.939  0.00  0.00    +0.000 A 
ATOM     15  C   UNL     1       2.070   9.029  18.890  0.00  0.00    +0.000 A 
ATOM     16  C   UNL     1       1.394   8.812  17.699  0.00  0.00    +0.000 A 
ATOM     17  C   UNL     1       0.081   9.281  17.534  0.00  0.00    +0.000 A 
ATOM     18  C   UNL     1      -0.567   9.972  18.560  0.00  0.00    +0.000 A 
ENDROOT
BRANCH   8  19
ATOM     19  C   UNL     1      -1.514  13.025  21.705  0.00  0.00    +0.000 A 
ATOM     20  C   UNL     1      -2.868  12.655  21.885  0.00  0.00    +0.000 A 
ATOM     21  C   UNL     1      -3.651  13.200  22.899  0.00  0.00    +0.000 A 
ATOM     22  C   UNL     1      -3.124  14.164  23.747  0.00  0.00    +0.000 A 
ATOM     23  C   UNL     1      -1.800  14.566  23.570  0.00  0.00    +0.000 A 
ATOM     24  C   UNL     1      -0.987  14.024  22.551  0.00  0.00    +0.000 A 
BRANCH  22  25
ATOM     25  O   UNL     1      -3.993  14.617  24.700  0.00  0.00    +0.000 OA
ATOM     26  C   UNL     1      -4.539  15.914  24.504  0.00  0.00    +0.000 C 
ENDBRANCH  22  25
BRANCH  24  27
ATOM     27  O   UNL     1       0.301  14.479  22.650  0.00  0.00    +0.000 OA
ATOM     28  C   UNL     1       0.621  15.843  22.424  0.00  0.00    +0.000 C 
ENDBRANCH  24  27
ENDBRANCH   8  19
BRANCH   1  29
ATOM     29  S   UNL     1      -5.940  12.380  17.908  0.00  0.00    +0.000 S 
BRANCH  29  31
ATOM     30  C   UNL     1      -6.641  11.517  20.403  0.00  0.00    +0.000 C 
ATOM     31  C   UNL     1      -6.963  11.278  18.933  0.00  0.00    +0.000 C 
ENDBRANCH  29  31
ENDBRANCH   1  29
TORSDOF 5
ENDMDL
MODEL 5
REMARK VINA RESULT:      -6.0      0.998      1.098
REMARK  Name = 
REMARK  9 active torsions:
REMARK  status: ('A' for Active; 'I' for Inactive)
REMARK    1  A    between atoms: C_1  and  C_2
REMARK    2  A    between atoms: C_2  and  S_3
REMARK    3  A    between atoms: S_3  and  C_4
REMARK    4  A    between atoms: C_11  and  C_12
REMARK    5  A    between atoms: C_15  and  O_16
REMARK    6  A    between atoms: O_16  and  C_17
REMARK    7  A    between atoms: C_19  and  O_20
REMARK    8  A    between atoms: O_20  and  C_21
REMARK    9  A    between atoms: C_23  and  C_24
REMARK                            x       y       z     vdW  Elec       q    Type
REMARK                         _______ _______ _______ _____ _____    ______ ____
ROOT
ATOM      1  C   UNL     1      -5.524  12.578  20.083  0.00  0.00    +0.000 A 
ATOM      2  N   UNL     1      -5.893  13.879  20.022  0.00  0.00    +0.000 NA
ATOM      3  N   UNL     1      -5.541  14.736  21.041  0.00  0.00    +0.000 NA
ATOM      4  C   UNL     1      -4.813  14.252  22.066  0.00  0.00    +0.000 A 
ATOM      5  C   UNL     1      -4.440  12.916  22.048  0.00  0.00    +0.000 A 
ATOM      6  N   UNL     1      -4.804  12.045  21.088  0.00  0.00    +0.000 NA
ATOM      7  O   UNL     1      -3.764  12.376  23.123  0.00  0.00    +0.000 OA
ATOM      8  C   UNL     1      -2.376  12.786  23.237  0.00  0.00    +0.000 C 
ATOM      9  N   UNL     1      -2.148  14.237  22.952  0.00  0.00    +0.000 N 
ATOM     10  C   UNL     1      -0.854  14.699  22.726  0.00  0.00    +0.000 C 
ATOM     11  C   UNL     1      -0.713  16.142  22.246  0.00  0.00    +0.000 C 
ATOM     12  O   UNL     1       0.163  14.005  22.786  0.00  0.00    +0.000 OA
ATOM     13  C   UNL     1      -3.080  15.097  23.613  0.00  0.00    +0.000 A 
ATOM     14  C   UNL     1      -2.672  15.866  24.713  0.00  0.00    +0.000 A 
ATOM     15  C   UNL     1      -3.577  16.725  25.330  0.00  0.00    +0.000 A 
ATOM     16  C   UNL     1      -4.872  16.828  24.846  0.00  0.00    +0.000 A 
ATOM     17  C   UNL     1      -5.286  16.044  23.757  0.00  0.00    +0.000 A 
ATOM     18  C   UNL     1      -4.406  15.148  23.144  0.00  0.00    +0.000 A 
ENDROOT
BRANCH   8  19
ATOM     19  C   UNL     1      -1.523  11.775  22.498  0.00  0.00    +0.000 A 
ATOM     20  C   UNL     1      -1.049  10.661  23.230  0.00  0.00    +0.000 A 
ATOM     21  C   UNL     1      -0.380   9.607  22.614  0.00  0.00    +0.000 A 
ATOM     22  C   UNL     1      -0.123   9.644  21.251  0.00  0.00    +0.000 A 
ATOM     23  C   UNL     1      -0.554  10.746  20.514  0.00  0.00    +0.000 A 
ATOM     24  C   UNL     1      -1.239  11.824  21.116  0.00  0.00    +0.000 A 
BRANCH  22  25
ATOM     25  O   UNL     1       0.539   8.549  20.769  0.00  0.00    +0.000 OA
ATOM     26  C   UNL     1       1.399   8.759  19.658  0.00  0.00    +0.000 C 
ENDBRANCH  22  25
BRANCH  24  27
ATOM     27  O   UNL     1      -1.668  12.726  20.179  0.00  0.00    +0.000 OA
ATOM     28  C   UNL     1      -0.847  13.095  19.081  0.00  0.00    +0.000 C 
ENDBRANCH  24  27
ENDBRANCH   8  19
BRANCH   1  29
ATOM     29  S   UNL     1      -6.081  11.468  18.816  0.00  0.00    +0.000 S 
BRANCH  29  31
ATOM     30  C   UNL     1      -6.786  13.181  16.809  0.00  0.00    +0.000 C 
ATOM     31  C   UNL     1      -7.366  12.497  18.040  0.00  0.00    +0.000 C 
ENDBRANCH  29  31
ENDBRANCH   1  29
TORSDOF 5
ENDMDL
MODEL 6
REMARK VINA RESULT:      -6.0      2.163      3.816
REMARK  Name = 
REMARK  9 active torsions:
REMARK  status: ('A' for Active; 'I' for Inactive)
REMARK    1  A    between atoms: C_1  and  C_2
REMARK    2  A    between atoms: C_2  and  S_3
REMARK    3  A    between atoms: S_3  and  C_4
REMARK    4  A    between atoms: C_11  and  C_12
REMARK    5  A    between atoms: C_15  and  O_16
REMARK    6  A    between atoms: O_16  and  C_17
REMARK    7  A    between atoms: C_19  and  O_20
REMARK    8  A    between atoms: O_20  and  C_21
REMARK    9  A    between atoms: C_23  and  C_24
REMARK                            x       y       z     vdW  Elec       q    Type
REMARK                         _______ _______ _______ _____ _____    ______ ____
ROOT
ATOM      1  C   UNL     1      -5.882  13.509  20.680  0.00  0.00    +0.000 A 
ATOM      2  N   UNL     1      -5.799  14.823  20.996  0.00  0.00    +0.000 NA
ATOM      3  N   UNL     1      -4.608  15.340  21.453  0.00  0.00    +0.000 NA
ATOM      4  C   UNL     1      -3.545  14.518  21.551  0.00  0.00    +0.000 A 
ATOM      5  C   UNL     1      -3.691  13.191  21.179  0.00  0.00    +0.000 A 
ATOM      6  N   UNL     1      -4.852  12.646  20.769  0.00  0.00    +0.000 NA
ATOM      7  O   UNL     1      -2.642  12.310  21.346  0.00  0.00    +0.000 OA
ATOM      8  C   UNL     1      -1.550  12.477  20.404  0.00  0.00    +0.000 C 
ATOM      9  N   UNL     1      -1.200  13.907  20.131  0.00  0.00    +0.000 N 
ATOM     10  C   UNL     1      -0.396  14.222  19.039  0.00  0.00    +0.000 C 
ATOM     11  C   UNL     1      -0.243  15.705  18.704  0.00  0.00    +0.000 C 
ATOM     12  O   UNL     1       0.108  13.399  18.273  0.00  0.00    +0.000 OA
ATOM     13  C   UNL     1      -1.090  14.698  21.318  0.00  0.00    +0.000 A 
ATOM     14  C   UNL     1       0.170  15.104  21.781  0.00  0.00    +0.000 A 
ATOM     15  C   UNL     1       0.266  15.901  22.917  0.00  0.00    +0.000 A 
ATOM     16  C   UNL     1      -0.885  16.303  23.577  0.00  0.00    +0.000 A 
ATOM     17  C   UNL     1      -2.146  15.882  23.126  0.00  0.00    +0.000 A 
ATOM     18  C   UNL     1      -2.265  15.052  22.008  0.00  0.00    +0.000 A 
ENDROOT
BRANCH   8  19
ATOM     19  C   UNL     1      -1.809  11.572  19.216  0.00  0.00    +0.000 A 
ATOM     20  C   UNL     1      -2.919  11.878  18.394  0.00  0.00    +0.000 A 
ATOM     21  C   UNL     1      -3.161  11.198  17.203  0.00  0.00    +0.000 A 
ATOM     22  C   UNL     1      -2.328  10.160  16.809  0.00  0.00    +0.000 A 
ATOM     23  C   UNL     1      -1.245   9.821  17.620  0.00  0.00    +0.000 A 
ATOM     24  C   UNL     1      -0.977  10.500  18.828  0.00  0.00    +0.000 A 
BRANCH  22  25
ATOM     25  O   UNL     1      -2.672   9.576  15.623  0.00  0.00    +0.000 OA
ATOM     26  C   UNL     1      -3.438  10.362  14.720  0.00  0.00    +0.000 C 
ENDBRANCH  22  25
BRANCH  24  27
ATOM     27  O   UNL     1       0.200  10.077  19.386  0.00  0.00    +0.000 OA
ATOM     28  C   UNL     1       1.253   9.565  18.583  0.00  0.00    +0.000 C 
ENDBRANCH  24  27
ENDBRANCH   8  19
BRANCH   1  29
ATOM     29  S   UNL     1      -7.453  12.839  20.199  0.00  0.00    +0.000 S 
BRANCH  29  31
ATOM     30  C   UNL     1      -6.809  10.770  18.536  0.00  0.00    +0.000 C 
ATOM     31  C   UNL     1      -7.051  12.274  18.516  0.00  0.00    +0.000 C 
ENDBRANCH  29  31
ENDBRANCH   1  29
TORSDOF 5
ENDMDL
MODEL 7
REMARK VINA RESULT:      -6.0      1.397      2.264
REMARK  Name = 
REMARK  9 active torsions:
REMARK  status: ('A' for Active; 'I' for Inactive)
REMARK    1  A    between atoms: C_1  and  C_2
REMARK    2  A    between atoms: C_2  and  S_3
REMARK    3  A    between atoms: S_3  and  C_4
REMARK    4  A    between atoms: C_11  and  C_12
REMARK    5  A    between atoms: C_15  and  O_16
REMARK    6  A    between atoms: O_16  and  C_17
REMARK    7  A    between atoms: C_19  and  O_20
REMARK    8  A    between atoms: O_20  and  C_21
REMARK    9  A    between atoms: C_23  and  C_24
REMARK                            x       y       z     vdW  Elec       q    Type
REMARK                         _______ _______ _______ _____ _____    ______ ____
ROOT
ATOM      1  C   UNL     1      -5.440  13.319  20.172  0.00  0.00    +0.000 A 
ATOM      2  N   UNL     1      -5.625  14.619  20.501  0.00  0.00    +0.000 NA
ATOM      3  N   UNL     1      -4.953  15.153  21.577  0.00  0.00    +0.000 NA
ATOM      4  C   UNL     1      -4.105  14.361  22.262  0.00  0.00    +0.000 A 
ATOM      5  C   UNL     1      -3.938  13.048  21.851  0.00  0.00    +0.000 A 
ATOM      6  N   UNL     1      -4.612  12.486  20.830  0.00  0.00    +0.000 NA
ATOM      7  O   UNL     1      -3.139  12.194  22.583  0.00  0.00    +0.000 OA
ATOM      8  C   UNL     1      -1.713  12.438  22.460  0.00  0.00    +0.000 C 
ATOM      9  N   UNL     1      -1.344  13.889  22.469  0.00  0.00    +0.000 N 
ATOM     10  C   UNL     1      -0.072  14.279  22.058  0.00  0.00    +0.000 C 
ATOM     11  C   UNL     1       0.170  15.779  21.903  0.00  0.00    +0.000 C 
ATOM     12  O   UNL     1       0.826  13.507  21.716  0.00  0.00    +0.000 OA
ATOM     13  C   UNL     1      -1.988  14.629  23.511  0.00  0.00    +0.000 A 
ATOM     14  C   UNL     1      -1.257  15.052  24.630  0.00  0.00    +0.000 A 
ATOM     15  C   UNL     1      -1.883  15.800  25.623  0.00  0.00    +0.000 A 
ATOM     16  C   UNL     1      -3.222  16.136  25.493  0.00  0.00    +0.000 A 
ATOM     17  C   UNL     1      -3.959  15.695  24.383  0.00  0.00    +0.000 A 
ATOM     18  C   UNL     1      -3.361  14.913  23.391  0.00  0.00    +0.000 A 
ENDROOT
BRANCH   8  19
ATOM     19  C   UNL     1      -1.184  11.580  21.328  0.00  0.00    +0.000 A 
ATOM     20  C   UNL     1      -1.568  11.928  20.012  0.00  0.00    +0.000 A 
ATOM     21  C   UNL     1      -1.027  11.295  18.896  0.00  0.00    +0.000 A 
ATOM     22  C   UNL     1      -0.113  10.263  19.054  0.00  0.00    +0.000 A 
ATOM     23  C   UNL     1       0.258   9.882  20.343  0.00  0.00    +0.000 A 
ATOM     24  C   UNL     1      -0.274  10.513  21.488  0.00  0.00    +0.000 A 
BRANCH  22  25
ATOM     25  O   UNL     1       0.344   9.726  17.882  0.00  0.00    +0.000 OA
ATOM     26  C   UNL     1       1.689   9.266  17.870  0.00  0.00    +0.000 C 
ENDBRANCH  22  25
BRANCH  24  27
ATOM     27  O   UNL     1       0.326  10.057  22.631  0.00  0.00    +0.000 OA
ATOM     28  C   UNL     1       1.424   9.158  22.579  0.00  0.00    +0.000 C 
ENDBRANCH  24  27
ENDBRANCH   8  19
BRANCH   1  29
ATOM     29  S   UNL     1      -6.400  12.623  18.852  0.00  0.00    +0.000 S 
BRANCH  29  31
ATOM     30  C   UNL     1      -4.581  11.586  17.097  0.00  0.00    +0.000 C 
ATOM     31  C   UNL     1      -5.323  11.233  18.380  0.00  0.00    +0.000 C 
ENDBRANCH  29  31
ENDBRANCH   1  29
TORSDOF 5
ENDMDL
MODEL 8
REMARK VINA RESULT:      -5.8      0.929      1.017
REMARK  Name = 
REMARK  9 active torsions:
REMARK  status: ('A' for Active; 'I' for Inactive)
REMARK    1  A    between atoms: C_1  and  C_2
REMARK    2  A    between atoms: C_2  and  S_3
REMARK    3  A    between atoms: S_3  and  C_4
REMARK    4  A    between atoms: C_11  and  C_12
REMARK    5  A    between atoms: C_15  and  O_16
REMARK    6  A    between atoms: O_16  and  C_17
REMARK    7  A    between atoms: C_19  and  O_20
REMARK    8  A    between atoms: O_20  and  C_21
REMARK    9  A    between atoms: C_23  and  C_24
REMARK                            x       y       z     vdW  Elec       q    Type
REMARK                         _______ _______ _______ _____ _____    ______ ____
ROOT
ATOM      1  C   UNL     1      -5.043  12.888  19.644  0.00  0.00    +0.000 A 
ATOM      2  N   UNL     1      -5.435  14.177  19.775  0.00  0.00    +0.000 NA
ATOM      3  N   UNL     1      -5.064  14.892  20.892  0.00  0.00    +0.000 NA
ATOM      4  C   UNL     1      -4.294  14.287  21.816  0.00  0.00    +0.000 A 
ATOM      5  C   UNL     1      -3.900  12.975  21.603  0.00  0.00    +0.000 A 
ATOM      6  N   UNL     1      -4.282  12.237  20.544  0.00  0.00    +0.000 NA
ATOM      7  O   UNL     1      -3.180  12.306  22.572  0.00  0.00    +0.000 OA
ATOM      8  C   UNL     1      -1.796  12.725  22.699  0.00  0.00    +0.000 C 
ATOM      9  N   UNL     1      -1.601  14.206  22.610  0.00  0.00    +0.000 N 
ATOM     10  C   UNL     1      -0.323  14.721  22.410  0.00  0.00    +0.000 C 
ATOM     11  C   UNL     1      -0.222  16.219  22.130  0.00  0.00    +0.000 C 
ATOM     12  O   UNL     1       0.707  14.047  22.342  0.00  0.00    +0.000 OA
ATOM     13  C   UNL     1      -2.525  14.947  23.412  0.00  0.00    +0.000 A 
ATOM     14  C   UNL     1      -2.093  15.566  24.594  0.00  0.00    +0.000 A 
ATOM     15  C   UNL     1      -2.990  16.313  25.351  0.00  0.00    +0.000 A 
ATOM     16  C   UNL     1      -4.302  16.455  24.926  0.00  0.00    +0.000 A 
ATOM     17  C   UNL     1      -4.739  15.820  23.753  0.00  0.00    +0.000 A 
ATOM     18  C   UNL     1      -3.866  15.035  22.995  0.00  0.00    +0.000 A 
ENDROOT
BRANCH   8  19
ATOM     19  C   UNL     1      -0.952  11.843  21.801  0.00  0.00    +0.000 A 
ATOM     20  C   UNL     1      -0.399  10.672  22.370  0.00  0.00    +0.000 A 
ATOM     21  C   UNL     1       0.271   9.725  21.600  0.00  0.00    +0.000 A 
ATOM     22  C   UNL     1       0.449   9.932  20.239  0.00  0.00    +0.000 A 
ATOM     23  C   UNL     1      -0.062  11.094  19.661  0.00  0.00    +0.000 A 
ATOM     24  C   UNL     1      -0.748  12.065  20.422  0.00  0.00    +0.000 A 
BRANCH  22  25
ATOM     25  O   UNL     1       1.120   8.929  19.597  0.00  0.00    +0.000 OA
ATOM     26  C   UNL     1       1.562   9.200  18.273  0.00  0.00    +0.000 C 
ENDBRANCH  22  25
BRANCH  24  27
ATOM     27  O   UNL     1      -1.260  13.052  19.622  0.00  0.00    +0.000 OA
ATOM     28  C   UNL     1      -0.447  13.733  18.680  0.00  0.00    +0.000 C 
ENDBRANCH  24  27
ENDBRANCH   8  19
BRANCH   1  29
ATOM     29  S   UNL     1      -5.624  11.951  18.254  0.00  0.00    +0.000 S 
BRANCH  29  31
ATOM     30  C   UNL     1      -3.195  11.363  17.151  0.00  0.00    +0.000 C 
ATOM     31  C   UNL     1      -4.251  10.770  18.075  0.00  0.00    +0.000 C 
ENDBRANCH  29  31
ENDBRANCH   1  29
TORSDOF 5
ENDMDL
MODEL 9
REMARK VINA RESULT:      -5.8      1.619      2.622
REMARK  Name = 
REMARK  9 active torsions:
REMARK  status: ('A' for Active; 'I' for Inactive)
REMARK    1  A    between atoms: C_1  and  C_2
REMARK    2  A    between atoms: C_2  and  S_3
REMARK    3  A    between atoms: S_3  and  C_4
REMARK    4  A    between atoms: C_11  and  C_12
REMARK    5  A    between atoms: C_15  and  O_16
REMARK    6  A    between atoms: O_16  and  C_17
REMARK    7  A    between atoms: C_19  and  O_20
REMARK    8  A    between atoms: O_20  and  C_21
REMARK    9  A    between atoms: C_23  and  C_24
REMARK                            x       y       z     vdW  Elec       q    Type
REMARK                         _______ _______ _______ _____ _____    ______ ____
ROOT
ATOM      1  C   UNL     1      -4.971  13.172  19.945  0.00  0.00    +0.000 A 
ATOM      2  N   UNL     1      -5.241  14.454  20.289  0.00  0.00    +0.000 NA
ATOM      3  N   UNL     1      -4.635  15.005  21.395  0.00  0.00    +0.000 NA
ATOM      4  C   UNL     1      -3.764  14.251  22.094  0.00  0.00    +0.000 A 
ATOM      5  C   UNL     1      -3.508  12.957  21.667  0.00  0.00    +0.000 A 
ATOM      6  N   UNL     1      -4.117  12.376  20.616  0.00  0.00    +0.000 NA
ATOM      7  O   UNL     1      -2.684  12.137  22.411  0.00  0.00    +0.000 OA
ATOM      8  C   UNL     1      -1.272  12.465  22.337  0.00  0.00    +0.000 C 
ATOM      9  N   UNL     1      -0.989  13.934  22.383  0.00  0.00    +0.000 N 
ATOM     10  C   UNL     1       0.271  14.404  22.019  0.00  0.00    +0.000 C 
ATOM     11  C   UNL     1       0.430  15.918  21.896  0.00  0.00    +0.000 C 
ATOM     12  O   UNL     1       1.222  13.691  21.694  0.00  0.00    +0.000 OA
ATOM     13  C   UNL     1      -1.707  14.616  23.414  0.00  0.00    +0.000 A 
ATOM     14  C   UNL     1      -1.037  15.061  24.564  0.00  0.00    +0.000 A 
ATOM     15  C   UNL     1      -1.736  15.753  25.548  0.00  0.00    +0.000 A 
ATOM     16  C   UNL     1      -3.087  16.014  25.381  0.00  0.00    +0.000 A 
ATOM     17  C   UNL     1      -3.762  15.552  24.239  0.00  0.00    +0.000 A 
ATOM     18  C   UNL     1      -3.090  14.824  23.255  0.00  0.00    +0.000 A 
ENDROOT
BRANCH   8  19
ATOM     19  C   UNL     1      -0.659  11.660  21.210  0.00  0.00    +0.000 A 
ATOM     20  C   UNL     1      -0.966  12.053  19.886  0.00  0.00    +0.000 A 
ATOM     21  C   UNL     1      -0.345  11.472  18.783  0.00  0.00    +0.000 A 
ATOM     22  C   UNL     1       0.574  10.447  18.959  0.00  0.00    +0.000 A 
ATOM     23  C   UNL     1       0.870  10.022  20.254  0.00  0.00    +0.000 A 
ATOM     24  C   UNL     1       0.256  10.600  21.386  0.00  0.00    +0.000 A 
BRANCH  22  25
ATOM     25  O   UNL     1       1.112   9.963  17.799  0.00  0.00    +0.000 OA
ATOM     26  C   UNL     1       2.080   8.930  17.925  0.00  0.00    +0.000 C 
ENDBRANCH  22  25
BRANCH  24  27
ATOM     27  O   UNL     1       0.791  10.107  22.547  0.00  0.00    +0.000 OA
ATOM     28  C   UNL     1      -0.008   9.406  23.487  0.00  0.00    +0.000 C 
ENDBRANCH  24  27
ENDBRANCH   8  19
BRANCH   1  29
ATOM     29  S   UNL     1      -5.846  12.446  18.583  0.00  0.00    +0.000 S 
BRANCH  29  31
ATOM     30  C   UNL     1      -7.527  11.265  20.383  0.00  0.00    +0.000 C 
ATOM     31  C   UNL     1      -7.514  12.339  19.302  0.00  0.00    +0.000 C 
ENDBRANCH  29  31
ENDBRANCH   1  29
TORSDOF 5
ENDMDL
