MODEL 1
REMARK VINA RESULT:      -9.2      0.000      0.000
REMARK  Name = 
REMARK  6 active torsions:
REMARK  status: ('A' for Active; 'I' for Inactive)
REMARK    1  A    between atoms: C_1  and  C_2
REMARK    2  A    between atoms: C_5  and  C_6
REMARK    3  A    between atoms: C_6  and  N_7
REMARK    4  A    between atoms: C_10  and  C_11
REMARK    5  A    between atoms: N_13  and  C_14
REMARK    6  A    between atoms: C_17  and  C_18
REMARK                            x       y       z     vdW  Elec       q    Type
REMARK                         _______ _______ _______ _____ _____    ______ ____
ROOT
ATOM      1  C   UNL     1       7.788   7.230  17.913  0.00  0.00    +0.000 C 
ATOM      2  O   UNL     1       7.150   7.655  16.946  0.00  0.00    +0.000 OA
ATOM      3  N   UNL     1       8.611   8.013  18.706  0.00  0.00    +0.000 N 
ATOM      4  H   UNL     1       9.277   7.531  19.297  0.00  0.00    +0.000 HD
ENDROOT
BRANCH   1   8
ATOM      5  N   UNL     1       4.913   4.919  18.172  0.00  0.00    +0.000 NA
ATOM      6  C   UNL     1       5.698   5.111  16.938  0.00  0.00    +0.000 C 
ATOM      7  C   UNL     1       7.202   4.880  17.134  0.00  0.00    +0.000 C 
ATOM      8  C   UNL     1       7.774   5.733  18.274  0.00  0.00    +0.000 C 
ATOM      9  C   UNL     1       6.969   5.417  19.535  0.00  0.00    +0.000 C 
ATOM     10  C   UNL     1       5.472   5.651  19.321  0.00  0.00    +0.000 C 
BRANCH   5  11
ATOM     11  C   UNL     1       3.516   5.382  17.954  0.00  0.00    +0.000 C 
BRANCH  11  16
ATOM     12  C   UNL     1       1.413   2.742  21.432  0.00  0.00    +0.000 C 
ATOM     13  C   UNL     1       1.531   3.240  20.045  0.00  0.00    +0.000 A 
ATOM     14  C   UNL     1       0.813   3.006  18.894  0.00  0.00    +0.000 A 
ATOM     15  C   UNL     1       1.422   3.782  17.878  0.00  0.00    +0.000 A 
ATOM     16  C   UNL     1       2.478   4.442  18.470  0.00  0.00    +0.000 A 
ATOM     17  O   UNL     1       2.549   4.112  19.795  0.00  0.00    +0.000 OA
ENDBRANCH  11  16
ENDBRANCH   5  11
ENDBRANCH   1   8
BRANCH   3  18
ATOM     18  C   UNL     1       8.732   9.426  18.637  0.00  0.00    +0.000 A 
ATOM     19  C   UNL     1       8.123  10.202  17.651  0.00  0.00    +0.000 A 
ATOM     20  C   UNL     1       8.266  11.598  17.640  0.00  0.00    +0.000 A 
ATOM     21  C   UNL     1       9.023  12.261  18.613  0.00  0.00    +0.000 A 
ATOM     22  C   UNL     1       9.632  11.484  19.605  0.00  0.00    +0.000 A 
ATOM     23  C   UNL     1       9.476  10.084  19.624  0.00  0.00    +0.000 A 
BRANCH  21  24
ATOM     24  C   UNL     1       9.130  13.727  18.584  0.00  0.00    +0.000 A 
ATOM     25  C   UNL     1       8.141  14.683  18.413  0.00  0.00    +0.000 A 
ATOM     26  C   UNL     1       8.735  15.973  18.426  0.00  0.00    +0.000 A 
ATOM     27  C   UNL     1       8.231  17.283  18.313  0.00  0.00    +0.000 A 
ATOM     28  C   UNL     1       9.122  18.361  18.300  0.00  0.00    +0.000 A 
ATOM     29  C   UNL     1      10.495  18.147  18.397  0.00  0.00    +0.000 A 
ATOM     30  C   UNL     1      11.014  16.853  18.545  0.00  0.00    +0.000 A 
ATOM     31  C   UNL     1      10.107  15.786  18.566  0.00  0.00    +0.000 A 
ATOM     32  N   UNL     1      10.314  14.429  18.709  0.00  0.00    +0.000 N 
ATOM     33  H   UNL     1      11.220  14.007  18.849  0.00  0.00    +0.000 HD
ENDBRANCH  21  24
ENDBRANCH   3  18
TORSDOF 5
ENDMDL
MODEL 2
REMARK VINA RESULT:      -9.1      1.853      2.249
REMARK  Name = 
REMARK  6 active torsions:
REMARK  status: ('A' for Active; 'I' for Inactive)
REMARK    1  A    between atoms: C_1  and  C_2
REMARK    2  A    between atoms: C_5  and  C_6
REMARK    3  A    between atoms: C_6  and  N_7
REMARK    4  A    between atoms: C_10  and  C_11
REMARK    5  A    between atoms: N_13  and  C_14
REMARK    6  A    between atoms: C_17  and  C_18
REMARK                            x       y       z     vdW  Elec       q    Type
REMARK                         _______ _______ _______ _____ _____    ______ ____
ROOT
ATOM      1  C   UNL     1       7.686   6.905  17.856  0.00  0.00    +0.000 C 
ATOM      2  O   UNL     1       8.138   6.616  18.966  0.00  0.00    +0.000 OA
ATOM      3  N   UNL     1       7.621   8.195  17.354  0.00  0.00    +0.000 N 
ATOM      4  H   UNL     1       7.008   8.353  16.564  0.00  0.00    +0.000 HD
ENDROOT
BRANCH   1   8
ATOM      5  N   UNL     1       4.187   5.723  17.682  0.00  0.00    +0.000 NA
ATOM      6  C   UNL     1       4.723   6.811  16.844  0.00  0.00    +0.000 C 
ATOM      7  C   UNL     1       5.969   6.404  16.046  0.00  0.00    +0.000 C 
ATOM      8  C   UNL     1       7.069   5.826  16.946  0.00  0.00    +0.000 C 
ATOM      9  C   UNL     1       6.464   4.652  17.716  0.00  0.00    +0.000 C 
ATOM     10  C   UNL     1       5.222   5.074  18.504  0.00  0.00    +0.000 C 
BRANCH   5  11
ATOM     11  C   UNL     1       3.135   6.258  18.588  0.00  0.00    +0.000 C 
BRANCH  11  16
ATOM     12  C   UNL     1       0.676   2.098  18.952  0.00  0.00    +0.000 C 
ATOM     13  C   UNL     1       1.276   3.327  19.512  0.00  0.00    +0.000 A 
ATOM     14  C   UNL     1       1.325   3.861  20.781  0.00  0.00    +0.000 A 
ATOM     15  C   UNL     1       2.048   5.073  20.677  0.00  0.00    +0.000 A 
ATOM     16  C   UNL     1       2.398   5.209  19.350  0.00  0.00    +0.000 A 
ATOM     17  O   UNL     1       1.925   4.144  18.634  0.00  0.00    +0.000 OA
ENDBRANCH  11  16
ENDBRANCH   5  11
ENDBRANCH   1   8
BRANCH   3  18
ATOM     18  C   UNL     1       8.192   9.349  17.953  0.00  0.00    +0.000 A 
ATOM     19  C   UNL     1       9.027   9.301  19.069  0.00  0.00    +0.000 A 
ATOM     20  C   UNL     1       9.575  10.474  19.611  0.00  0.00    +0.000 A 
ATOM     21  C   UNL     1       9.304  11.730  19.055  0.00  0.00    +0.000 A 
ATOM     22  C   UNL     1       8.470  11.779  17.933  0.00  0.00    +0.000 A 
ATOM     23  C   UNL     1       7.931  10.600  17.380  0.00  0.00    +0.000 A 
BRANCH  21  24
ATOM     24  C   UNL     1       9.917  12.935  19.634  0.00  0.00    +0.000 A 
ATOM     25  C   UNL     1       9.559  13.652  20.766  0.00  0.00    +0.000 A 
ATOM     26  C   UNL     1      10.431  14.765  20.905  0.00  0.00    +0.000 A 
ATOM     27  C   UNL     1      10.548  15.804  21.848  0.00  0.00    +0.000 A 
ATOM     28  C   UNL     1      11.504  16.805  21.649  0.00  0.00    +0.000 A 
ATOM     29  C   UNL     1      12.333  16.781  20.530  0.00  0.00    +0.000 A 
ATOM     30  C   UNL     1      12.255  15.737  19.596  0.00  0.00    +0.000 A 
ATOM     31  C   UNL     1      11.299  14.737  19.817  0.00  0.00    +0.000 A 
ATOM     32  N   UNL     1      11.001  13.599  19.095  0.00  0.00    +0.000 N 
ATOM     33  H   UNL     1      11.492  13.315  18.260  0.00  0.00    +0.000 HD
ENDBRANCH  21  24
ENDBRANCH   3  18
TORSDOF 5
ENDMDL
MODEL 3
REMARK VINA RESULT:      -9.0      0.678      1.084
REMARK  Name = 
REMARK  6 active torsions:
REMARK  status: ('A' for Active; 'I' for Inactive)
REMARK    1  A    between atoms: C_1  and  C_2
REMARK    2  A    between atoms: C_5  and  C_6
REMARK    3  A    between atoms: C_6  and  N_7
REMARK    4  A    between atoms: C_10  and  C_11
REMARK    5  A    between atoms: N_13  and  C_14
REMARK    6  A    between atoms: C_17  and  C_18
REMARK                            x       y       z     vdW  Elec       q    Type
REMARK                         _______ _______ _______ _____ _____    ______ ____
ROOT
ATOM      1  C   UNL     1       7.830   7.488  17.991  0.00  0.00    +0.000 C 
ATOM      2  O   UNL     1       7.098   7.994  17.137  0.00  0.00    +0.000 OA
ATOM      3  N   UNL     1       8.736   8.199  18.759  0.00  0.00    +0.000 N 
ATOM      4  H   UNL     1       9.457   7.669  19.232  0.00  0.00    +0.000 HD
ENDROOT
BRANCH   1   8
ATOM      5  N   UNL     1       4.993   5.118  18.085  0.00  0.00    +0.000 NA
ATOM      6  C   UNL     1       5.756   5.430  16.862  0.00  0.00    +0.000 C 
ATOM      7  C   UNL     1       7.266   5.206  17.016  0.00  0.00    +0.000 C 
ATOM      8  C   UNL     1       7.844   5.964  18.219  0.00  0.00    +0.000 C 
ATOM      9  C   UNL     1       7.062   5.526  19.458  0.00  0.00    +0.000 C 
ATOM     10  C   UNL     1       5.559   5.754  19.287  0.00  0.00    +0.000 C 
BRANCH   5  11
ATOM     11  C   UNL     1       3.586   5.576  17.929  0.00  0.00    +0.000 C 
BRANCH  11  16
ATOM     12  C   UNL     1       1.292   2.890  21.248  0.00  0.00    +0.000 C 
ATOM     13  C   UNL     1       1.537   3.349  19.864  0.00  0.00    +0.000 A 
ATOM     14  C   UNL     1       0.982   3.020  18.648  0.00  0.00    +0.000 A 
ATOM     15  C   UNL     1       1.646   3.808  17.678  0.00  0.00    +0.000 A 
ATOM     16  C   UNL     1       2.569   4.572  18.360  0.00  0.00    +0.000 A 
ATOM     17  O   UNL     1       2.507   4.293  19.697  0.00  0.00    +0.000 OA
ENDBRANCH  11  16
ENDBRANCH   5  11
ENDBRANCH   1   8
BRANCH   3  18
ATOM     18  C   UNL     1       8.860   9.613  18.802  0.00  0.00    +0.000 A 
ATOM     19  C   UNL     1       9.325  10.310  19.917  0.00  0.00    +0.000 A 
ATOM     20  C   UNL     1       9.439  11.708  19.898  0.00  0.00    +0.000 A 
ATOM     21  C   UNL     1       9.091  12.454  18.765  0.00  0.00    +0.000 A 
ATOM     22  C   UNL     1       8.627  11.755  17.645  0.00  0.00    +0.000 A 
ATOM     23  C   UNL     1       8.526  10.350  17.659  0.00  0.00    +0.000 A 
BRANCH  21  24
ATOM     24  C   UNL     1       9.248  13.916  18.773  0.00  0.00    +0.000 A 
ATOM     25  C   UNL     1       8.883  14.839  19.741  0.00  0.00    +0.000 A 
ATOM     26  C   UNL     1       9.209  16.144  19.283  0.00  0.00    +0.000 A 
ATOM     27  C   UNL     1       9.084  17.434  19.834  0.00  0.00    +0.000 A 
ATOM     28  C   UNL     1       9.454  18.544  19.069  0.00  0.00    +0.000 A 
ATOM     29  C   UNL     1       9.941  18.382  17.774  0.00  0.00    +0.000 A 
ATOM     30  C   UNL     1      10.106  17.105  17.219  0.00  0.00    +0.000 A 
ATOM     31  C   UNL     1       9.739  16.003  18.003  0.00  0.00    +0.000 A 
ATOM     32  N   UNL     1       9.798  14.649  17.740  0.00  0.00    +0.000 N 
ATOM     33  H   UNL     1      10.162  14.256  16.885  0.00  0.00    +0.000 HD
ENDBRANCH  21  24
ENDBRANCH   3  18
TORSDOF 5
ENDMDL
MODEL 4
REMARK VINA RESULT:      -9.0      2.455      4.476
REMARK  Name = 
REMARK  6 active torsions:
REMARK  status: ('A' for Active; 'I' for Inactive)
REMARK    1  A    between atoms: C_1  and  C_2
REMARK    2  A    between atoms: C_5  and  C_6
REMARK    3  A    between atoms: C_6  and  N_7
REMARK    4  A    between atoms: C_10  and  C_11
REMARK    5  A    between atoms: N_13  and  C_14
REMARK    6  A    between atoms: C_17  and  C_18
REMARK                            x       y       z     vdW  Elec       q    Type
REMARK                         _______ _______ _______ _____ _____    ______ ____
ROOT
ATOM      1  C   UNL     1       4.807   3.980  17.586  0.00  0.00    +0.000 C 
ATOM      2  O   UNL     1       4.194   4.787  16.884  0.00  0.00    +0.000 OA
ATOM      3  N   UNL     1       6.028   4.241  18.186  0.00  0.00    +0.000 N 
ATOM      4  H   UNL     1       6.560   3.446  18.516  0.00  0.00    +0.000 HD
ENDROOT
BRANCH   1   8
ATOM      5  N   UNL     1       1.849   2.834  19.486  0.00  0.00    +0.000 NA
ATOM      6  C   UNL     1       1.820   3.158  18.047  0.00  0.00    +0.000 C 
ATOM      7  C   UNL     1       2.860   2.380  17.230  0.00  0.00    +0.000 C 
ATOM      8  C   UNL     1       4.279   2.547  17.791  0.00  0.00    +0.000 C 
ATOM      9  C   UNL     1       4.249   2.112  19.256  0.00  0.00    +0.000 C 
ATOM     10  C   UNL     1       3.205   2.895  20.056  0.00  0.00    +0.000 C 
BRANCH   5  11
ATOM     11  C   UNL     1       0.982   3.785  20.232  0.00  0.00    +0.000 C 
BRANCH  11  16
ATOM     12  C   UNL     1       2.875   7.625  17.960  0.00  0.00    +0.000 C 
ATOM     13  C   UNL     1       2.309   6.940  19.141  0.00  0.00    +0.000 A 
ATOM     14  C   UNL     1       2.068   7.337  20.437  0.00  0.00    +0.000 A 
ATOM     15  C   UNL     1       1.509   6.218  21.101  0.00  0.00    +0.000 A 
ATOM     16  C   UNL     1       1.442   5.204  20.170  0.00  0.00    +0.000 A 
ATOM     17  O   UNL     1       1.933   5.640  18.970  0.00  0.00    +0.000 OA
ENDBRANCH  11  16
ENDBRANCH   5  11
ENDBRANCH   1   8
BRANCH   3  18
ATOM     18  C   UNL     1       6.683   5.500  18.222  0.00  0.00    +0.000 A 
ATOM     19  C   UNL     1       6.380   6.549  17.354  0.00  0.00    +0.000 A 
ATOM     20  C   UNL     1       7.052   7.778  17.444  0.00  0.00    +0.000 A 
ATOM     21  C   UNL     1       8.048   7.996  18.403  0.00  0.00    +0.000 A 
ATOM     22  C   UNL     1       8.351   6.946  19.277  0.00  0.00    +0.000 A 
ATOM     23  C   UNL     1       7.666   5.717  19.196  0.00  0.00    +0.000 A 
BRANCH  21  24
ATOM     24  C   UNL     1       8.713   9.305  18.484  0.00  0.00    +0.000 A 
ATOM     25  C   UNL     1       8.790  10.318  17.540  0.00  0.00    +0.000 A 
ATOM     26  C   UNL     1       9.570  11.382  18.065  0.00  0.00    +0.000 A 
ATOM     27  C   UNL     1       9.964  12.642  17.573  0.00  0.00    +0.000 A 
ATOM     28  C   UNL     1      10.812  13.444  18.344  0.00  0.00    +0.000 A 
ATOM     29  C   UNL     1      11.266  13.006  19.586  0.00  0.00    +0.000 A 
ATOM     30  C   UNL     1      10.859  11.770  20.108  0.00  0.00    +0.000 A 
ATOM     31  C   UNL     1      10.001  10.984  19.328  0.00  0.00    +0.000 A 
ATOM     32  N   UNL     1       9.430   9.752  19.576  0.00  0.00    +0.000 N 
ATOM     33  H   UNL     1       9.557   9.234  20.433  0.00  0.00    +0.000 HD
ENDBRANCH  21  24
ENDBRANCH   3  18
TORSDOF 5
ENDMDL
MODEL 5
REMARK VINA RESULT:      -8.9      6.852      8.791
REMARK  Name = 
REMARK  6 active torsions:
REMARK  status: ('A' for Active; 'I' for Inactive)
REMARK    1  A    between atoms: C_1  and  C_2
REMARK    2  A    between atoms: C_5  and  C_6
REMARK    3  A    between atoms: C_6  and  N_7
REMARK    4  A    between atoms: C_10  and  C_11
REMARK    5  A    between atoms: N_13  and  C_14
REMARK    6  A    between atoms: C_17  and  C_18
REMARK                            x       y       z     vdW  Elec       q    Type
REMARK                         _______ _______ _______ _____ _____    ______ ____
ROOT
ATOM      1  C   UNL     1       2.740   5.016  19.195  0.00  0.00    +0.000 C 
ATOM      2  O   UNL     1       1.633   4.764  18.714  0.00  0.00    +0.000 OA
ATOM      3  N   UNL     1       3.090   6.239  19.744  0.00  0.00    +0.000 N 
ATOM      4  H   UNL     1       4.077   6.424  19.869  0.00  0.00    +0.000 HD
ENDROOT
BRANCH   1   8
ATOM      5  N   UNL     1       5.412   4.596  16.674  0.00  0.00    +0.000 NA
ATOM      6  C   UNL     1       5.558   5.419  17.889  0.00  0.00    +0.000 C 
ATOM      7  C   UNL     1       5.258   4.650  19.182  0.00  0.00    +0.000 C 
ATOM      8  C   UNL     1       3.878   3.979  19.149  0.00  0.00    +0.000 C 
ATOM      9  C   UNL     1       3.833   3.079  17.914  0.00  0.00    +0.000 C 
ATOM     10  C   UNL     1       4.137   3.860  16.634  0.00  0.00    +0.000 C 
BRANCH   5  11
ATOM     11  C   UNL     1       5.493   5.463  15.468  0.00  0.00    +0.000 C 
BRANCH  11  16
ATOM     12  C   UNL     1       4.559   2.921  11.448  0.00  0.00    +0.000 C 
ATOM     13  C   UNL     1       5.469   3.580  12.409  0.00  0.00    +0.000 A 
ATOM     14  C   UNL     1       6.838   3.709  12.476  0.00  0.00    +0.000 A 
ATOM     15  C   UNL     1       7.112   4.456  13.647  0.00  0.00    +0.000 A 
ATOM     16  C   UNL     1       5.893   4.739  14.225  0.00  0.00    +0.000 A 
ATOM     17  O   UNL     1       4.886   4.203  13.473  0.00  0.00    +0.000 OA
ENDBRANCH  11  16
ENDBRANCH   5  11
ENDBRANCH   1   8
BRANCH   3  18
ATOM     18  C   UNL     1       2.208   7.326  19.981  0.00  0.00    +0.000 A 
ATOM     19  C   UNL     1       1.995   8.356  19.065  0.00  0.00    +0.000 A 
ATOM     20  C   UNL     1       1.100   9.399  19.347  0.00  0.00    +0.000 A 
ATOM     21  C   UNL     1       0.391   9.446  20.554  0.00  0.00    +0.000 A 
ATOM     22  C   UNL     1       0.600   8.411  21.472  0.00  0.00    +0.000 A 
ATOM     23  C   UNL     1       1.489   7.356  21.182  0.00  0.00    +0.000 A 
BRANCH  21  24
ATOM     24  C   UNL     1      -0.559  10.541  20.804  0.00  0.00    +0.000 A 
ATOM     25  C   UNL     1      -1.252  11.333  19.903  0.00  0.00    +0.000 A 
ATOM     26  C   UNL     1      -2.027  12.283  20.621  0.00  0.00    +0.000 A 
ATOM     27  C   UNL     1      -2.917  13.307  20.242  0.00  0.00    +0.000 A 
ATOM     28  C   UNL     1      -3.479  14.125  21.227  0.00  0.00    +0.000 A 
ATOM     29  C   UNL     1      -3.165  13.934  22.570  0.00  0.00    +0.000 A 
ATOM     30  C   UNL     1      -2.308  12.899  22.971  0.00  0.00    +0.000 A 
ATOM     31  C   UNL     1      -1.762  12.083  21.973  0.00  0.00    +0.000 A 
ATOM     32  N   UNL     1      -0.915  10.996  22.059  0.00  0.00    +0.000 N 
ATOM     33  H   UNL     1      -0.573  10.614  22.928  0.00  0.00    +0.000 HD
ENDBRANCH  21  24
ENDBRANCH   3  18
TORSDOF 5
ENDMDL
MODEL 6
REMARK VINA RESULT:      -8.9      2.514      4.599
REMARK  Name = 
REMARK  6 active torsions:
REMARK  status: ('A' for Active; 'I' for Inactive)
REMARK    1  A    between atoms: C_1  and  C_2
REMARK    2  A    between atoms: C_5  and  C_6
REMARK    3  A    between atoms: C_6  and  N_7
REMARK    4  A    between atoms: C_10  and  C_11
REMARK    5  A    between atoms: N_13  and  C_14
REMARK    6  A    between atoms: C_17  and  C_18
REMARK                            x       y       z     vdW  Elec       q    Type
REMARK                         _______ _______ _______ _____ _____    ______ ____
ROOT
ATOM      1  C   UNL     1       4.787   3.871  17.527  0.00  0.00    +0.000 C 
ATOM      2  O   UNL     1       4.346   4.624  16.656  0.00  0.00    +0.000 OA
ATOM      3  N   UNL     1       5.880   4.163  18.327  0.00  0.00    +0.000 N 
ATOM      4  H   UNL     1       6.313   3.391  18.817  0.00  0.00    +0.000 HD
ENDROOT
BRANCH   1   8
ATOM      5  N   UNL     1       1.903   2.877  19.617  0.00  0.00    +0.000 NA
ATOM      6  C   UNL     1       1.793   3.233  18.190  0.00  0.00    +0.000 C 
ATOM      7  C   UNL     1       2.719   2.409  17.285  0.00  0.00    +0.000 C 
ATOM      8  C   UNL     1       4.182   2.471  17.745  0.00  0.00    +0.000 C 
ATOM      9  C   UNL     1       4.228   2.007  19.201  0.00  0.00    +0.000 C 
ATOM     10  C   UNL     1       3.298   2.838  20.088  0.00  0.00    +0.000 C 
BRANCH   5  11
ATOM     11  C   UNL     1       1.157   3.865  20.440  0.00  0.00    +0.000 C 
BRANCH  11  16
ATOM     12  C   UNL     1       1.177   8.587  21.529  0.00  0.00    +0.000 C 
ATOM     13  C   UNL     1       1.590   7.419  20.723  0.00  0.00    +0.000 A 
ATOM     14  C   UNL     1       2.404   7.272  19.622  0.00  0.00    +0.000 A 
ATOM     15  C   UNL     1       2.404   5.892  19.306  0.00  0.00    +0.000 A 
ATOM     16  C   UNL     1       1.589   5.278  20.234  0.00  0.00    +0.000 A 
ATOM     17  O   UNL     1       1.088   6.209  21.100  0.00  0.00    +0.000 OA
ENDBRANCH  11  16
ENDBRANCH   5  11
ENDBRANCH   1   8
BRANCH   3  18
ATOM     18  C   UNL     1       6.559   5.409  18.383  0.00  0.00    +0.000 A 
ATOM     19  C   UNL     1       7.652   5.651  19.214  0.00  0.00    +0.000 A 
ATOM     20  C   UNL     1       8.294   6.899  19.218  0.00  0.00    +0.000 A 
ATOM     21  C   UNL     1       7.861   7.944  18.393  0.00  0.00    +0.000 A 
ATOM     22  C   UNL     1       6.765   7.702  17.557  0.00  0.00    +0.000 A 
ATOM     23  C   UNL     1       6.131   6.444  17.542  0.00  0.00    +0.000 A 
BRANCH  21  24
ATOM     24  C   UNL     1       8.573   9.231  18.406  0.00  0.00    +0.000 A 
ATOM     25  C   UNL     1       8.528  10.275  17.495  0.00  0.00    +0.000 A 
ATOM     26  C   UNL     1       9.419  11.298  17.918  0.00  0.00    +0.000 A 
ATOM     27  C   UNL     1       9.767  12.563  17.408  0.00  0.00    +0.000 A 
ATOM     28  C   UNL     1      10.757  13.313  18.054  0.00  0.00    +0.000 A 
ATOM     29  C   UNL     1      11.395  12.816  19.188  0.00  0.00    +0.000 A 
ATOM     30  C   UNL     1      11.038  11.573  19.731  0.00  0.00    +0.000 A 
ATOM     31  C   UNL     1      10.038  10.841  19.078  0.00  0.00    +0.000 A 
ATOM     32  N   UNL     1       9.475   9.617  19.378  0.00  0.00    +0.000 N 
ATOM     33  H   UNL     1       9.724   9.063  20.184  0.00  0.00    +0.000 HD
ENDBRANCH  21  24
ENDBRANCH   3  18
TORSDOF 5
ENDMDL
MODEL 7
REMARK VINA RESULT:      -8.8      1.918      2.344
REMARK  Name = 
REMARK  6 active torsions:
REMARK  status: ('A' for Active; 'I' for Inactive)
REMARK    1  A    between atoms: C_1  and  C_2
REMARK    2  A    between atoms: C_5  and  C_6
REMARK    3  A    between atoms: C_6  and  N_7
REMARK    4  A    between atoms: C_10  and  C_11
REMARK    5  A    between atoms: N_13  and  C_14
REMARK    6  A    between atoms: C_17  and  C_18
REMARK                            x       y       z     vdW  Elec       q    Type
REMARK                         _______ _______ _______ _____ _____    ______ ____
ROOT
ATOM      1  C   UNL     1       7.848   7.278  17.918  0.00  0.00    +0.000 C 
ATOM      2  O   UNL     1       8.404   7.015  18.987  0.00  0.00    +0.000 OA
ATOM      3  N   UNL     1       7.702   8.560  17.413  0.00  0.00    +0.000 N 
ATOM      4  H   UNL     1       7.018   8.691  16.678  0.00  0.00    +0.000 HD
ENDROOT
BRANCH   1   8
ATOM      5  N   UNL     1       4.625   5.548  18.457  0.00  0.00    +0.000 NA
ATOM      6  C   UNL     1       4.773   6.761  17.631  0.00  0.00    +0.000 C 
ATOM      7  C   UNL     1       5.826   6.616  16.524  0.00  0.00    +0.000 C 
ATOM      8  C   UNL     1       7.187   6.171  17.075  0.00  0.00    +0.000 C 
ATOM      9  C   UNL     1       6.969   4.868  17.844  0.00  0.00    +0.000 C 
ATOM     10  C   UNL     1       5.915   5.029  18.942  0.00  0.00    +0.000 C 
BRANCH   5  11
ATOM     11  C   UNL     1       3.766   5.845  19.635  0.00  0.00    +0.000 C 
BRANCH  11  16
ATOM     12  C   UNL     1       1.272   1.830  18.566  0.00  0.00    +0.000 C 
ATOM     13  C   UNL     1       1.490   3.085  19.315  0.00  0.00    +0.000 A 
ATOM     14  C   UNL     1       0.775   3.735  20.296  0.00  0.00    +0.000 A 
ATOM     15  C   UNL     1       1.506   4.906  20.614  0.00  0.00    +0.000 A 
ATOM     16  C   UNL     1       2.624   4.901  19.807  0.00  0.00    +0.000 A 
ATOM     17  O   UNL     1       2.617   3.790  19.010  0.00  0.00    +0.000 OA
ENDBRANCH  11  16
ENDBRANCH   5  11
ENDBRANCH   1   8
BRANCH   3  18
ATOM     18  C   UNL     1       8.288   9.736  17.949  0.00  0.00    +0.000 A 
ATOM     19  C   UNL     1       8.114  11.003  17.392  0.00  0.00    +0.000 A 
ATOM     20  C   UNL     1       8.707  12.134  17.974  0.00  0.00    +0.000 A 
ATOM     21  C   UNL     1       9.494  12.034  19.127  0.00  0.00    +0.000 A 
ATOM     22  C   UNL     1       9.667  10.764  19.688  0.00  0.00    +0.000 A 
ATOM     23  C   UNL     1       9.060   9.630  19.113  0.00  0.00    +0.000 A 
BRANCH  21  24
ATOM     24  C   UNL     1      10.079  13.245  19.723  0.00  0.00    +0.000 A 
ATOM     25  C   UNL     1      11.136  14.025  19.281  0.00  0.00    +0.000 A 
ATOM     26  C   UNL     1      11.358  15.075  20.211  0.00  0.00    +0.000 A 
ATOM     27  C   UNL     1      12.264  16.151  20.274  0.00  0.00    +0.000 A 
ATOM     28  C   UNL     1      12.255  16.990  21.394  0.00  0.00    +0.000 A 
ATOM     29  C   UNL     1      11.362  16.766  22.440  0.00  0.00    +0.000 A 
ATOM     30  C   UNL     1      10.429  15.721  22.381  0.00  0.00    +0.000 A 
ATOM     31  C   UNL     1      10.445  14.898  21.247  0.00  0.00    +0.000 A 
ATOM     32  N   UNL     1       9.654  13.819  20.905  0.00  0.00    +0.000 N 
ATOM     33  H   UNL     1       8.891  13.477  21.469  0.00  0.00    +0.000 HD
ENDBRANCH  21  24
ENDBRANCH   3  18
TORSDOF 5
ENDMDL
MODEL 8
REMARK VINA RESULT:      -8.8      6.849      8.864
REMARK  Name = 
REMARK  6 active torsions:
REMARK  status: ('A' for Active; 'I' for Inactive)
REMARK    1  A    between atoms: C_1  and  C_2
REMARK    2  A    between atoms: C_5  and  C_6
REMARK    3  A    between atoms: C_6  and  N_7
REMARK    4  A    between atoms: C_10  and  C_11
REMARK    5  A    between atoms: N_13  and  C_14
REMARK    6  A    between atoms: C_17  and  C_18
REMARK                            x       y       z     vdW  Elec       q    Type
REMARK                         _______ _______ _______ _____ _____    ______ ____
ROOT
ATOM      1  C   UNL     1       2.816   5.006  19.267  0.00  0.00    +0.000 C 
ATOM      2  O   UNL     1       1.682   4.704  18.888  0.00  0.00    +0.000 OA
ATOM      3  N   UNL     1       3.173   6.264  19.726  0.00  0.00    +0.000 N 
ATOM      4  H   UNL     1       4.161   6.478  19.764  0.00  0.00    +0.000 HD
ENDROOT
BRANCH   1   8
ATOM      5  N   UNL     1       5.404   4.633  16.653  0.00  0.00    +0.000 NA
ATOM      6  C   UNL     1       5.575   5.466  17.858  0.00  0.00    +0.000 C 
ATOM      7  C   UNL     1       5.339   4.698  19.165  0.00  0.00    +0.000 C 
ATOM      8  C   UNL     1       3.975   3.995  19.185  0.00  0.00    +0.000 C 
ATOM      9  C   UNL     1       3.906   3.087  17.958  0.00  0.00    +0.000 C 
ATOM     10  C   UNL     1       4.145   3.868  16.664  0.00  0.00    +0.000 C 
BRANCH   5  11
ATOM     11  C   UNL     1       5.420   5.494  15.440  0.00  0.00    +0.000 C 
BRANCH  11  16
ATOM     12  C   UNL     1       5.153   2.533  11.613  0.00  0.00    +0.000 C 
ATOM     13  C   UNL     1       5.863   3.479  12.501  0.00  0.00    +0.000 A 
ATOM     14  C   UNL     1       7.144   3.982  12.512  0.00  0.00    +0.000 A 
ATOM     15  C   UNL     1       7.222   4.853  13.626  0.00  0.00    +0.000 A 
ATOM     16  C   UNL     1       5.982   4.828  14.229  0.00  0.00    +0.000 A 
ATOM     17  O   UNL     1       5.149   3.987  13.546  0.00  0.00    +0.000 OA
ENDBRANCH  11  16
ENDBRANCH   5  11
ENDBRANCH   1   8
BRANCH   3  18
ATOM     18  C   UNL     1       2.281   7.341  19.976  0.00  0.00    +0.000 A 
ATOM     19  C   UNL     1       1.990   8.330  19.037  0.00  0.00    +0.000 A 
ATOM     20  C   UNL     1       1.089   9.364  19.334  0.00  0.00    +0.000 A 
ATOM     21  C   UNL     1       0.454   9.443  20.579  0.00  0.00    +0.000 A 
ATOM     22  C   UNL     1       0.744   8.449  21.521  0.00  0.00    +0.000 A 
ATOM     23  C   UNL     1       1.637   7.403  21.217  0.00  0.00    +0.000 A 
BRANCH  21  24
ATOM     24  C   UNL     1      -0.503  10.527  20.847  0.00  0.00    +0.000 A 
ATOM     25  C   UNL     1      -0.830  11.142  22.046  0.00  0.00    +0.000 A 
ATOM     26  C   UNL     1      -1.836  12.116  21.808  0.00  0.00    +0.000 A 
ATOM     27  C   UNL     1      -2.524  13.032  22.627  0.00  0.00    +0.000 A 
ATOM     28  C   UNL     1      -3.531  13.827  22.070  0.00  0.00    +0.000 A 
ATOM     29  C   UNL     1      -3.853  13.719  20.719  0.00  0.00    +0.000 A 
ATOM     30  C   UNL     1      -3.157  12.837  19.879  0.00  0.00    +0.000 A 
ATOM     31  C   UNL     1      -2.146  12.056  20.452  0.00  0.00    +0.000 A 
ATOM     32  N   UNL     1      -1.294  11.127  19.887  0.00  0.00    +0.000 N 
ATOM     33  H   UNL     1      -1.284  10.894  18.905  0.00  0.00    +0.000 HD
ENDBRANCH  21  24
ENDBRANCH   3  18
TORSDOF 5
ENDMDL
MODEL 9
REMARK VINA RESULT:      -8.8      1.335      1.522
REMARK  Name = 
REMARK  6 active torsions:
REMARK  status: ('A' for Active; 'I' for Inactive)
REMARK    1  A    between atoms: C_1  and  C_2
REMARK    2  A    between atoms: C_5  and  C_6
REMARK    3  A    between atoms: C_6  and  N_7
REMARK    4  A    between atoms: C_10  and  C_11
REMARK    5  A    between atoms: N_13  and  C_14
REMARK    6  A    between atoms: C_17  and  C_18
REMARK                            x       y       z     vdW  Elec       q    Type
REMARK                         _______ _______ _______ _____ _____    ______ ____
ROOT
ATOM      1  C   UNL     1       7.883   7.082  17.839  0.00  0.00    +0.000 C 
ATOM      2  O   UNL     1       7.447   7.441  16.743  0.00  0.00    +0.000 OA
ATOM      3  N   UNL     1       8.542   7.919  18.725  0.00  0.00    +0.000 N 
ATOM      4  H   UNL     1       9.078   7.480  19.463  0.00  0.00    +0.000 HD
ENDROOT
BRANCH   1   8
ATOM      5  N   UNL     1       4.908   4.901  18.084  0.00  0.00    +0.000 NA
ATOM      6  C   UNL     1       5.759   4.989  16.883  0.00  0.00    +0.000 C 
ATOM      7  C   UNL     1       7.242   4.713  17.169  0.00  0.00    +0.000 C 
ATOM      8  C   UNL     1       7.792   5.611  18.286  0.00  0.00    +0.000 C 
ATOM      9  C   UNL     1       6.914   5.402  19.520  0.00  0.00    +0.000 C 
ATOM     10  C   UNL     1       5.439   5.678  19.217  0.00  0.00    +0.000 C 
BRANCH   5  11
ATOM     11  C   UNL     1       3.543   5.402  17.770  0.00  0.00    +0.000 C 
BRANCH  11  16
ATOM     12  C   UNL     1       1.225   8.050  21.101  0.00  0.00    +0.000 C 
ATOM     13  C   UNL     1       1.624   6.770  20.480  0.00  0.00    +0.000 A 
ATOM     14  C   UNL     1       1.364   5.452  20.783  0.00  0.00    +0.000 A 
ATOM     15  C   UNL     1       2.035   4.677  19.807  0.00  0.00    +0.000 A 
ATOM     16  C   UNL     1       2.666   5.568  18.966  0.00  0.00    +0.000 A 
ATOM     17  O   UNL     1       2.419   6.849  19.375  0.00  0.00    +0.000 OA
ENDBRANCH  11  16
ENDBRANCH   5  11
ENDBRANCH   1   8
BRANCH   3  18
ATOM     18  C   UNL     1       8.682   9.326  18.591  0.00  0.00    +0.000 A 
ATOM     19  C   UNL     1       7.997  10.078  17.638  0.00  0.00    +0.000 A 
ATOM     20  C   UNL     1       8.164  11.470  17.561  0.00  0.00    +0.000 A 
ATOM     21  C   UNL     1       9.023  12.151  18.432  0.00  0.00    +0.000 A 
ATOM     22  C   UNL     1       9.708  11.397  19.391  0.00  0.00    +0.000 A 
ATOM     23  C   UNL     1       9.529  10.002  19.478  0.00  0.00    +0.000 A 
BRANCH  21  24
ATOM     24  C   UNL     1       9.154  13.613  18.338  0.00  0.00    +0.000 A 
ATOM     25  C   UNL     1       8.342  14.608  18.858  0.00  0.00    +0.000 A 
ATOM     26  C   UNL     1       8.858  15.875  18.475  0.00  0.00    +0.000 A 
ATOM     27  C   UNL     1       8.466  17.206  18.719  0.00  0.00    +0.000 A 
ATOM     28  C   UNL     1       9.180  18.250  18.122  0.00  0.00    +0.000 A 
ATOM     29  C   UNL     1      10.266  17.983  17.293  0.00  0.00    +0.000 A 
ATOM     30  C   UNL     1      10.693  16.666  17.064  0.00  0.00    +0.000 A 
ATOM     31  C   UNL     1       9.974  15.634  17.678  0.00  0.00    +0.000 A 
ATOM     32  N   UNL     1      10.160  14.266  17.653  0.00  0.00    +0.000 N 
ATOM     33  H   UNL     1      10.913  13.808  17.162  0.00  0.00    +0.000 HD
ENDBRANCH  21  24
ENDBRANCH   3  18
TORSDOF 5
ENDMDL
