MODEL 1
REMARK VINA RESULT:      -8.0      0.000      0.000
REMARK  Name = 
REMARK  4 active torsions:
REMARK  status: ('A' for Active; 'I' for Inactive)
REMARK    1  A    between atoms: C_1  and  C_2
REMARK    2  A    between atoms: C_4  and  N_5
REMARK    3  A    between atoms: N_6  and  C_7
REMARK    4  A    between atoms: C_9  and  C_10
REMARK                            x       y       z     vdW  Elec       q    Type
REMARK                         _______ _______ _______ _____ _____    ______ ____
ROOT
ATOM      1  C   UNL     1       5.000   5.096  15.773  0.00  0.00    +0.000 A 
ATOM      2  N   UNL     1       5.414   6.400  15.856  0.00  0.00    +0.000 NA
ATOM      3  C   UNL     1       5.929   6.883  16.985  0.00  0.00    +0.000 A 
ATOM      4  C   UNL     1       7.410   7.049  16.974  0.00  0.00    +0.000 C 
ATOM      5  N   UNL     1       5.537   6.510  18.168  0.00  0.00    +0.000 NA
ATOM      6  C   UNL     1       5.045   5.287  18.152  0.00  0.00    +0.000 A 
ATOM      7  S   UNL     1       5.197   4.424  19.593  0.00  0.00    +0.000 S 
ATOM      8  C   UNL     1       3.743   3.687  19.197  0.00  0.00    +0.000 A 
ATOM      9  C   UNL     1       3.530   3.672  17.805  0.00  0.00    +0.000 A 
ATOM     10  C   UNL     1       4.590   4.507  17.072  0.00  0.00    +0.000 A 
ATOM     11  C   UNL     1       2.216   3.114  17.341  0.00  0.00    +0.000 C 
ATOM     12  C   UNL     1       1.141   2.850  18.458  0.00  0.00    +0.000 C 
ATOM     13  C   UNL     1       1.486   2.872  19.954  0.00  0.00    +0.000 C 
ATOM     14  C   UNL     1       2.851   3.376  20.349  0.00  0.00    +0.000 C 
ENDROOT
BRANCH   1  19
ATOM     15  C   UNL     1       5.616   2.513  11.427  0.00  0.00    +0.000 C 
ATOM     16  C   UNL     1       5.820   3.409  12.626  0.00  0.00    +0.000 A 
ATOM     17  C   UNL     1       7.037   4.030  12.836  0.00  0.00    +0.000 A 
ATOM     18  C   UNL     1       6.865   4.752  13.977  0.00  0.00    +0.000 A 
ATOM     19  N   UNL     1       5.506   4.540  14.462  0.00  0.00    +0.000 N 
ATOM     20  N   UNL     1       4.888   3.648  13.589  0.00  0.00    +0.000 NA
BRANCH  18  21
ATOM     21  N   UNL     1       7.840   5.513  14.536  0.00  0.00    +0.000 N 
ATOM     22  H   UNL     1       8.752   5.132  14.782  0.00  0.00    +0.000 HD
ATOM     23  H   UNL     1       7.795   6.528  14.453  0.00  0.00    +0.000 HD
ENDBRANCH  18  21
ENDBRANCH   1  19
TORSDOF 2
ENDMDL
MODEL 2
REMARK VINA RESULT:      -7.7      1.265      1.424
REMARK  Name = 
REMARK  4 active torsions:
REMARK  status: ('A' for Active; 'I' for Inactive)
REMARK    1  A    between atoms: C_1  and  C_2
REMARK    2  A    between atoms: C_4  and  N_5
REMARK    3  A    between atoms: N_6  and  C_7
REMARK    4  A    between atoms: C_9  and  C_10
REMARK                            x       y       z     vdW  Elec       q    Type
REMARK                         _______ _______ _______ _____ _____    ______ ____
ROOT
ATOM      1  C   UNL     1       5.213   4.786  16.934  0.00  0.00    +0.000 A 
ATOM      2  N   UNL     1       6.028   5.727  17.507  0.00  0.00    +0.000 NA
ATOM      3  C   UNL     1       6.517   5.552  18.734  0.00  0.00    +0.000 A 
ATOM      4  C   UNL     1       7.954   5.159  18.781  0.00  0.00    +0.000 C 
ATOM      5  N   UNL     1       5.866   4.950  19.685  0.00  0.00    +0.000 NA
ATOM      6  C   UNL     1       4.995   4.084  19.205  0.00  0.00    +0.000 A 
ATOM      7  S   UNL     1       4.649   2.772  20.205  0.00  0.00    +0.000 S 
ATOM      8  C   UNL     1       3.100   2.810  19.563  0.00  0.00    +0.000 A 
ATOM      9  C   UNL     1       3.087   3.371  18.273  0.00  0.00    +0.000 A 
ATOM     10  C   UNL     1       4.455   3.965  17.910  0.00  0.00    +0.000 A 
ATOM     11  C   UNL     1       1.737   3.536  17.636  0.00  0.00    +0.000 C 
ATOM     12  C   UNL     1       0.495   3.301  18.571  0.00  0.00    +0.000 C 
ATOM     13  C   UNL     1       0.620   2.660  19.960  0.00  0.00    +0.000 C 
ATOM     14  C   UNL     1       2.009   2.455  20.513  0.00  0.00    +0.000 C 
ENDROOT
BRANCH   1  19
ATOM     15  C   UNL     1       5.898   3.164  12.155  0.00  0.00    +0.000 C 
ATOM     16  C   UNL     1       6.025   3.883  13.477  0.00  0.00    +0.000 A 
ATOM     17  C   UNL     1       7.074   4.755  13.702  0.00  0.00    +0.000 A 
ATOM     18  C   UNL     1       6.873   5.220  14.965  0.00  0.00    +0.000 A 
ATOM     19  N   UNL     1       5.674   4.592  15.508  0.00  0.00    +0.000 N 
ATOM     20  N   UNL     1       5.187   3.719  14.538  0.00  0.00    +0.000 NA
BRANCH  18  21
ATOM     21  N   UNL     1       7.698   6.109  15.575  0.00  0.00    +0.000 N 
ATOM     22  H   UNL     1       7.943   6.032  16.562  0.00  0.00    +0.000 HD
ATOM     23  H   UNL     1       8.317   6.690  15.012  0.00  0.00    +0.000 HD
ENDBRANCH  18  21
ENDBRANCH   1  19
TORSDOF 2
ENDMDL
MODEL 3
REMARK VINA RESULT:      -7.6      3.584      7.004
REMARK  Name = 
REMARK  4 active torsions:
REMARK  status: ('A' for Active; 'I' for Inactive)
REMARK    1  A    between atoms: C_1  and  C_2
REMARK    2  A    between atoms: C_4  and  N_5
REMARK    3  A    between atoms: N_6  and  C_7
REMARK    4  A    between atoms: C_9  and  C_10
REMARK                            x       y       z     vdW  Elec       q    Type
REMARK                         _______ _______ _______ _____ _____    ______ ____
ROOT
ATOM      1  C   UNL     1       2.436   6.091  19.338  0.00  0.00    +0.000 A 
ATOM      2  N   UNL     1       1.659   5.048  19.772  0.00  0.00    +0.000 NA
ATOM      3  C   UNL     1       2.215   3.917  20.204  0.00  0.00    +0.000 A 
ATOM      4  C   UNL     1       2.206   3.745  21.685  0.00  0.00    +0.000 C 
ATOM      5  N   UNL     1       3.313   3.424  19.711  0.00  0.00    +0.000 NA
ATOM      6  C   UNL     1       4.078   4.365  19.195  0.00  0.00    +0.000 A 
ATOM      7  S   UNL     1       5.733   4.045  19.212  0.00  0.00    +0.000 S 
ATOM      8  C   UNL     1       5.822   4.912  17.779  0.00  0.00    +0.000 A 
ATOM      9  C   UNL     1       4.782   5.857  17.679  0.00  0.00    +0.000 A 
ATOM     10  C   UNL     1       3.761   5.682  18.812  0.00  0.00    +0.000 A 
ATOM     11  C   UNL     1       4.712   6.631  16.395  0.00  0.00    +0.000 C 
ATOM     12  C   UNL     1       5.637   6.125  15.228  0.00  0.00    +0.000 C 
ATOM     13  C   UNL     1       6.759   5.102  15.452  0.00  0.00    +0.000 C 
ATOM     14  C   UNL     1       6.818   4.411  16.792  0.00  0.00    +0.000 C 
ENDROOT
BRANCH   1  19
ATOM     15  C   UNL     1       0.193   9.558  22.319  0.00  0.00    +0.000 C 
ATOM     16  C   UNL     1       0.868   8.850  21.169  0.00  0.00    +0.000 A 
ATOM     17  C   UNL     1       1.056   9.500  19.962  0.00  0.00    +0.000 A 
ATOM     18  C   UNL     1       1.689   8.589  19.174  0.00  0.00    +0.000 A 
ATOM     19  N   UNL     1       1.870   7.359  19.936  0.00  0.00    +0.000 N 
ATOM     20  N   UNL     1       1.298   7.559  21.190  0.00  0.00    +0.000 NA
BRANCH  18  21
ATOM     21  N   UNL     1       2.055   8.834  17.890  0.00  0.00    +0.000 N 
ATOM     22  H   UNL     1       1.497   9.420  17.270  0.00  0.00    +0.000 HD
ATOM     23  H   UNL     1       3.023   8.690  17.606  0.00  0.00    +0.000 HD
ENDBRANCH  18  21
ENDBRANCH   1  19
TORSDOF 2
ENDMDL
MODEL 4
REMARK VINA RESULT:      -7.4      2.030      4.435
REMARK  Name = 
REMARK  4 active torsions:
REMARK  status: ('A' for Active; 'I' for Inactive)
REMARK    1  A    between atoms: C_1  and  C_2
REMARK    2  A    between atoms: C_4  and  N_5
REMARK    3  A    between atoms: N_6  and  C_7
REMARK    4  A    between atoms: C_9  and  C_10
REMARK                            x       y       z     vdW  Elec       q    Type
REMARK                         _______ _______ _______ _____ _____    ______ ____
ROOT
ATOM      1  C   UNL     1       5.811   4.974  17.874  0.00  0.00    +0.000 A 
ATOM      2  N   UNL     1       6.352   4.247  16.845  0.00  0.00    +0.000 NA
ATOM      3  C   UNL     1       5.579   3.736  15.889  0.00  0.00    +0.000 A 
ATOM      4  C   UNL     1       5.627   4.469  14.591  0.00  0.00    +0.000 C 
ATOM      5  N   UNL     1       4.372   3.298  16.101  0.00  0.00    +0.000 NA
ATOM      6  C   UNL     1       3.814   3.896  17.136  0.00  0.00    +0.000 A 
ATOM      7  S   UNL     1       2.133   4.012  17.087  0.00  0.00    +0.000 S 
ATOM      8  C   UNL     1       2.167   3.868  18.758  0.00  0.00    +0.000 A 
ATOM      9  C   UNL     1       3.387   4.323  19.293  0.00  0.00    +0.000 A 
ATOM     10  C   UNL     1       4.401   4.631  18.182  0.00  0.00    +0.000 A 
ATOM     11  C   UNL     1       3.563   4.160  20.775  0.00  0.00    +0.000 C 
ATOM     12  C   UNL     1       2.485   3.280  21.508  0.00  0.00    +0.000 C 
ATOM     13  C   UNL     1       1.173   2.853  20.834  0.00  0.00    +0.000 C 
ATOM     14  C   UNL     1       1.031   3.112  19.355  0.00  0.00    +0.000 C 
ENDROOT
BRANCH   1  19
ATOM     15  C   UNL     1       8.157   9.476  17.464  0.00  0.00    +0.000 C 
ATOM     16  C   UNL     1       7.738   8.090  17.893  0.00  0.00    +0.000 A 
ATOM     17  C   UNL     1       8.446   7.418  18.873  0.00  0.00    +0.000 A 
ATOM     18  C   UNL     1       7.799   6.229  19.013  0.00  0.00    +0.000 A 
ATOM     19  N   UNL     1       6.682   6.193  18.077  0.00  0.00    +0.000 N 
ATOM     20  N   UNL     1       6.704   7.386  17.358  0.00  0.00    +0.000 NA
BRANCH  18  21
ATOM     21  N   UNL     1       8.186   5.264  19.886  0.00  0.00    +0.000 N 
ATOM     22  H   UNL     1       9.145   5.189  20.221  0.00  0.00    +0.000 HD
ATOM     23  H   UNL     1       7.484   4.784  20.448  0.00  0.00    +0.000 HD
ENDBRANCH  18  21
ENDBRANCH   1  19
TORSDOF 2
ENDMDL
MODEL 5
REMARK VINA RESULT:      -7.1      3.542      6.712
REMARK  Name = 
REMARK  4 active torsions:
REMARK  status: ('A' for Active; 'I' for Inactive)
REMARK    1  A    between atoms: C_1  and  C_2
REMARK    2  A    between atoms: C_4  and  N_5
REMARK    3  A    between atoms: N_6  and  C_7
REMARK    4  A    between atoms: C_9  and  C_10
REMARK                            x       y       z     vdW  Elec       q    Type
REMARK                         _______ _______ _______ _____ _____    ______ ____
ROOT
ATOM      1  C   UNL     1       2.550   6.379  18.562  0.00  0.00    +0.000 A 
ATOM      2  N   UNL     1       1.756   5.407  19.114  0.00  0.00    +0.000 NA
ATOM      3  C   UNL     1       2.289   4.392  19.791  0.00  0.00    +0.000 A 
ATOM      4  C   UNL     1       2.154   4.491  21.272  0.00  0.00    +0.000 C 
ATOM      5  N   UNL     1       3.435   3.853  19.490  0.00  0.00    +0.000 NA
ATOM      6  C   UNL     1       4.227   4.710  18.876  0.00  0.00    +0.000 A 
ATOM      7  S   UNL     1       5.879   4.452  19.089  0.00  0.00    +0.000 S 
ATOM      8  C   UNL     1       6.079   5.048  17.534  0.00  0.00    +0.000 A 
ATOM      9  C   UNL     1       5.037   5.925  17.176  0.00  0.00    +0.000 A 
ATOM     10  C   UNL     1       3.923   5.925  18.233  0.00  0.00    +0.000 A 
ATOM     11  C   UNL     1       5.066   6.450  15.770  0.00  0.00    +0.000 C 
ATOM     12  C   UNL     1       6.099   5.772  14.797  0.00  0.00    +0.000 C 
ATOM     13  C   UNL     1       7.214   4.842  15.298  0.00  0.00    +0.000 C 
ATOM     14  C   UNL     1       7.166   4.408  16.741  0.00  0.00    +0.000 C 
ENDROOT
BRANCH   1  19
ATOM     15  C   UNL     1       0.720  11.128  18.356  0.00  0.00    +0.000 C 
ATOM     16  C   UNL     1       1.171   9.764  18.822  0.00  0.00    +0.000 A 
ATOM     17  C   UNL     1       1.150   9.442  20.166  0.00  0.00    +0.000 A 
ATOM     18  C   UNL     1       1.603   8.160  20.222  0.00  0.00    +0.000 A 
ATOM     19  N   UNL     1       1.913   7.716  18.869  0.00  0.00    +0.000 N 
ATOM     20  N   UNL     1       1.657   8.783  18.012  0.00  0.00    +0.000 NA
BRANCH  18  21
ATOM     21  N   UNL     1       1.739   7.463  21.379  0.00  0.00    +0.000 N 
ATOM     22  H   UNL     1       2.649   7.298  21.809  0.00  0.00    +0.000 HD
ATOM     23  H   UNL     1       0.934   7.346  21.994  0.00  0.00    +0.000 HD
ENDBRANCH  18  21
ENDBRANCH   1  19
TORSDOF 2
ENDMDL
MODEL 6
REMARK VINA RESULT:      -7.0      7.521      8.835
REMARK  Name = 
REMARK  4 active torsions:
REMARK  status: ('A' for Active; 'I' for Inactive)
REMARK    1  A    between atoms: C_1  and  C_2
REMARK    2  A    between atoms: C_4  and  N_5
REMARK    3  A    between atoms: N_6  and  C_7
REMARK    4  A    between atoms: C_9  and  C_10
REMARK                            x       y       z     vdW  Elec       q    Type
REMARK                         _______ _______ _______ _____ _____    ______ ____
ROOT
ATOM      1  C   UNL     1       0.791  10.380  18.423  0.00  0.00    +0.000 A 
ATOM      2  N   UNL     1       1.636  11.441  18.623  0.00  0.00    +0.000 NA
ATOM      3  C   UNL     1       1.248  12.498  19.334  0.00  0.00    +0.000 A 
ATOM      4  C   UNL     1       1.818  12.567  20.710  0.00  0.00    +0.000 C 
ATOM      5  N   UNL     1       0.028  12.948  19.341  0.00  0.00    +0.000 NA
ATOM      6  C   UNL     1      -0.842  11.994  19.071  0.00  0.00    +0.000 A 
ATOM      7  S   UNL     1      -2.375  12.198  19.744  0.00  0.00    +0.000 S 
ATOM      8  C   UNL     1      -2.974  11.429  18.379  0.00  0.00    +0.000 A 
ATOM      9  C   UNL     1      -2.019  10.567  17.807  0.00  0.00    +0.000 A 
ATOM     10  C   UNL     1      -0.649  10.733  18.479  0.00  0.00    +0.000 A 
ATOM     11  C   UNL     1      -2.418   9.891  16.528  0.00  0.00    +0.000 C 
ATOM     12  C   UNL     1      -3.739  10.412  15.851  0.00  0.00    +0.000 C 
ATOM     13  C   UNL     1      -4.726  11.339  16.576  0.00  0.00    +0.000 C 
ATOM     14  C   UNL     1      -4.291  11.928  17.894  0.00  0.00    +0.000 C 
ENDROOT
BRANCH   1  19
ATOM     15  C   UNL     1       3.586   6.158  17.870  0.00  0.00    +0.000 C 
ATOM     16  C   UNL     1       2.739   7.276  18.429  0.00  0.00    +0.000 A 
ATOM     17  C   UNL     1       2.311   7.240  19.743  0.00  0.00    +0.000 A 
ATOM     18  C   UNL     1       1.595   8.385  19.906  0.00  0.00    +0.000 A 
ATOM     19  N   UNL     1       1.590   9.115  18.644  0.00  0.00    +0.000 N 
ATOM     20  N   UNL     1       2.300   8.353  17.720  0.00  0.00    +0.000 NA
BRANCH  18  21
ATOM     21  N   UNL     1       0.992   8.733  21.072  0.00  0.00    +0.000 N 
ATOM     22  H   UNL     1       0.143   8.275  21.400  0.00  0.00    +0.000 HD
ATOM     23  H   UNL     1       1.521   9.241  21.780  0.00  0.00    +0.000 HD
ENDBRANCH  18  21
ENDBRANCH   1  19
TORSDOF 2
ENDMDL
MODEL 7
REMARK VINA RESULT:      -6.7      2.526      5.976
REMARK  Name = 
REMARK  4 active torsions:
REMARK  status: ('A' for Active; 'I' for Inactive)
REMARK    1  A    between atoms: C_1  and  C_2
REMARK    2  A    between atoms: C_4  and  N_5
REMARK    3  A    between atoms: N_6  and  C_7
REMARK    4  A    between atoms: C_9  and  C_10
REMARK                            x       y       z     vdW  Elec       q    Type
REMARK                         _______ _______ _______ _____ _____    ______ ____
ROOT
ATOM      1  C   UNL     1       5.105   4.939  16.857  0.00  0.00    +0.000 A 
ATOM      2  N   UNL     1       5.897   4.545  17.905  0.00  0.00    +0.000 NA
ATOM      3  C   UNL     1       7.222   4.660  17.840  0.00  0.00    +0.000 A 
ATOM      4  C   UNL     1       7.789   5.791  18.628  0.00  0.00    +0.000 C 
ATOM      5  N   UNL     1       7.901   4.506  16.742  0.00  0.00    +0.000 NA
ATOM      6  C   UNL     1       7.174   4.787  15.678  0.00  0.00    +0.000 A 
ATOM      7  S   UNL     1       8.032   5.349  14.340  0.00  0.00    +0.000 S 
ATOM      8  C   UNL     1       6.882   4.575  13.394  0.00  0.00    +0.000 A 
ATOM      9  C   UNL     1       5.652   4.456  14.068  0.00  0.00    +0.000 A 
ATOM     10  C   UNL     1       5.777   4.887  15.536  0.00  0.00    +0.000 A 
ATOM     11  C   UNL     1       4.573   3.699  13.348  0.00  0.00    +0.000 C 
ATOM     12  C   UNL     1       5.016   2.922  12.055  0.00  0.00    +0.000 C 
ATOM     13  C   UNL     1       6.381   3.144  11.387  0.00  0.00    +0.000 C 
ATOM     14  C   UNL     1       7.395   3.974  12.132  0.00  0.00    +0.000 C 
ENDROOT
BRANCH   1  19
ATOM     15  C   UNL     1       1.908   8.576  18.439  0.00  0.00    +0.000 C 
ATOM     16  C   UNL     1       2.582   7.251  18.166  0.00  0.00    +0.000 A 
ATOM     17  C   UNL     1       2.079   6.085  18.713  0.00  0.00    +0.000 A 
ATOM     18  C   UNL     1       2.908   5.106  18.262  0.00  0.00    +0.000 A 
ATOM     19  N   UNL     1       3.942   5.715  17.433  0.00  0.00    +0.000 N 
ATOM     20  N   UNL     1       3.716   7.089  17.430  0.00  0.00    +0.000 NA
BRANCH  18  21
ATOM     21  N   UNL     1       2.760   3.794  18.578  0.00  0.00    +0.000 N 
ATOM     22  H   UNL     1       3.354   3.069  18.177  0.00  0.00    +0.000 HD
ATOM     23  H   UNL     1       2.262   3.535  19.429  0.00  0.00    +0.000 HD
ENDBRANCH  18  21
ENDBRANCH   1  19
TORSDOF 2
ENDMDL
MODEL 8
REMARK VINA RESULT:      -6.7     10.953     12.166
REMARK  Name = 
REMARK  4 active torsions:
REMARK  status: ('A' for Active; 'I' for Inactive)
REMARK    1  A    between atoms: C_1  and  C_2
REMARK    2  A    between atoms: C_4  and  N_5
REMARK    3  A    between atoms: N_6  and  C_7
REMARK    4  A    between atoms: C_9  and  C_10
REMARK                            x       y       z     vdW  Elec       q    Type
REMARK                         _______ _______ _______ _____ _____    ______ ____
ROOT
ATOM      1  C   UNL     1       8.920  15.581  18.029  0.00  0.00    +0.000 A 
ATOM      2  N   UNL     1       9.642  16.645  17.554  0.00  0.00    +0.000 NA
ATOM      3  C   UNL     1       9.465  17.868  18.052  0.00  0.00    +0.000 A 
ATOM      4  C   UNL     1      10.543  18.327  18.974  0.00  0.00    +0.000 C 
ATOM      5  N   UNL     1       8.315  18.313  18.465  0.00  0.00    +0.000 NA
ATOM      6  C   UNL     1       7.529  17.332  18.862  0.00  0.00    +0.000 A 
ATOM      7  S   UNL     1       6.402  17.739  20.048  0.00  0.00    +0.000 S 
ATOM      8  C   UNL     1       5.383  16.613  19.336  0.00  0.00    +0.000 A 
ATOM      9  C   UNL     1       6.108  15.612  18.661  0.00  0.00    +0.000 A 
ATOM     10  C   UNL     1       7.604  15.950  18.605  0.00  0.00    +0.000 A 
ATOM     11  C   UNL     1       5.294  14.597  17.911  0.00  0.00    +0.000 C 
ATOM     12  C   UNL     1       3.761  14.913  17.758  0.00  0.00    +0.000 C 
ATOM     13  C   UNL     1       3.064  16.021  18.561  0.00  0.00    +0.000 C 
ATOM     14  C   UNL     1       3.936  16.963  19.352  0.00  0.00    +0.000 C 
ENDROOT
BRANCH   1  19
ATOM     15  C   UNL     1      11.695  11.726  19.867  0.00  0.00    +0.000 C 
ATOM     16  C   UNL     1      11.117  12.810  18.989  0.00  0.00    +0.000 A 
ATOM     17  C   UNL     1      11.675  13.081  17.753  0.00  0.00    +0.000 A 
ATOM     18  C   UNL     1      10.913  14.085  17.242  0.00  0.00    +0.000 A 
ATOM     19  N   UNL     1       9.879  14.426  18.213  0.00  0.00    +0.000 N 
ATOM     20  N   UNL     1      10.070  13.612  19.327  0.00  0.00    +0.000 NA
BRANCH  18  21
ATOM     21  N   UNL     1      11.135  14.651  16.028  0.00  0.00    +0.000 N 
ATOM     22  H   UNL     1      10.384  14.809  15.358  0.00  0.00    +0.000 HD
ATOM     23  H   UNL     1      11.983  15.195  15.875  0.00  0.00    +0.000 HD
ENDBRANCH  18  21
ENDBRANCH   1  19
TORSDOF 2
ENDMDL
MODEL 9
REMARK VINA RESULT:      -6.6      1.407      2.145
REMARK  Name = 
REMARK  4 active torsions:
REMARK  status: ('A' for Active; 'I' for Inactive)
REMARK    1  A    between atoms: C_1  and  C_2
REMARK    2  A    between atoms: C_4  and  N_5
REMARK    3  A    between atoms: N_6  and  C_7
REMARK    4  A    between atoms: C_9  and  C_10
REMARK                            x       y       z     vdW  Elec       q    Type
REMARK                         _______ _______ _______ _____ _____    ______ ____
ROOT
ATOM      1  C   UNL     1       5.739   5.090  17.007  0.00  0.00    +0.000 A 
ATOM      2  N   UNL     1       6.482   5.994  17.720  0.00  0.00    +0.000 NA
ATOM      3  C   UNL     1       6.833   5.747  18.981  0.00  0.00    +0.000 A 
ATOM      4  C   UNL     1       8.257   5.348  19.165  0.00  0.00    +0.000 C 
ATOM      5  N   UNL     1       6.082   5.094  19.818  0.00  0.00    +0.000 NA
ATOM      6  C   UNL     1       5.274   4.258  19.195  0.00  0.00    +0.000 A 
ATOM      7  S   UNL     1       4.824   2.892  20.074  0.00  0.00    +0.000 S 
ATOM      8  C   UNL     1       3.355   2.970  19.268  0.00  0.00    +0.000 A 
ATOM      9  C   UNL     1       3.483   3.606  18.018  0.00  0.00    +0.000 A 
ATOM     10  C   UNL     1       4.881   4.216  17.844  0.00  0.00    +0.000 A 
ATOM     11  C   UNL     1       2.212   3.810  17.246  0.00  0.00    +0.000 C 
ATOM     12  C   UNL     1       0.875   3.525  18.023  0.00  0.00    +0.000 C 
ATOM     13  C   UNL     1       0.847   2.804  19.378  0.00  0.00    +0.000 C 
ATOM     14  C   UNL     1       2.167   2.565  20.069  0.00  0.00    +0.000 C 
ENDROOT
BRANCH   1  19
ATOM     15  C   UNL     1       8.555   5.693  12.806  0.00  0.00    +0.000 C 
ATOM     16  C   UNL     1       7.511   5.250  13.804  0.00  0.00    +0.000 A 
ATOM     17  C   UNL     1       6.488   4.404  13.417  0.00  0.00    +0.000 A 
ATOM     18  C   UNL     1       5.754   4.210  14.547  0.00  0.00    +0.000 A 
ATOM     19  N   UNL     1       6.357   4.976  15.632  0.00  0.00    +0.000 N 
ATOM     20  N   UNL     1       7.453   5.653  15.103  0.00  0.00    +0.000 NA
BRANCH  18  21
ATOM     21  N   UNL     1       4.642   3.433  14.594  0.00  0.00    +0.000 N 
ATOM     22  H   UNL     1       4.079   3.342  15.438  0.00  0.00    +0.000 HD
ATOM     23  H   UNL     1       4.182   3.161  13.726  0.00  0.00    +0.000 HD
ENDBRANCH  18  21
ENDBRANCH   1  19
TORSDOF 2
ENDMDL
