MODEL 1
REMARK VINA RESULT:      -8.6      0.000      0.000
REMARK  Name = 
REMARK  6 active torsions:
REMARK  status: ('A' for Active; 'I' for Inactive)
REMARK    1  A    between atoms: C_2  and  C_3
REMARK    2  A    between atoms: C_3  and  C_4
REMARK    3  A    between atoms: C_4  and  C_5
REMARK    4  A    between atoms: C_5  and  C_6
REMARK    5  A    between atoms: C_6  and  N_7
REMARK    6  A    between atoms: N_23  and  O_24
REMARK                            x       y       z     vdW  Elec       q    Type
REMARK                         _______ _______ _______ _____ _____    ______ ____
ROOT
ATOM      1  N   UNL     1       5.320   4.555  16.914  0.00  0.00    +0.000 N 
ATOM      2  C   UNL     1       6.206   4.448  17.941  0.00  0.00    +0.000 C 
ATOM      3  O   UNL     1       7.318   4.945  18.018  0.00  0.00    +0.000 OA
ATOM      4  N   UNL     1       5.620   3.727  18.953  0.00  0.00    +0.000 N 
ATOM      5  C   UNL     1       4.222   3.447  18.695  0.00  0.00    +0.000 C 
ATOM      6  C   UNL     1       3.945   1.967  18.968  0.00  0.00    +0.000 C 
ATOM      7  C   UNL     1       2.458   1.644  19.014  0.00  0.00    +0.000 C 
ATOM      8  C   UNL     1       1.742   2.477  20.071  0.00  0.00    +0.000 C 
ATOM      9  C   UNL     1       2.084   3.944  20.009  0.00  0.00    +0.000 A 
ATOM     10  C   UNL     1       1.181   4.864  20.575  0.00  0.00    +0.000 A 
ATOM     11  C   UNL     1       1.443   6.232  20.554  0.00  0.00    +0.000 A 
ATOM     12  C   UNL     1       2.626   6.699  19.999  0.00  0.00    +0.000 A 
ATOM     13  C   UNL     1       3.542   5.794  19.461  0.00  0.00    +0.000 A 
ATOM     14  C   UNL     1       3.285   4.405  19.439  0.00  0.00    +0.000 A 
ATOM     15  C   UNL     1       4.187   3.824  17.184  0.00  0.00    +0.000 C 
ATOM     16  O   UNL     1       3.265   3.606  16.403  0.00  0.00    +0.000 OA
ATOM     17  H   UNL     1       6.060   3.673  19.862  0.00  0.00    +0.000 HD
ENDROOT
BRANCH   1  18
ATOM     18  C   UNL     1       5.444   5.534  15.855  0.00  0.00    +0.000 C 
BRANCH  18  19
ATOM     19  C   UNL     1       6.387   5.136  14.726  0.00  0.00    +0.000 C 
BRANCH  19  20
ATOM     20  C   UNL     1       5.957   3.887  13.957  0.00  0.00    +0.000 C 
BRANCH  20  21
ATOM     21  C   UNL     1       6.529   3.825  12.542  0.00  0.00    +0.000 C 
BRANCH  21  23
ATOM     22  O   UNL     1       4.787   2.571  11.452  0.00  0.00    +0.000 OA
ATOM     23  C   UNL     1       5.966   2.645  11.798  0.00  0.00    +0.000 C 
ATOM     24  N   UNL     1       6.886   1.676  11.492  0.00  0.00    +0.000 N 
ATOM     25  H   UNL     1       7.808   1.616  11.923  0.00  0.00    +0.000 HD
BRANCH  24  26
ATOM     26  O   UNL     1       6.377   0.521  10.857  0.00  0.00    +0.000 OA
ATOM     27  H   UNL     1       6.948   0.457  10.058  0.00  0.00    +0.000 HD
ENDBRANCH  24  26
ENDBRANCH  21  23
ENDBRANCH  20  21
ENDBRANCH  19  20
ENDBRANCH  18  19
ENDBRANCH   1  18
TORSDOF 6
ENDMDL
MODEL 2
REMARK VINA RESULT:      -8.4      0.790      1.063
REMARK  Name = 
REMARK  6 active torsions:
REMARK  status: ('A' for Active; 'I' for Inactive)
REMARK    1  A    between atoms: C_2  and  C_3
REMARK    2  A    between atoms: C_3  and  C_4
REMARK    3  A    between atoms: C_4  and  C_5
REMARK    4  A    between atoms: C_5  and  C_6
REMARK    5  A    between atoms: C_6  and  N_7
REMARK    6  A    between atoms: N_23  and  O_24
REMARK                            x       y       z     vdW  Elec       q    Type
REMARK                         _______ _______ _______ _____ _____    ______ ____
ROOT
ATOM      1  N   UNL     1       5.295   4.539  16.888  0.00  0.00    +0.000 N 
ATOM      2  C   UNL     1       6.193   4.446  17.907  0.00  0.00    +0.000 C 
ATOM      3  O   UNL     1       7.309   4.938  17.962  0.00  0.00    +0.000 OA
ATOM      4  N   UNL     1       5.616   3.747  18.939  0.00  0.00    +0.000 N 
ATOM      5  C   UNL     1       4.213   3.470  18.702  0.00  0.00    +0.000 C 
ATOM      6  C   UNL     1       3.932   1.996  19.005  0.00  0.00    +0.000 C 
ATOM      7  C   UNL     1       2.444   1.683  19.074  0.00  0.00    +0.000 C 
ATOM      8  C   UNL     1       1.745   2.538  20.125  0.00  0.00    +0.000 C 
ATOM      9  C   UNL     1       2.094   4.003  20.033  0.00  0.00    +0.000 A 
ATOM     10  C   UNL     1       1.203   4.937  20.593  0.00  0.00    +0.000 A 
ATOM     11  C   UNL     1       1.472   6.303  20.544  0.00  0.00    +0.000 A 
ATOM     12  C   UNL     1       2.651   6.754  19.967  0.00  0.00    +0.000 A 
ATOM     13  C   UNL     1       3.555   5.834  19.433  0.00  0.00    +0.000 A 
ATOM     14  C   UNL     1       3.290   4.447  19.440  0.00  0.00    +0.000 A 
ATOM     15  C   UNL     1       4.162   3.820  17.186  0.00  0.00    +0.000 C 
ATOM     16  O   UNL     1       3.230   3.594  16.419  0.00  0.00    +0.000 OA
ATOM     17  H   UNL     1       6.067   3.706  19.843  0.00  0.00    +0.000 HD
ENDROOT
BRANCH   1  18
ATOM     18  C   UNL     1       5.413   5.498  15.811  0.00  0.00    +0.000 C 
BRANCH  18  19
ATOM     19  C   UNL     1       6.333   5.072  14.674  0.00  0.00    +0.000 C 
BRANCH  19  20
ATOM     20  C   UNL     1       5.971   3.728  14.042  0.00  0.00    +0.000 C 
BRANCH  20  21
ATOM     21  C   UNL     1       6.448   3.595  12.596  0.00  0.00    +0.000 C 
BRANCH  21  23
ATOM     22  O   UNL     1       5.607   1.691  11.388  0.00  0.00    +0.000 OA
ATOM     23  C   UNL     1       5.435   2.846  11.774  0.00  0.00    +0.000 C 
ATOM     24  N   UNL     1       4.280   3.541  11.527  0.00  0.00    +0.000 N 
ATOM     25  H   UNL     1       4.186   4.547  11.662  0.00  0.00    +0.000 HD
BRANCH  24  26
ATOM     26  O   UNL     1       3.337   2.895  10.696  0.00  0.00    +0.000 OA
ATOM     27  H   UNL     1       2.628   3.574  10.622  0.00  0.00    +0.000 HD
ENDBRANCH  24  26
ENDBRANCH  21  23
ENDBRANCH  20  21
ENDBRANCH  19  20
ENDBRANCH  18  19
ENDBRANCH   1  18
TORSDOF 6
ENDMDL
MODEL 3
REMARK VINA RESULT:      -8.1      1.682      3.062
REMARK  Name = 
REMARK  6 active torsions:
REMARK  status: ('A' for Active; 'I' for Inactive)
REMARK    1  A    between atoms: C_2  and  C_3
REMARK    2  A    between atoms: C_3  and  C_4
REMARK    3  A    between atoms: C_4  and  C_5
REMARK    4  A    between atoms: C_5  and  C_6
REMARK    5  A    between atoms: C_6  and  N_7
REMARK    6  A    between atoms: N_23  and  O_24
REMARK                            x       y       z     vdW  Elec       q    Type
REMARK                         _______ _______ _______ _____ _____    ______ ____
ROOT
ATOM      1  N   UNL     1       5.552   6.065  17.571  0.00  0.00    +0.000 N 
ATOM      2  C   UNL     1       4.693   6.681  16.715  0.00  0.00    +0.000 C 
ATOM      3  O   UNL     1       4.933   7.102  15.595  0.00  0.00    +0.000 OA
ATOM      4  N   UNL     1       3.444   6.703  17.287  0.00  0.00    +0.000 N 
ATOM      5  C   UNL     1       3.387   5.942  18.519  0.00  0.00    +0.000 C 
ATOM      6  C   UNL     1       2.688   6.777  19.595  0.00  0.00    +0.000 C 
ATOM      7  C   UNL     1       2.316   5.960  20.825  0.00  0.00    +0.000 C 
ATOM      8  C   UNL     1       1.416   4.786  20.460  0.00  0.00    +0.000 C 
ATOM      9  C   UNL     1       1.921   3.989  19.283  0.00  0.00    +0.000 A 
ATOM     10  C   UNL     1       1.480   2.660  19.139  0.00  0.00    +0.000 A 
ATOM     11  C   UNL     1       1.907   1.875  18.070  0.00  0.00    +0.000 A 
ATOM     12  C   UNL     1       2.751   2.416  17.111  0.00  0.00    +0.000 A 
ATOM     13  C   UNL     1       3.172   3.742  17.228  0.00  0.00    +0.000 A 
ATOM     14  C   UNL     1       2.781   4.548  18.320  0.00  0.00    +0.000 A 
ATOM     15  C   UNL     1       4.916   5.769  18.754  0.00  0.00    +0.000 C 
ATOM     16  O   UNL     1       5.451   5.338  19.772  0.00  0.00    +0.000 OA
ATOM     17  H   UNL     1       2.638   6.979  16.742  0.00  0.00    +0.000 HD
ENDROOT
BRANCH   1  18
ATOM     18  C   UNL     1       6.838   5.541  17.165  0.00  0.00    +0.000 C 
BRANCH  18  19
ATOM     19  C   UNL     1       6.771   4.334  16.237  0.00  0.00    +0.000 C 
BRANCH  19  20
ATOM     20  C   UNL     1       6.948   4.667  14.757  0.00  0.00    +0.000 C 
BRANCH  20  21
ATOM     21  C   UNL     1       5.825   4.118  13.878  0.00  0.00    +0.000 C 
BRANCH  21  23
ATOM     22  O   UNL     1       7.228   4.104  11.922  0.00  0.00    +0.000 OA
ATOM     23  C   UNL     1       6.386   3.531  12.612  0.00  0.00    +0.000 C 
ATOM     24  N   UNL     1       5.916   2.279  12.311  0.00  0.00    +0.000 N 
ATOM     25  H   UNL     1       5.091   1.866  12.745  0.00  0.00    +0.000 HD
BRANCH  24  26
ATOM     26  O   UNL     1       6.366   1.728  11.090  0.00  0.00    +0.000 OA
ATOM     27  H   UNL     1       7.059   2.370  10.817  0.00  0.00    +0.000 HD
ENDBRANCH  24  26
ENDBRANCH  21  23
ENDBRANCH  20  21
ENDBRANCH  19  20
ENDBRANCH  18  19
ENDBRANCH   1  18
TORSDOF 6
ENDMDL
MODEL 4
REMARK VINA RESULT:      -7.8      1.349      1.774
REMARK  Name = 
REMARK  6 active torsions:
REMARK  status: ('A' for Active; 'I' for Inactive)
REMARK    1  A    between atoms: C_2  and  C_3
REMARK    2  A    between atoms: C_3  and  C_4
REMARK    3  A    between atoms: C_4  and  C_5
REMARK    4  A    between atoms: C_5  and  C_6
REMARK    5  A    between atoms: C_6  and  N_7
REMARK    6  A    between atoms: N_23  and  O_24
REMARK                            x       y       z     vdW  Elec       q    Type
REMARK                         _______ _______ _______ _____ _____    ______ ____
ROOT
ATOM      1  N   UNL     1       5.506   3.977  16.078  0.00  0.00    +0.000 N 
ATOM      2  C   UNL     1       6.587   4.400  16.788  0.00  0.00    +0.000 C 
ATOM      3  O   UNL     1       7.675   4.742  16.354  0.00  0.00    +0.000 OA
ATOM      4  N   UNL     1       6.245   4.455  18.118  0.00  0.00    +0.000 N 
ATOM      5  C   UNL     1       4.832   4.211  18.335  0.00  0.00    +0.000 C 
ATOM      6  C   UNL     1       4.665   3.194  19.467  0.00  0.00    +0.000 C 
ATOM      7  C   UNL     1       3.229   3.100  19.966  0.00  0.00    +0.000 C 
ATOM      8  C   UNL     1       2.719   4.453  20.448  0.00  0.00    +0.000 C 
ATOM      9  C   UNL     1       2.995   5.575  19.478  0.00  0.00    +0.000 A 
ATOM     10  C   UNL     1       2.198   6.734  19.555  0.00  0.00    +0.000 A 
ATOM     11  C   UNL     1       2.407   7.806  18.691  0.00  0.00    +0.000 A 
ATOM     12  C   UNL     1       3.436   7.753  17.762  0.00  0.00    +0.000 A 
ATOM     13  C   UNL     1       4.250   6.621  17.695  0.00  0.00    +0.000 A 
ATOM     14  C   UNL     1       4.038   5.507  18.537  0.00  0.00    +0.000 A 
ATOM     15  C   UNL     1       4.476   3.648  16.928  0.00  0.00    +0.000 C 
ATOM     16  O   UNL     1       3.422   3.108  16.607  0.00  0.00    +0.000 OA
ATOM     17  H   UNL     1       6.863   4.894  18.786  0.00  0.00    +0.000 HD
ENDROOT
BRANCH   1  18
ATOM     18  C   UNL     1       5.380   4.149  14.646  0.00  0.00    +0.000 C 
BRANCH  18  19
ATOM     19  C   UNL     1       6.662   3.904  13.859  0.00  0.00    +0.000 C 
BRANCH  19  20
ATOM     20  C   UNL     1       6.469   3.841  12.345  0.00  0.00    +0.000 C 
BRANCH  20  21
ATOM     21  C   UNL     1       5.550   2.703  11.902  0.00  0.00    +0.000 C 
BRANCH  21  23
ATOM     22  O   UNL     1       7.475   1.650  10.913  0.00  0.00    +0.000 OA
ATOM     23  C   UNL     1       6.359   1.532  11.416  0.00  0.00    +0.000 C 
ATOM     24  N   UNL     1       5.769   0.312  11.621  0.00  0.00    +0.000 N 
ATOM     25  H   UNL     1       4.782   0.192  11.852  0.00  0.00    +0.000 HD
BRANCH  24  26
ATOM     26  O   UNL     1       6.467  -0.806  11.112  0.00  0.00    +0.000 OA
ATOM     27  H   UNL     1       5.735  -1.371  10.775  0.00  0.00    +0.000 HD
ENDBRANCH  24  26
ENDBRANCH  21  23
ENDBRANCH  20  21
ENDBRANCH  19  20
ENDBRANCH  18  19
ENDBRANCH   1  18
TORSDOF 6
ENDMDL
MODEL 5
REMARK VINA RESULT:      -7.7      2.645      4.542
REMARK  Name = 
REMARK  6 active torsions:
REMARK  status: ('A' for Active; 'I' for Inactive)
REMARK    1  A    between atoms: C_2  and  C_3
REMARK    2  A    between atoms: C_3  and  C_4
REMARK    3  A    between atoms: C_4  and  C_5
REMARK    4  A    between atoms: C_5  and  C_6
REMARK    5  A    between atoms: C_6  and  N_7
REMARK    6  A    between atoms: N_23  and  O_24
REMARK                            x       y       z     vdW  Elec       q    Type
REMARK                         _______ _______ _______ _____ _____    ______ ____
ROOT
ATOM      1  N   UNL     1       5.254   4.197  17.025  0.00  0.00    +0.000 N 
ATOM      2  C   UNL     1       6.091   4.003  18.081  0.00  0.00    +0.000 C 
ATOM      3  O   UNL     1       7.258   4.348  18.178  0.00  0.00    +0.000 OA
ATOM      4  N   UNL     1       5.387   3.398  19.093  0.00  0.00    +0.000 N 
ATOM      5  C   UNL     1       3.971   3.301  18.800  0.00  0.00    +0.000 C 
ATOM      6  C   UNL     1       3.489   1.880  19.103  0.00  0.00    +0.000 C 
ATOM      7  C   UNL     1       1.972   1.762  19.113  0.00  0.00    +0.000 C 
ATOM      8  C   UNL     1       1.347   2.714  20.127  0.00  0.00    +0.000 C 
ATOM      9  C   UNL     1       1.886   4.120  20.037  0.00  0.00    +0.000 A 
ATOM     10  C   UNL     1       1.101   5.169  20.552  0.00  0.00    +0.000 A 
ATOM     11  C   UNL     1       1.546   6.488  20.503  0.00  0.00    +0.000 A 
ATOM     12  C   UNL     1       2.796   6.775  19.972  0.00  0.00    +0.000 A 
ATOM     13  C   UNL     1       3.595   5.739  19.484  0.00  0.00    +0.000 A 
ATOM     14  C   UNL     1       3.153   4.398  19.491  0.00  0.00    +0.000 A 
ATOM     15  C   UNL     1       4.026   3.634  17.280  0.00  0.00    +0.000 C 
ATOM     16  O   UNL     1       3.105   3.519  16.477  0.00  0.00    +0.000 OA
ATOM     17  H   UNL     1       5.792   3.312  20.016  0.00  0.00    +0.000 HD
ENDROOT
BRANCH   1  18
ATOM     18  C   UNL     1       5.538   5.119  15.946  0.00  0.00    +0.000 C 
BRANCH  18  19
ATOM     19  C   UNL     1       5.070   6.548  16.188  0.00  0.00    +0.000 C 
BRANCH  19  20
ATOM     20  C   UNL     1       5.836   7.286  17.284  0.00  0.00    +0.000 C 
BRANCH  20  21
ATOM     21  C   UNL     1       7.283   7.595  16.905  0.00  0.00    +0.000 C 
BRANCH  21  23
ATOM     22  O   UNL     1       8.432   7.068  18.953  0.00  0.00    +0.000 OA
ATOM     23  C   UNL     1       8.093   7.918  18.130  0.00  0.00    +0.000 C 
ATOM     24  N   UNL     1       8.464   9.233  18.235  0.00  0.00    +0.000 N 
ATOM     25  H   UNL     1       8.045   9.984  17.686  0.00  0.00    +0.000 HD
BRANCH  24  26
ATOM     26  O   UNL     1       9.163   9.585  19.411  0.00  0.00    +0.000 OA
ATOM     27  H   UNL     1       9.513   8.716  19.711  0.00  0.00    +0.000 HD
ENDBRANCH  24  26
ENDBRANCH  21  23
ENDBRANCH  20  21
ENDBRANCH  19  20
ENDBRANCH  18  19
ENDBRANCH   1  18
TORSDOF 6
ENDMDL
MODEL 6
REMARK VINA RESULT:      -7.7      1.229      1.707
REMARK  Name = 
REMARK  6 active torsions:
REMARK  status: ('A' for Active; 'I' for Inactive)
REMARK    1  A    between atoms: C_2  and  C_3
REMARK    2  A    between atoms: C_3  and  C_4
REMARK    3  A    between atoms: C_4  and  C_5
REMARK    4  A    between atoms: C_5  and  C_6
REMARK    5  A    between atoms: C_6  and  N_7
REMARK    6  A    between atoms: N_23  and  O_24
REMARK                            x       y       z     vdW  Elec       q    Type
REMARK                         _______ _______ _______ _____ _____    ______ ____
ROOT
ATOM      1  N   UNL     1       6.010   3.958  17.065  0.00  0.00    +0.000 N 
ATOM      2  C   UNL     1       6.774   4.434  18.085  0.00  0.00    +0.000 C 
ATOM      3  O   UNL     1       7.969   4.684  18.067  0.00  0.00    +0.000 OA
ATOM      4  N   UNL     1       5.963   4.669  19.169  0.00  0.00    +0.000 N 
ATOM      5  C   UNL     1       4.558   4.498  18.855  0.00  0.00    +0.000 C 
ATOM      6  C   UNL     1       3.900   3.640  19.938  0.00  0.00    +0.000 C 
ATOM      7  C   UNL     1       2.380   3.654  19.857  0.00  0.00    +0.000 C 
ATOM      8  C   UNL     1       1.832   5.073  19.961  0.00  0.00    +0.000 C 
ATOM      9  C   UNL     1       2.537   6.053  19.057  0.00  0.00    +0.000 A 
ATOM     10  C   UNL     1       1.861   7.236  18.700  0.00  0.00    +0.000 A 
ATOM     11  C   UNL     1       2.461   8.182  17.872  0.00  0.00    +0.000 A 
ATOM     12  C   UNL     1       3.757   7.979  17.418  0.00  0.00    +0.000 A 
ATOM     13  C   UNL     1       4.446   6.824  17.789  0.00  0.00    +0.000 A 
ATOM     14  C   UNL     1       3.849   5.833  18.599  0.00  0.00    +0.000 A 
ATOM     15  C   UNL     1       4.714   3.771  17.487  0.00  0.00    +0.000 C 
ATOM     16  O   UNL     1       3.819   3.227  16.846  0.00  0.00    +0.000 OA
ATOM     17  H   UNL     1       6.316   5.170  19.973  0.00  0.00    +0.000 HD
ENDROOT
BRANCH   1  18
ATOM     18  C   UNL     1       6.445   3.949  15.685  0.00  0.00    +0.000 C 
BRANCH  18  19
ATOM     19  C   UNL     1       5.712   4.930  14.779  0.00  0.00    +0.000 C 
BRANCH  19  20
ATOM     20  C   UNL     1       5.267   4.341  13.441  0.00  0.00    +0.000 C 
BRANCH  20  21
ATOM     21  C   UNL     1       6.398   3.651  12.680  0.00  0.00    +0.000 C 
BRANCH  21  23
ATOM     22  O   UNL     1       4.701   2.565  11.363  0.00  0.00    +0.000 OA
ATOM     23  C   UNL     1       5.852   2.563  11.797  0.00  0.00    +0.000 C 
ATOM     24  N   UNL     1       6.758   1.587  11.475  0.00  0.00    +0.000 N 
ATOM     25  H   UNL     1       7.644   1.453  11.964  0.00  0.00    +0.000 HD
BRANCH  24  26
ATOM     26  O   UNL     1       6.260   0.511  10.706  0.00  0.00    +0.000 OA
ATOM     27  H   UNL     1       6.263  -0.227  11.358  0.00  0.00    +0.000 HD
ENDBRANCH  24  26
ENDBRANCH  21  23
ENDBRANCH  20  21
ENDBRANCH  19  20
ENDBRANCH  18  19
ENDBRANCH   1  18
TORSDOF 6
ENDMDL
MODEL 7
REMARK VINA RESULT:      -7.5      1.674      1.949
REMARK  Name = 
REMARK  6 active torsions:
REMARK  status: ('A' for Active; 'I' for Inactive)
REMARK    1  A    between atoms: C_2  and  C_3
REMARK    2  A    between atoms: C_3  and  C_4
REMARK    3  A    between atoms: C_4  and  C_5
REMARK    4  A    between atoms: C_5  and  C_6
REMARK    5  A    between atoms: C_6  and  N_7
REMARK    6  A    between atoms: N_23  and  O_24
REMARK                            x       y       z     vdW  Elec       q    Type
REMARK                         _______ _______ _______ _____ _____    ______ ____
ROOT
ATOM      1  N   UNL     1       5.352   4.497  17.183  0.00  0.00    +0.000 N 
ATOM      2  C   UNL     1       6.182   4.365  18.253  0.00  0.00    +0.000 C 
ATOM      3  O   UNL     1       7.307   4.819  18.382  0.00  0.00    +0.000 OA
ATOM      4  N   UNL     1       5.520   3.674  19.240  0.00  0.00    +0.000 N 
ATOM      5  C   UNL     1       4.126   3.446  18.914  0.00  0.00    +0.000 C 
ATOM      6  C   UNL     1       3.780   1.979  19.182  0.00  0.00    +0.000 C 
ATOM      7  C   UNL     1       2.281   1.714  19.157  0.00  0.00    +0.000 C 
ATOM      8  C   UNL     1       1.546   2.581  20.173  0.00  0.00    +0.000 C 
ATOM      9  C   UNL     1       1.947   4.034  20.119  0.00  0.00    +0.000 A 
ATOM     10  C   UNL     1       1.053   4.991  20.634  0.00  0.00    +0.000 A 
ATOM     11  C   UNL     1       1.368   6.349  20.618  0.00  0.00    +0.000 A 
ATOM     12  C   UNL     1       2.595   6.766  20.120  0.00  0.00    +0.000 A 
ATOM     13  C   UNL     1       3.501   5.822  19.632  0.00  0.00    +0.000 A 
ATOM     14  C   UNL     1       3.192   4.444  19.606  0.00  0.00    +0.000 A 
ATOM     15  C   UNL     1       4.180   3.811  17.402  0.00  0.00    +0.000 C 
ATOM     16  O   UNL     1       3.290   3.623  16.577  0.00  0.00    +0.000 OA
ATOM     17  H   UNL     1       5.913   3.610  20.169  0.00  0.00    +0.000 HD
ENDROOT
BRANCH   1  18
ATOM     18  C   UNL     1       5.566   5.462  16.127  0.00  0.00    +0.000 C 
BRANCH  18  19
ATOM     19  C   UNL     1       5.286   4.944  14.722  0.00  0.00    +0.000 C 
BRANCH  19  20
ATOM     20  C   UNL     1       6.175   3.778  14.291  0.00  0.00    +0.000 C 
BRANCH  20  21
ATOM     21  C   UNL     1       6.478   3.772  12.794  0.00  0.00    +0.000 C 
BRANCH  21  23
ATOM     22  O   UNL     1       7.561   5.335  11.318  0.00  0.00    +0.000 OA
ATOM     23  C   UNL     1       7.454   4.863  12.450  0.00  0.00    +0.000 C 
ATOM     24  N   UNL     1       8.188   5.323  13.512  0.00  0.00    +0.000 N 
ATOM     25  H   UNL     1       8.263   4.832  14.403  0.00  0.00    +0.000 HD
BRANCH  24  26
ATOM     26  O   UNL     1       9.166   6.297  13.210  0.00  0.00    +0.000 OA
ATOM     27  H   UNL     1       9.783   5.797  12.630  0.00  0.00    +0.000 HD
ENDBRANCH  24  26
ENDBRANCH  21  23
ENDBRANCH  20  21
ENDBRANCH  19  20
ENDBRANCH  18  19
ENDBRANCH   1  18
TORSDOF 6
ENDMDL
MODEL 8
REMARK VINA RESULT:      -7.5      2.857      5.174
REMARK  Name = 
REMARK  6 active torsions:
REMARK  status: ('A' for Active; 'I' for Inactive)
REMARK    1  A    between atoms: C_2  and  C_3
REMARK    2  A    between atoms: C_3  and  C_4
REMARK    3  A    between atoms: C_4  and  C_5
REMARK    4  A    between atoms: C_5  and  C_6
REMARK    5  A    between atoms: C_6  and  N_7
REMARK    6  A    between atoms: N_23  and  O_24
REMARK                            x       y       z     vdW  Elec       q    Type
REMARK                         _______ _______ _______ _____ _____    ______ ____
ROOT
ATOM      1  N   UNL     1       5.645   4.608  17.315  0.00  0.00    +0.000 N 
ATOM      2  C   UNL     1       6.344   4.243  18.425  0.00  0.00    +0.000 C 
ATOM      3  O   UNL     1       7.460   4.608  18.754  0.00  0.00    +0.000 OA
ATOM      4  N   UNL     1       5.552   3.421  19.191  0.00  0.00    +0.000 N 
ATOM      5  C   UNL     1       4.198   3.327  18.682  0.00  0.00    +0.000 C 
ATOM      6  C   UNL     1       3.778   1.856  18.636  0.00  0.00    +0.000 C 
ATOM      7  C   UNL     1       2.284   1.677  18.403  0.00  0.00    +0.000 C 
ATOM      8  C   UNL     1       1.466   2.384  19.478  0.00  0.00    +0.000 C 
ATOM      9  C   UNL     1       1.916   3.800  19.737  0.00  0.00    +0.000 A 
ATOM     10  C   UNL     1       0.999   4.694  20.322  0.00  0.00    +0.000 A 
ATOM     11  C   UNL     1       1.356   6.014  20.591  0.00  0.00    +0.000 A 
ATOM     12  C   UNL     1       2.644   6.450  20.311  0.00  0.00    +0.000 A 
ATOM     13  C   UNL     1       3.569   5.565  19.756  0.00  0.00    +0.000 A 
ATOM     14  C   UNL     1       3.222   4.232  19.444  0.00  0.00    +0.000 A 
ATOM     15  C   UNL     1       4.435   3.956  17.278  0.00  0.00    +0.000 C 
ATOM     16  O   UNL     1       3.639   3.966  16.343  0.00  0.00    +0.000 OA
ATOM     17  H   UNL     1       5.834   3.171  20.129  0.00  0.00    +0.000 HD
ENDROOT
BRANCH   1  18
ATOM     18  C   UNL     1       6.008   5.736  16.484  0.00  0.00    +0.000 C 
BRANCH  18  19
ATOM     19  C   UNL     1       6.155   7.057  17.229  0.00  0.00    +0.000 C 
BRANCH  19  20
ATOM     20  C   UNL     1       7.517   7.728  17.060  0.00  0.00    +0.000 C 
BRANCH  20  21
ATOM     21  C   UNL     1       8.208   8.034  18.387  0.00  0.00    +0.000 C 
BRANCH  21  23
ATOM     22  O   UNL     1       8.168  10.330  17.666  0.00  0.00    +0.000 OA
ATOM     23  C   UNL     1       8.578   9.489  18.466  0.00  0.00    +0.000 C 
ATOM     24  N   UNL     1       9.373   9.815  19.534  0.00  0.00    +0.000 N 
ATOM     25  H   UNL     1       9.879   9.127  20.092  0.00  0.00    +0.000 HD
BRANCH  24  26
ATOM     26  O   UNL     1       9.799  11.160  19.599  0.00  0.00    +0.000 OA
ATOM     27  H   UNL     1      10.432  11.213  18.846  0.00  0.00    +0.000 HD
ENDBRANCH  24  26
ENDBRANCH  21  23
ENDBRANCH  20  21
ENDBRANCH  19  20
ENDBRANCH  18  19
ENDBRANCH   1  18
TORSDOF 6
ENDMDL
MODEL 9
REMARK VINA RESULT:      -7.4      1.531      1.848
REMARK  Name = 
REMARK  6 active torsions:
REMARK  status: ('A' for Active; 'I' for Inactive)
REMARK    1  A    between atoms: C_2  and  C_3
REMARK    2  A    between atoms: C_3  and  C_4
REMARK    3  A    between atoms: C_4  and  C_5
REMARK    4  A    between atoms: C_5  and  C_6
REMARK    5  A    between atoms: C_6  and  N_7
REMARK    6  A    between atoms: N_23  and  O_24
REMARK                            x       y       z     vdW  Elec       q    Type
REMARK                         _______ _______ _______ _____ _____    ______ ____
ROOT
ATOM      1  N   UNL     1       5.444   4.043  16.422  0.00  0.00    +0.000 N 
ATOM      2  C   UNL     1       6.485   4.402  17.221  0.00  0.00    +0.000 C 
ATOM      3  O   UNL     1       7.575   4.830  16.875  0.00  0.00    +0.000 OA
ATOM      4  N   UNL     1       6.097   4.273  18.532  0.00  0.00    +0.000 N 
ATOM      5  C   UNL     1       4.688   3.961  18.663  0.00  0.00    +0.000 C 
ATOM      6  C   UNL     1       4.518   2.801  19.648  0.00  0.00    +0.000 C 
ATOM      7  C   UNL     1       3.071   2.599  20.076  0.00  0.00    +0.000 C 
ATOM      8  C   UNL     1       2.499   3.863  20.709  0.00  0.00    +0.000 C 
ATOM      9  C   UNL     1       2.767   5.109  19.904  0.00  0.00    +0.000 A 
ATOM     10  C   UNL     1       1.929   6.223  20.099  0.00  0.00    +0.000 A 
ATOM     11  C   UNL     1       2.129   7.405  19.389  0.00  0.00    +0.000 A 
ATOM     12  C   UNL     1       3.190   7.503  18.500  0.00  0.00    +0.000 A 
ATOM     13  C   UNL     1       4.044   6.415  18.318  0.00  0.00    +0.000 A 
ATOM     14  C   UNL     1       3.843   5.194  19.001  0.00  0.00    +0.000 A 
ATOM     15  C   UNL     1       4.398   3.575  17.183  0.00  0.00    +0.000 C 
ATOM     16  O   UNL     1       3.374   3.050  16.756  0.00  0.00    +0.000 OA
ATOM     17  H   UNL     1       6.677   4.639  19.275  0.00  0.00    +0.000 HD
ENDROOT
BRANCH   1  18
ATOM     18  C   UNL     1       5.360   4.395  15.021  0.00  0.00    +0.000 C 
BRANCH  18  19
ATOM     19  C   UNL     1       6.484   3.841  14.155  0.00  0.00    +0.000 C 
BRANCH  19  20
ATOM     20  C   UNL     1       6.050   3.424  12.750  0.00  0.00    +0.000 C 
BRANCH  20  21
ATOM     21  C   UNL     1       4.706   4.017  12.334  0.00  0.00    +0.000 C 
BRANCH  21  23
ATOM     22  O   UNL     1       4.384   2.111  10.898  0.00  0.00    +0.000 OA
ATOM     23  C   UNL     1       4.165   3.300  11.127  0.00  0.00    +0.000 C 
ATOM     24  N   UNL     1       3.365   4.070  10.322  0.00  0.00    +0.000 N 
ATOM     25  H   UNL     1       3.322   5.087  10.375  0.00  0.00    +0.000 HD
BRANCH  24  26
ATOM     26  O   UNL     1       2.899   3.449   9.141  0.00  0.00    +0.000 OA
ATOM     27  H   UNL     1       2.174   4.055   8.863  0.00  0.00    +0.000 HD
ENDBRANCH  24  26
ENDBRANCH  21  23
ENDBRANCH  20  21
ENDBRANCH  19  20
ENDBRANCH  18  19
ENDBRANCH   1  18
TORSDOF 6
ENDMDL
