MODEL 1
REMARK VINA RESULT:      -7.4      0.000      0.000
REMARK  Name = 
REMARK  9 active torsions:
REMARK  status: ('A' for Active; 'I' for Inactive)
REMARK    1  A    between atoms: C_1  and  O_2
REMARK    2  A    between atoms: O_2  and  C_3
REMARK    3  A    between atoms: C_3  and  C_5
REMARK    4  A    between atoms: C_14  and  S_15
REMARK    5  A    between atoms: S_15  and  N_18
REMARK    6  A    between atoms: N_18  and  C_19
REMARK    7  A    between atoms: C_21  and  C_22
REMARK    8  A    between atoms: C_26  and  O_27
REMARK    9  A    between atoms: O_27  and  C_28
REMARK                            x       y       z     vdW  Elec       q    Type
REMARK                         _______ _______ _______ _____ _____    ______ ____
ROOT
ATOM      1  S   UNL     1       1.040   9.644  18.315  0.00  0.00    +0.000 S 
ATOM      2  O   UNL     1       0.551   8.904  17.176  0.00  0.00    +0.000 OA
ATOM      3  O   UNL     1       2.025  10.694  18.147  0.00  0.00    +0.000 OA
ENDROOT
BRANCH   1  13
ATOM      4  C   UNL     1      -0.189  11.291  20.141  0.00  0.00    +0.000 A 
ATOM      5  S   UNL     1      -1.601  12.164  20.508  0.00  0.00    +0.000 S 
ATOM      6  C   UNL     1      -2.434  11.561  19.149  0.00  0.00    +0.000 A 
ATOM      7  C   UNL     1      -3.773  11.881  18.832  0.00  0.00    +0.000 A 
ATOM      8  C   UNL     1      -4.349  11.347  17.692  0.00  0.00    +0.000 A 
ATOM      9  C   UNL     1      -3.598  10.527  16.869  0.00  0.00    +0.000 A 
ATOM     10  C   UNL     1      -2.273  10.217  17.192  0.00  0.00    +0.000 A 
ATOM     11  F   UNL     1      -1.640   9.413  16.332  0.00  0.00    +0.000 F 
ATOM     12  C   UNL     1      -1.639  10.710  18.365  0.00  0.00    +0.000 A 
ATOM     13  C   UNL     1      -0.321  10.545  18.973  0.00  0.00    +0.000 A 
BRANCH   4  14
ATOM     14  C   UNL     1       0.922  11.354  21.078  0.00  0.00    +0.000 C 
ATOM     15  O   UNL     1       1.689  12.307  21.166  0.00  0.00    +0.000 OA
BRANCH  14  17
ATOM     16  C   UNL     1       0.014   9.908  22.717  0.00  0.00    +0.000 C 
ATOM     17  O   UNL     1       1.045  10.182  21.764  0.00  0.00    +0.000 OA
ENDBRANCH  14  17
ENDBRANCH   4  14
ENDBRANCH   1  13
BRANCH   1  18
ATOM     18  N   UNL     1       1.642   8.566  19.461  0.00  0.00    +0.000 N 
ATOM     19  H   UNL     1       1.096   8.490  20.323  0.00  0.00    +0.000 HD
BRANCH  18  20
ATOM     20  C   UNL     1       2.469   7.466  19.072  0.00  0.00    +0.000 A 
ATOM     21  C   UNL     1       3.325   7.658  17.971  0.00  0.00    +0.000 A 
ATOM     22  C   UNL     1       4.083   6.594  17.432  0.00  0.00    +0.000 A 
ATOM     23  C   UNL     1       4.879   6.799  16.174  0.00  0.00    +0.000 C 
ATOM     24  C   UNL     1       4.019   5.341  18.050  0.00  0.00    +0.000 A 
ATOM     25 CL   UNL     1       4.924   3.989  17.467  0.00  0.00    +0.000 Cl
ATOM     26  C   UNL     1       3.178   5.144  19.140  0.00  0.00    +0.000 A 
ATOM     27  C   UNL     1       2.377   6.182  19.644  0.00  0.00    +0.000 A 
BRANCH  27  28
ATOM     28  O   UNL     1       1.527   5.703  20.602  0.00  0.00    +0.000 OA
ATOM     29  C   UNL     1       1.119   4.351  20.578  0.00  0.00    +0.000 C 
ENDBRANCH  27  28
ENDBRANCH  18  20
ENDBRANCH   1  18
TORSDOF 6
ENDMDL
MODEL 2
REMARK VINA RESULT:      -7.2      0.455      1.058
REMARK  Name = 
REMARK  9 active torsions:
REMARK  status: ('A' for Active; 'I' for Inactive)
REMARK    1  A    between atoms: C_1  and  O_2
REMARK    2  A    between atoms: O_2  and  C_3
REMARK    3  A    between atoms: C_3  and  C_5
REMARK    4  A    between atoms: C_14  and  S_15
REMARK    5  A    between atoms: S_15  and  N_18
REMARK    6  A    between atoms: N_18  and  C_19
REMARK    7  A    between atoms: C_21  and  C_22
REMARK    8  A    between atoms: C_26  and  O_27
REMARK    9  A    between atoms: O_27  and  C_28
REMARK                            x       y       z     vdW  Elec       q    Type
REMARK                         _______ _______ _______ _____ _____    ______ ____
ROOT
ATOM      1  S   UNL     1       1.068   9.610  18.305  0.00  0.00    +0.000 S 
ATOM      2  O   UNL     1       0.559   8.861  17.181  0.00  0.00    +0.000 OA
ATOM      3  O   UNL     1       2.041  10.666  18.111  0.00  0.00    +0.000 OA
ENDROOT
BRANCH   1  13
ATOM      4  C   UNL     1      -0.150  11.208  20.183  0.00  0.00    +0.000 A 
ATOM      5  S   UNL     1      -1.552  12.086  20.573  0.00  0.00    +0.000 S 
ATOM      6  C   UNL     1      -2.385  11.544  19.189  0.00  0.00    +0.000 A 
ATOM      7  C   UNL     1      -3.718  11.893  18.876  0.00  0.00    +0.000 A 
ATOM      8  C   UNL     1      -4.295  11.409  17.715  0.00  0.00    +0.000 A 
ATOM      9  C   UNL     1      -3.550  10.608  16.867  0.00  0.00    +0.000 A 
ATOM     10  C   UNL     1      -2.231  10.269  17.185  0.00  0.00    +0.000 A 
ATOM     11  F   UNL     1      -1.604   9.487  16.301  0.00  0.00    +0.000 F 
ATOM     12  C   UNL     1      -1.597  10.711  18.379  0.00  0.00    +0.000 A 
ATOM     13  C   UNL     1      -0.285  10.505  18.988  0.00  0.00    +0.000 A 
BRANCH   4  14
ATOM     14  C   UNL     1       0.957  11.222  21.128  0.00  0.00    +0.000 C 
ATOM     15  O   UNL     1       1.376  10.224  21.703  0.00  0.00    +0.000 OA
BRANCH  14  17
ATOM     16  C   UNL     1       2.064  13.124  20.258  0.00  0.00    +0.000 C 
ATOM     17  O   UNL     1       1.388  12.497  21.350  0.00  0.00    +0.000 OA
ENDBRANCH  14  17
ENDBRANCH   4  14
ENDBRANCH   1  13
BRANCH   1  18
ATOM     18  N   UNL     1       1.701   8.543  19.444  0.00  0.00    +0.000 N 
ATOM     19  H   UNL     1       1.189   8.488  20.328  0.00  0.00    +0.000 HD
BRANCH  18  20
ATOM     20  C   UNL     1       2.498   7.426  19.040  0.00  0.00    +0.000 A 
ATOM     21  C   UNL     1       3.368   7.612  17.950  0.00  0.00    +0.000 A 
ATOM     22  C   UNL     1       4.098   6.536  17.396  0.00  0.00    +0.000 A 
ATOM     23  C   UNL     1       4.911   6.740  16.148  0.00  0.00    +0.000 C 
ATOM     24  C   UNL     1       3.991   5.274  17.990  0.00  0.00    +0.000 A 
ATOM     25 CL   UNL     1       4.859   3.906  17.387  0.00  0.00    +0.000 Cl
ATOM     26  C   UNL     1       3.136   5.082  19.069  0.00  0.00    +0.000 A 
ATOM     27  C   UNL     1       2.362   6.134  19.587  0.00  0.00    +0.000 A 
BRANCH  27  28
ATOM     28  O   UNL     1       1.490   5.663  20.529  0.00  0.00    +0.000 OA
ATOM     29  C   UNL     1       1.478   4.291  20.863  0.00  0.00    +0.000 C 
ENDBRANCH  27  28
ENDBRANCH  18  20
ENDBRANCH   1  18
TORSDOF 6
ENDMDL
MODEL 3
REMARK VINA RESULT:      -7.2      4.298      6.522
REMARK  Name = 
REMARK  9 active torsions:
REMARK  status: ('A' for Active; 'I' for Inactive)
REMARK    1  A    between atoms: C_1  and  O_2
REMARK    2  A    between atoms: O_2  and  C_3
REMARK    3  A    between atoms: C_3  and  C_5
REMARK    4  A    between atoms: C_14  and  S_15
REMARK    5  A    between atoms: S_15  and  N_18
REMARK    6  A    between atoms: N_18  and  C_19
REMARK    7  A    between atoms: C_21  and  C_22
REMARK    8  A    between atoms: C_26  and  O_27
REMARK    9  A    between atoms: O_27  and  C_28
REMARK                            x       y       z     vdW  Elec       q    Type
REMARK                         _______ _______ _______ _____ _____    ______ ____
ROOT
ATOM      1  S   UNL     1       4.382   6.280  17.526  0.00  0.00    +0.000 S 
ATOM      2  O   UNL     1       3.770   7.168  16.567  0.00  0.00    +0.000 OA
ATOM      3  O   UNL     1       5.597   6.662  18.218  0.00  0.00    +0.000 OA
ENDROOT
BRANCH   1  13
ATOM      4  C   UNL     1       3.199   4.931  19.610  0.00  0.00    +0.000 A 
ATOM      5  S   UNL     1       2.124   5.051  20.921  0.00  0.00    +0.000 S 
ATOM      6  C   UNL     1       1.686   6.651  20.532  0.00  0.00    +0.000 A 
ATOM      7  C   UNL     1       0.737   7.413  21.250  0.00  0.00    +0.000 A 
ATOM      8  C   UNL     1       0.468   8.712  20.857  0.00  0.00    +0.000 A 
ATOM      9  C   UNL     1       1.146   9.252  19.780  0.00  0.00    +0.000 A 
ATOM     10  C   UNL     1       2.085   8.490  19.075  0.00  0.00    +0.000 A 
ATOM     11  F   UNL     1       2.679   9.107  18.049  0.00  0.00    +0.000 F 
ATOM     12  C   UNL     1       2.380   7.142  19.414  0.00  0.00    +0.000 A 
ATOM     13  C   UNL     1       3.256   6.108  18.868  0.00  0.00    +0.000 A 
BRANCH   4  14
ATOM     14  C   UNL     1       3.853   3.654  19.370  0.00  0.00    +0.000 C 
ATOM     15  O   UNL     1       5.048   3.453  19.554  0.00  0.00    +0.000 OA
BRANCH  14  17
ATOM     16  C   UNL     1       3.571   1.625  18.183  0.00  0.00    +0.000 C 
ATOM     17  O   UNL     1       2.980   2.756  18.828  0.00  0.00    +0.000 OA
ENDBRANCH  14  17
ENDBRANCH   4  14
ENDBRANCH   1  13
BRANCH   1  18
ATOM     18  N   UNL     1       4.664   4.785  16.800  0.00  0.00    +0.000 N 
ATOM     19  H   UNL     1       3.995   4.049  17.036  0.00  0.00    +0.000 HD
BRANCH  18  20
ATOM     20  C   UNL     1       5.382   4.692  15.567  0.00  0.00    +0.000 A 
ATOM     21  C   UNL     1       4.682   4.214  14.444  0.00  0.00    +0.000 A 
ATOM     22  C   UNL     1       5.337   3.964  13.217  0.00  0.00    +0.000 A 
ATOM     23  C   UNL     1       4.588   3.326  12.080  0.00  0.00    +0.000 C 
ATOM     24  C   UNL     1       6.700   4.257  13.110  0.00  0.00    +0.000 A 
ATOM     25 CL   UNL     1       7.577   3.996  11.643  0.00  0.00    +0.000 Cl
ATOM     26  C   UNL     1       7.399   4.731  14.214  0.00  0.00    +0.000 A 
ATOM     27  C   UNL     1       6.767   4.926  15.453  0.00  0.00    +0.000 A 
BRANCH  27  28
ATOM     28  O   UNL     1       7.689   5.239  16.413  0.00  0.00    +0.000 OA
ATOM     29  C   UNL     1       7.807   4.440  17.572  0.00  0.00    +0.000 C 
ENDBRANCH  27  28
ENDBRANCH  18  20
ENDBRANCH   1  18
TORSDOF 6
ENDMDL
MODEL 4
REMARK VINA RESULT:      -7.2      2.539      4.145
REMARK  Name = 
REMARK  9 active torsions:
REMARK  status: ('A' for Active; 'I' for Inactive)
REMARK    1  A    between atoms: C_1  and  O_2
REMARK    2  A    between atoms: O_2  and  C_3
REMARK    3  A    between atoms: C_3  and  C_5
REMARK    4  A    between atoms: C_14  and  S_15
REMARK    5  A    between atoms: S_15  and  N_18
REMARK    6  A    between atoms: N_18  and  C_19
REMARK    7  A    between atoms: C_21  and  C_22
REMARK    8  A    between atoms: C_26  and  O_27
REMARK    9  A    between atoms: O_27  and  C_28
REMARK                            x       y       z     vdW  Elec       q    Type
REMARK                         _______ _______ _______ _____ _____    ______ ____
ROOT
ATOM      1  S   UNL     1       1.029   8.619  21.253  0.00  0.00    +0.000 S 
ATOM      2  O   UNL     1       1.710   8.969  22.477  0.00  0.00    +0.000 OA
ATOM      3  O   UNL     1      -0.039   7.640  21.254  0.00  0.00    +0.000 OA
ENDROOT
BRANCH   1  13
ATOM      4  C   UNL     1       0.255  10.470  19.372  0.00  0.00    +0.000 A 
ATOM      5  S   UNL     1      -0.740  11.812  19.058  0.00  0.00    +0.000 S 
ATOM      6  C   UNL     1      -1.277  11.904  20.673  0.00  0.00    +0.000 A 
ATOM      7  C   UNL     1      -2.171  12.884  21.158  0.00  0.00    +0.000 A 
ATOM      8  C   UNL     1      -2.556  12.857  22.488  0.00  0.00    +0.000 A 
ATOM      9  C   UNL     1      -2.075  11.859  23.316  0.00  0.00    +0.000 A 
ATOM     10  C   UNL     1      -1.190  10.892  22.825  0.00  0.00    +0.000 A 
ATOM     11  F   UNL     1      -0.784   9.977  23.710  0.00  0.00    +0.000 F 
ATOM     12  C   UNL     1      -0.737  10.888  21.478  0.00  0.00    +0.000 A 
ATOM     13  C   UNL     1       0.182  10.060  20.700  0.00  0.00    +0.000 A 
BRANCH   4  14
ATOM     14  C   UNL     1       1.092   9.967  18.293  0.00  0.00    +0.000 C 
ATOM     15  O   UNL     1       0.737   9.104  17.498  0.00  0.00    +0.000 OA
BRANCH  14  17
ATOM     16  C   UNL     1       2.433  11.895  18.003  0.00  0.00    +0.000 C 
ATOM     17  O   UNL     1       2.341  10.512  18.354  0.00  0.00    +0.000 OA
ENDBRANCH  14  17
ENDBRANCH   4  14
ENDBRANCH   1  13
BRANCH   1  18
ATOM     18  N   UNL     1       2.163   8.129  20.107  0.00  0.00    +0.000 N 
ATOM     19  H   UNL     1       2.982   8.734  20.011  0.00  0.00    +0.000 HD
BRANCH  18  20
ATOM     20  C   UNL     1       2.274   6.755  19.726  0.00  0.00    +0.000 A 
ATOM     21  C   UNL     1       1.848   5.789  20.657  0.00  0.00    +0.000 A 
ATOM     22  C   UNL     1       2.039   4.407  20.427  0.00  0.00    +0.000 A 
ATOM     23  C   UNL     1       1.698   3.411  21.499  0.00  0.00    +0.000 C 
ATOM     24  C   UNL     1       2.610   3.999  19.217  0.00  0.00    +0.000 A 
ATOM     25 CL   UNL     1       2.866   2.331  18.846  0.00  0.00    +0.000 Cl
ATOM     26  C   UNL     1       3.031   4.947  18.291  0.00  0.00    +0.000 A 
ATOM     27  C   UNL     1       2.899   6.323  18.539  0.00  0.00    +0.000 A 
BRANCH  27  28
ATOM     28  O   UNL     1       3.528   7.045  17.562  0.00  0.00    +0.000 OA
ATOM     29  C   UNL     1       4.624   6.491  16.865  0.00  0.00    +0.000 C 
ENDBRANCH  27  28
ENDBRANCH  18  20
ENDBRANCH   1  18
TORSDOF 6
ENDMDL
MODEL 5
REMARK VINA RESULT:      -7.2      1.129      2.444
REMARK  Name = 
REMARK  9 active torsions:
REMARK  status: ('A' for Active; 'I' for Inactive)
REMARK    1  A    between atoms: C_1  and  O_2
REMARK    2  A    between atoms: O_2  and  C_3
REMARK    3  A    between atoms: C_3  and  C_5
REMARK    4  A    between atoms: C_14  and  S_15
REMARK    5  A    between atoms: S_15  and  N_18
REMARK    6  A    between atoms: N_18  and  C_19
REMARK    7  A    between atoms: C_21  and  C_22
REMARK    8  A    between atoms: C_26  and  O_27
REMARK    9  A    between atoms: O_27  and  C_28
REMARK                            x       y       z     vdW  Elec       q    Type
REMARK                         _______ _______ _______ _____ _____    ______ ____
ROOT
ATOM      1  S   UNL     1       1.182   9.471  18.404  0.00  0.00    +0.000 S 
ATOM      2  O   UNL     1       0.703   8.608  17.351  0.00  0.00    +0.000 OA
ATOM      3  O   UNL     1       2.141  10.520  18.122  0.00  0.00    +0.000 OA
ENDROOT
BRANCH   1  13
ATOM      4  C   UNL     1      -0.107  11.176  20.134  0.00  0.00    +0.000 A 
ATOM      5  S   UNL     1      -1.523  12.074  20.416  0.00  0.00    +0.000 S 
ATOM      6  C   UNL     1      -2.301  11.450  19.035  0.00  0.00    +0.000 A 
ATOM      7  C   UNL     1      -3.620  11.778  18.649  0.00  0.00    +0.000 A 
ATOM      8  C   UNL     1      -4.151  11.225  17.497  0.00  0.00    +0.000 A 
ATOM      9  C   UNL     1      -3.375  10.376  16.728  0.00  0.00    +0.000 A 
ATOM     10  C   UNL     1      -2.069  10.058  17.118  0.00  0.00    +0.000 A 
ATOM     11  F   UNL     1      -1.409   9.226  16.307  0.00  0.00    +0.000 F 
ATOM     12  C   UNL     1      -1.483  10.571  18.307  0.00  0.00    +0.000 A 
ATOM     13  C   UNL     1      -0.196  10.404  18.979  0.00  0.00    +0.000 A 
BRANCH   4  14
ATOM     14  C   UNL     1       0.961  11.247  21.119  0.00  0.00    +0.000 C 
ATOM     15  O   UNL     1       1.350  10.288  21.775  0.00  0.00    +0.000 OA
BRANCH  14  17
ATOM     16  C   UNL     1       2.135  13.076  20.181  0.00  0.00    +0.000 C 
ATOM     17  O   UNL     1       1.392  12.532  21.275  0.00  0.00    +0.000 OA
ENDBRANCH  14  17
ENDBRANCH   4  14
ENDBRANCH   1  13
BRANCH   1  18
ATOM     18  N   UNL     1       1.815   8.529  19.649  0.00  0.00    +0.000 N 
ATOM     19  H   UNL     1       1.539   8.807  20.594  0.00  0.00    +0.000 HD
BRANCH  18  20
ATOM     20  C   UNL     1       2.208   7.174  19.418  0.00  0.00    +0.000 A 
ATOM     21  C   UNL     1       1.753   6.203  20.330  0.00  0.00    +0.000 A 
ATOM     22  C   UNL     1       2.192   4.862  20.261  0.00  0.00    +0.000 A 
ATOM     23  C   UNL     1       1.795   3.883  21.331  0.00  0.00    +0.000 C 
ATOM     24  C   UNL     1       3.052   4.488  19.223  0.00  0.00    +0.000 A 
ATOM     25 CL   UNL     1       3.626   2.866  19.054  0.00  0.00    +0.000 Cl
ATOM     26  C   UNL     1       3.503   5.440  18.316  0.00  0.00    +0.000 A 
ATOM     27  C   UNL     1       3.118   6.787  18.415  0.00  0.00    +0.000 A 
BRANCH  27  28
ATOM     28  O   UNL     1       3.815   7.547  17.517  0.00  0.00    +0.000 OA
ATOM     29  C   UNL     1       4.820   6.959  16.718  0.00  0.00    +0.000 C 
ENDBRANCH  27  28
ENDBRANCH  18  20
ENDBRANCH   1  18
TORSDOF 6
ENDMDL
MODEL 6
REMARK VINA RESULT:      -7.1      5.160      6.931
REMARK  Name = 
REMARK  9 active torsions:
REMARK  status: ('A' for Active; 'I' for Inactive)
REMARK    1  A    between atoms: C_1  and  O_2
REMARK    2  A    between atoms: O_2  and  C_3
REMARK    3  A    between atoms: C_3  and  C_5
REMARK    4  A    between atoms: C_14  and  S_15
REMARK    5  A    between atoms: S_15  and  N_18
REMARK    6  A    between atoms: N_18  and  C_19
REMARK    7  A    between atoms: C_21  and  C_22
REMARK    8  A    between atoms: C_26  and  O_27
REMARK    9  A    between atoms: O_27  and  C_28
REMARK                            x       y       z     vdW  Elec       q    Type
REMARK                         _______ _______ _______ _____ _____    ______ ____
ROOT
ATOM      1  S   UNL     1       4.003   3.333  17.974  0.00  0.00    +0.000 S 
ATOM      2  O   UNL     1       3.953   2.065  18.663  0.00  0.00    +0.000 OA
ATOM      3  O   UNL     1       3.364   3.500  16.684  0.00  0.00    +0.000 OA
ENDROOT
BRANCH   1  13
ATOM      4  C   UNL     1       2.575   4.128  20.185  0.00  0.00    +0.000 A 
ATOM      5  S   UNL     1       1.872   5.446  20.995  0.00  0.00    +0.000 S 
ATOM      6  C   UNL     1       2.239   6.532  19.735  0.00  0.00    +0.000 A 
ATOM      7  C   UNL     1       1.889   7.901  19.737  0.00  0.00    +0.000 A 
ATOM      8  C   UNL     1       2.252   8.699  18.666  0.00  0.00    +0.000 A 
ATOM      9  C   UNL     1       2.971   8.149  17.619  0.00  0.00    +0.000 A 
ATOM     10  C   UNL     1       3.313   6.793  17.627  0.00  0.00    +0.000 A 
ATOM     11  F   UNL     1       4.003   6.364  16.565  0.00  0.00    +0.000 F 
ATOM     12  C   UNL     1       2.941   5.919  18.684  0.00  0.00    +0.000 A 
ATOM     13  C   UNL     1       3.115   4.494  18.955  0.00  0.00    +0.000 A 
BRANCH   4  14
ATOM     14  C   UNL     1       2.475   2.811  20.797  0.00  0.00    +0.000 C 
ATOM     15  O   UNL     1       3.388   2.273  21.413  0.00  0.00    +0.000 OA
BRANCH  14  17
ATOM     16  C   UNL     1       0.658   2.655  19.289  0.00  0.00    +0.000 C 
ATOM     17  O   UNL     1       1.274   2.232  20.507  0.00  0.00    +0.000 OA
ENDBRANCH  14  17
ENDBRANCH   4  14
ENDBRANCH   1  13
BRANCH   1  18
ATOM     18  N   UNL     1       5.610   3.812  17.807  0.00  0.00    +0.000 N 
ATOM     19  H   UNL     1       6.265   3.393  18.472  0.00  0.00    +0.000 HD
BRANCH  18  20
ATOM     20  C   UNL     1       6.109   4.282  16.552  0.00  0.00    +0.000 A 
ATOM     21  C   UNL     1       5.622   3.660  15.388  0.00  0.00    +0.000 A 
ATOM     22  C   UNL     1       6.150   3.964  14.112  0.00  0.00    +0.000 A 
ATOM     23  C   UNL     1       5.704   3.184  12.907  0.00  0.00    +0.000 C 
ATOM     24  C   UNL     1       7.137   4.950  14.010  0.00  0.00    +0.000 A 
ATOM     25 CL   UNL     1       7.827   5.395  12.489  0.00  0.00    +0.000 Cl
ATOM     26  C   UNL     1       7.622   5.571  15.156  0.00  0.00    +0.000 A 
ATOM     27  C   UNL     1       7.144   5.231  16.432  0.00  0.00    +0.000 A 
BRANCH  27  28
ATOM     28  O   UNL     1       7.883   5.855  17.398  0.00  0.00    +0.000 OA
ATOM     29  C   UNL     1       7.424   7.058  17.978  0.00  0.00    +0.000 C 
ENDBRANCH  27  28
ENDBRANCH  18  20
ENDBRANCH   1  18
TORSDOF 6
ENDMDL
MODEL 7
REMARK VINA RESULT:      -7.0      2.618      3.608
REMARK  Name = 
REMARK  9 active torsions:
REMARK  status: ('A' for Active; 'I' for Inactive)
REMARK    1  A    between atoms: C_1  and  O_2
REMARK    2  A    between atoms: O_2  and  C_3
REMARK    3  A    between atoms: C_3  and  C_5
REMARK    4  A    between atoms: C_14  and  S_15
REMARK    5  A    between atoms: S_15  and  N_18
REMARK    6  A    between atoms: N_18  and  C_19
REMARK    7  A    between atoms: C_21  and  C_22
REMARK    8  A    between atoms: C_26  and  O_27
REMARK    9  A    between atoms: O_27  and  C_28
REMARK                            x       y       z     vdW  Elec       q    Type
REMARK                         _______ _______ _______ _____ _____    ______ ____
ROOT
ATOM      1  S   UNL     1      -1.760  11.327  18.565  0.00  0.00    +0.000 S 
ATOM      2  O   UNL     1      -2.149   9.951  18.371  0.00  0.00    +0.000 OA
ATOM      3  O   UNL     1      -1.559  12.207  17.431  0.00  0.00    +0.000 OA
ENDROOT
BRANCH   1  13
ATOM      4  C   UNL     1      -2.844  13.058  20.407  0.00  0.00    +0.000 A 
ATOM      5  S   UNL     1      -4.274  13.782  20.972  0.00  0.00    +0.000 S 
ATOM      6  C   UNL     1      -5.257  12.874  19.917  0.00  0.00    +0.000 A 
ATOM      7  C   UNL     1      -6.666  12.961  19.871  0.00  0.00    +0.000 A 
ATOM      8  C   UNL     1      -7.368  12.188  18.962  0.00  0.00    +0.000 A 
ATOM      9  C   UNL     1      -6.676  11.358  18.098  0.00  0.00    +0.000 A 
ATOM     10  C   UNL     1      -5.281  11.279  18.150  0.00  0.00    +0.000 A 
ATOM     11  F   UNL     1      -4.714  10.443  17.275  0.00  0.00    +0.000 F 
ATOM     12  C   UNL     1      -4.510  12.025  19.083  0.00  0.00    +0.000 A 
ATOM     13  C   UNL     1      -3.087  12.130  19.397  0.00  0.00    +0.000 A 
BRANCH   4  14
ATOM     14  C   UNL     1      -1.591  13.410  21.057  0.00  0.00    +0.000 C 
ATOM     15  O   UNL     1      -0.753  14.158  20.566  0.00  0.00    +0.000 OA
BRANCH  14  17
ATOM     16  C   UNL     1      -1.280  13.522  23.401  0.00  0.00    +0.000 C 
ATOM     17  O   UNL     1      -1.441  12.723  22.226  0.00  0.00    +0.000 OA
ENDBRANCH  14  17
ENDBRANCH   4  14
ENDBRANCH   1  13
BRANCH   1  18
ATOM     18  N   UNL     1      -0.360  11.383  19.501  0.00  0.00    +0.000 N 
ATOM     19  H   UNL     1      -0.321  12.139  20.189  0.00  0.00    +0.000 HD
BRANCH  18  20
ATOM     20  C   UNL     1       0.418  10.205  19.727  0.00  0.00    +0.000 A 
ATOM     21  C   UNL     1       1.228   9.751  18.670  0.00  0.00    +0.000 A 
ATOM     22  C   UNL     1       1.932   8.528  18.751  0.00  0.00    +0.000 A 
ATOM     23  C   UNL     1       2.677   8.006  17.554  0.00  0.00    +0.000 C 
ATOM     24  C   UNL     1       1.862   7.789  19.937  0.00  0.00    +0.000 A 
ATOM     25 CL   UNL     1       2.703   6.291  20.129  0.00  0.00    +0.000 Cl
ATOM     26  C   UNL     1       1.067   8.232  20.988  0.00  0.00    +0.000 A 
ATOM     27  C   UNL     1       0.318   9.417  20.891  0.00  0.00    +0.000 A 
BRANCH  27  28
ATOM     28  O   UNL     1      -0.501   9.551  21.978  0.00  0.00    +0.000 OA
ATOM     29  C   UNL     1       0.034   9.481  23.283  0.00  0.00    +0.000 C 
ENDBRANCH  27  28
ENDBRANCH  18  20
ENDBRANCH   1  18
TORSDOF 6
ENDMDL
MODEL 8
REMARK VINA RESULT:      -6.9      5.216      7.059
REMARK  Name = 
REMARK  9 active torsions:
REMARK  status: ('A' for Active; 'I' for Inactive)
REMARK    1  A    between atoms: C_1  and  O_2
REMARK    2  A    between atoms: O_2  and  C_3
REMARK    3  A    between atoms: C_3  and  C_5
REMARK    4  A    between atoms: C_14  and  S_15
REMARK    5  A    between atoms: S_15  and  N_18
REMARK    6  A    between atoms: N_18  and  C_19
REMARK    7  A    between atoms: C_21  and  C_22
REMARK    8  A    between atoms: C_26  and  O_27
REMARK    9  A    between atoms: O_27  and  C_28
REMARK                            x       y       z     vdW  Elec       q    Type
REMARK                         _______ _______ _______ _____ _____    ______ ____
ROOT
ATOM      1  S   UNL     1       3.762   3.322  17.523  0.00  0.00    +0.000 S 
ATOM      2  O   UNL     1       3.604   1.977  18.023  0.00  0.00    +0.000 OA
ATOM      3  O   UNL     1       3.162   3.719  16.265  0.00  0.00    +0.000 OA
ENDROOT
BRANCH   1  13
ATOM      4  C   UNL     1       2.387   3.907  19.831  0.00  0.00    +0.000 A 
ATOM      5  S   UNL     1       1.762   5.149  20.809  0.00  0.00    +0.000 S 
ATOM      6  C   UNL     1       2.188   6.364  19.694  0.00  0.00    +0.000 A 
ATOM      7  C   UNL     1       1.916   7.739  19.874  0.00  0.00    +0.000 A 
ATOM      8  C   UNL     1       2.322   8.646  18.911  0.00  0.00    +0.000 A 
ATOM      9  C   UNL     1       3.005   8.195  17.796  0.00  0.00    +0.000 A 
ATOM     10  C   UNL     1       3.270   6.831  17.627  0.00  0.00    +0.000 A 
ATOM     11  F   UNL     1       3.932   6.504  16.513  0.00  0.00    +0.000 F 
ATOM     12  C   UNL     1       2.851   5.852  18.567  0.00  0.00    +0.000 A 
ATOM     13  C   UNL     1       2.944   4.396  18.653  0.00  0.00    +0.000 A 
BRANCH   4  14
ATOM     14  C   UNL     1       2.213   2.531  20.271  0.00  0.00    +0.000 C 
ATOM     15  O   UNL     1       1.373   1.767  19.809  0.00  0.00    +0.000 OA
BRANCH  14  17
ATOM     16  C   UNL     1       4.421   2.084  20.996  0.00  0.00    +0.000 C 
ATOM     17  O   UNL     1       3.038   2.249  21.320  0.00  0.00    +0.000 OA
ENDBRANCH  14  17
ENDBRANCH   4  14
ENDBRANCH   1  13
BRANCH   1  18
ATOM     18  N   UNL     1       5.403   3.696  17.440  0.00  0.00    +0.000 N 
ATOM     19  H   UNL     1       6.001   3.196  18.101  0.00  0.00    +0.000 HD
BRANCH  18  20
ATOM     20  C   UNL     1       5.981   4.199  16.233  0.00  0.00    +0.000 A 
ATOM     21  C   UNL     1       5.548   3.629  15.021  0.00  0.00    +0.000 A 
ATOM     22  C   UNL     1       6.153   3.966  13.789  0.00  0.00    +0.000 A 
ATOM     23  C   UNL     1       5.761   3.238  12.534  0.00  0.00    +0.000 C 
ATOM     24  C   UNL     1       7.163   4.934  13.778  0.00  0.00    +0.000 A 
ATOM     25 CL   UNL     1       7.946   5.418  12.315  0.00  0.00    +0.000 Cl
ATOM     26  C   UNL     1       7.594   5.504  14.970  0.00  0.00    +0.000 A 
ATOM     27  C   UNL     1       7.039   5.129  16.205  0.00  0.00    +0.000 A 
BRANCH  27  28
ATOM     28  O   UNL     1       7.734   5.704  17.233  0.00  0.00    +0.000 OA
ATOM     29  C   UNL     1       7.250   6.878  17.849  0.00  0.00    +0.000 C 
ENDBRANCH  27  28
ENDBRANCH  18  20
ENDBRANCH   1  18
TORSDOF 6
ENDMDL
MODEL 9
REMARK VINA RESULT:      -6.9      1.071      1.580
REMARK  Name = 
REMARK  9 active torsions:
REMARK  status: ('A' for Active; 'I' for Inactive)
REMARK    1  A    between atoms: C_1  and  O_2
REMARK    2  A    between atoms: O_2  and  C_3
REMARK    3  A    between atoms: C_3  and  C_5
REMARK    4  A    between atoms: C_14  and  S_15
REMARK    5  A    between atoms: S_15  and  N_18
REMARK    6  A    between atoms: N_18  and  C_19
REMARK    7  A    between atoms: C_21  and  C_22
REMARK    8  A    between atoms: C_26  and  O_27
REMARK    9  A    between atoms: O_27  and  C_28
REMARK                            x       y       z     vdW  Elec       q    Type
REMARK                         _______ _______ _______ _____ _____    ______ ____
ROOT
ATOM      1  S   UNL     1       1.147  10.084  19.459  0.00  0.00    +0.000 S 
ATOM      2  O   UNL     1       2.027  10.999  18.773  0.00  0.00    +0.000 OA
ATOM      3  O   UNL     1       1.350   9.772  20.859  0.00  0.00    +0.000 OA
ENDROOT
BRANCH   1  13
ATOM      4  C   UNL     1      -0.800  11.723  20.500  0.00  0.00    +0.000 A 
ATOM      5  S   UNL     1      -2.343  12.393  20.253  0.00  0.00    +0.000 S 
ATOM      6  C   UNL     1      -2.600  11.500  18.825  0.00  0.00    +0.000 A 
ATOM      7  C   UNL     1      -3.783  11.555  18.054  0.00  0.00    +0.000 A 
ATOM      8  C   UNL     1      -3.881  10.799  16.899  0.00  0.00    +0.000 A 
ATOM      9  C   UNL     1      -2.810  10.016  16.506  0.00  0.00    +0.000 A 
ATOM     10  C   UNL     1      -1.643   9.968  17.275  0.00  0.00    +0.000 A 
ATOM     11  F   UNL     1      -0.673   9.177  16.806  0.00  0.00    +0.000 F 
ATOM     12  C   UNL     1      -1.497  10.699  18.485  0.00  0.00    +0.000 A 
ATOM     13  C   UNL     1      -0.449  10.826  19.495  0.00  0.00    +0.000 A 
BRANCH   4  14
ATOM     14  C   UNL     1      -0.081  12.081  21.713  0.00  0.00    +0.000 C 
ATOM     15  O   UNL     1      -0.393  11.691  22.833  0.00  0.00    +0.000 OA
BRANCH  14  17
ATOM     16  C   UNL     1       0.645  14.332  21.798  0.00  0.00    +0.000 C 
ATOM     17  O   UNL     1       0.914  12.974  21.442  0.00  0.00    +0.000 OA
ENDBRANCH  14  17
ENDBRANCH   4  14
ENDBRANCH   1  13
BRANCH   1  18
ATOM     18  N   UNL     1       1.097   8.624  18.619  0.00  0.00    +0.000 N 
ATOM     19  H   UNL     1       0.441   8.590  17.835  0.00  0.00    +0.000 HD
BRANCH  18  20
ATOM     20  C   UNL     1       2.223   7.742  18.613  0.00  0.00    +0.000 A 
ATOM     21  C   UNL     1       3.113   7.836  17.527  0.00  0.00    +0.000 A 
ATOM     22  C   UNL     1       4.179   6.922  17.365  0.00  0.00    +0.000 A 
ATOM     23  C   UNL     1       5.027   6.966  16.124  0.00  0.00    +0.000 C 
ATOM     24  C   UNL     1       4.381   5.943  18.344  0.00  0.00    +0.000 A 
ATOM     25 CL   UNL     1       5.669   4.796  18.234  0.00  0.00    +0.000 Cl
ATOM     26  C   UNL     1       3.508   5.846  19.421  0.00  0.00    +0.000 A 
ATOM     27  C   UNL     1       2.411   6.713  19.556  0.00  0.00    +0.000 A 
BRANCH  27  28
ATOM     28  O   UNL     1       1.618   6.316  20.597  0.00  0.00    +0.000 OA
ATOM     29  C   UNL     1       1.379   4.943  20.825  0.00  0.00    +0.000 C 
ENDBRANCH  27  28
ENDBRANCH  18  20
ENDBRANCH   1  18
TORSDOF 6
ENDMDL
