MODEL 1
REMARK VINA RESULT:      -6.2      0.000      0.000
REMARK  Name = 
REMARK  11 active torsions:
REMARK  status: ('A' for Active; 'I' for Inactive)
REMARK    1  A    between atoms: C_1  and  C_2
REMARK    2  A    between atoms: C_2  and  N_3
REMARK    3  A    between atoms: N_3  and  C_4
REMARK    4  A    between atoms: N_3  and  C_6
REMARK    5  A    between atoms: C_4  and  C_5
REMARK    6  A    between atoms: C_6  and  C_7
REMARK    7  A    between atoms: C_7  and  N_8
REMARK    8  A    between atoms: N_8  and  C_9
REMARK    9  A    between atoms: C_10  and  O_11
REMARK   10  A    between atoms: O_11  and  C_12
REMARK   11  A    between atoms: C_14  and  C_15
REMARK                            x       y       z     vdW  Elec       q    Type
REMARK                         _______ _______ _______ _____ _____    ______ ____
ROOT
ATOM      1  C   UNL     1       0.786  11.548  19.291  0.00  0.00    +0.000 A 
ATOM      2  C   UNL     1      -0.136  12.192  20.173  0.00  0.00    +0.000 A 
ATOM      3  C   UNL     1      -0.491  11.603  21.387  0.00  0.00    +0.000 A 
ATOM      4  C   UNL     1      -0.037  10.338  21.737  0.00  0.00    +0.000 A 
ATOM      5  C   UNL     1      -0.425   9.817  23.107  0.00  0.00    +0.000 C 
ATOM      6  C   UNL     1       0.713   9.584  20.803  0.00  0.00    +0.000 A 
ATOM      7  S   UNL     1       1.089   7.930  21.338  0.00  0.00    +0.000 S 
ATOM      8  C   UNL     1       1.918   7.193  19.991  0.00  0.00    +0.000 A 
ATOM      9  C   UNL     1       2.304   5.849  20.184  0.00  0.00    +0.000 A 
ATOM     10  C   UNL     1       2.960   5.140  19.185  0.00  0.00    +0.000 A 
ATOM     11  C   UNL     1       3.226   5.776  17.980  0.00  0.00    +0.000 A 
ATOM     12  C   UNL     1       2.842   7.116  17.785  0.00  0.00    +0.000 A 
ATOM     13  C   UNL     1       2.191   7.851  18.794  0.00  0.00    +0.000 A 
ATOM     14  C   UNL     1       1.825   9.291  18.541  0.00  0.00    +0.000 A 
ATOM     15  O   UNL     1       2.103   9.764  17.435  0.00  0.00    +0.000 OA
ATOM     16  C   UNL     1       1.106  10.162  19.571  0.00  0.00    +0.000 A 
ENDROOT
BRANCH   1  17
ATOM     17  N   UNL     1       1.286  12.249  18.160  0.00  0.00    +0.000 N 
ATOM     18  H   UNL     1       1.086  11.733  17.298  0.00  0.00    +0.000 HD
BRANCH  17  19
ATOM     19  C   UNL     1       2.621  12.941  18.191  0.00  0.00    +0.000 C 
BRANCH  19  20
ATOM     20  C   UNL     1       2.500  14.486  18.176  0.00  0.00    +0.000 C 
BRANCH  20  21
ATOM     21  N   UNL     1       3.407  15.416  17.454  0.00  0.00    +0.000 NA
BRANCH  21  23
ATOM     22  C   UNL     1       1.673  17.192  18.054  0.00  0.00    +0.000 C 
ATOM     23  C   UNL     1       3.032  16.837  17.458  0.00  0.00    +0.000 C 
ENDBRANCH  21  23
BRANCH  21  24
ATOM     24  C   UNL     1       4.811  15.226  17.864  0.00  0.00    +0.000 C 
ATOM     25  C   UNL     1       5.266  16.227  18.929  0.00  0.00    +0.000 C 
ENDBRANCH  21  24
ENDBRANCH  20  21
ENDBRANCH  19  20
ENDBRANCH  17  19
ENDBRANCH   1  17
BRANCH   2  26
ATOM     26  O   UNL     1      -0.689  13.372  19.752  0.00  0.00    +0.000 OA
ATOM     27  C   UNL     1      -1.854  13.853  20.426  0.00  0.00    +0.000 C 
ENDBRANCH   2  26
TORSDOF 7
ENDMDL
MODEL 2
REMARK VINA RESULT:      -6.2      1.248      1.570
REMARK  Name = 
REMARK  11 active torsions:
REMARK  status: ('A' for Active; 'I' for Inactive)
REMARK    1  A    between atoms: C_1  and  C_2
REMARK    2  A    between atoms: C_2  and  N_3
REMARK    3  A    between atoms: N_3  and  C_4
REMARK    4  A    between atoms: N_3  and  C_6
REMARK    5  A    between atoms: C_4  and  C_5
REMARK    6  A    between atoms: C_6  and  C_7
REMARK    7  A    between atoms: C_7  and  N_8
REMARK    8  A    between atoms: N_8  and  C_9
REMARK    9  A    between atoms: C_10  and  O_11
REMARK   10  A    between atoms: O_11  and  C_12
REMARK   11  A    between atoms: C_14  and  C_15
REMARK                            x       y       z     vdW  Elec       q    Type
REMARK                         _______ _______ _______ _____ _____    ______ ____
ROOT
ATOM      1  C   UNL     1       0.594  11.641  19.361  0.00  0.00    +0.000 A 
ATOM      2  C   UNL     1      -0.354  12.218  20.260  0.00  0.00    +0.000 A 
ATOM      3  C   UNL     1      -0.669  11.588  21.465  0.00  0.00    +0.000 A 
ATOM      4  C   UNL     1      -0.146  10.343  21.788  0.00  0.00    +0.000 A 
ATOM      5  C   UNL     1      -0.496   9.777  23.151  0.00  0.00    +0.000 C 
ATOM      6  C   UNL     1       0.637   9.648  20.835  0.00  0.00    +0.000 A 
ATOM      7  S   UNL     1       1.103   8.006  21.337  0.00  0.00    +0.000 S 
ATOM      8  C   UNL     1       1.961   7.340  19.970  0.00  0.00    +0.000 A 
ATOM      9  C   UNL     1       2.420   6.015  20.135  0.00  0.00    +0.000 A 
ATOM     10  C   UNL     1       3.105   5.361  19.119  0.00  0.00    +0.000 A 
ATOM     11  C   UNL     1       3.328   6.033  17.925  0.00  0.00    +0.000 A 
ATOM     12  C   UNL     1       2.872   7.354  17.758  0.00  0.00    +0.000 A 
ATOM     13  C   UNL     1       2.191   8.034  18.785  0.00  0.00    +0.000 A 
ATOM     14  C   UNL     1       1.747   9.457  18.561  0.00  0.00    +0.000 A 
ATOM     15  O   UNL     1       1.991   9.965  17.463  0.00  0.00    +0.000 OA
ATOM     16  C   UNL     1       0.990  10.269  19.612  0.00  0.00    +0.000 A 
ENDROOT
BRANCH   1  17
ATOM     17  N   UNL     1       1.049  12.389  18.240  0.00  0.00    +0.000 N 
ATOM     18  H   UNL     1       0.961  11.839  17.381  0.00  0.00    +0.000 HD
BRANCH  17  19
ATOM     19  C   UNL     1       2.276  13.255  18.319  0.00  0.00    +0.000 C 
BRANCH  19  20
ATOM     20  C   UNL     1       1.943  14.769  18.348  0.00  0.00    +0.000 C 
BRANCH  20  21
ATOM     21  N   UNL     1       1.905  15.621  19.565  0.00  0.00    +0.000 NA
BRANCH  21  23
ATOM     22  C   UNL     1      -0.156  16.701  18.513  0.00  0.00    +0.000 C 
ATOM     23  C   UNL     1       0.712  16.460  19.745  0.00  0.00    +0.000 C 
ENDBRANCH  21  23
BRANCH  21  24
ATOM     24  C   UNL     1       2.206  14.841  20.779  0.00  0.00    +0.000 C 
ATOM     25  C   UNL     1       1.318  15.217  21.968  0.00  0.00    +0.000 C 
ENDBRANCH  21  24
ENDBRANCH  20  21
ENDBRANCH  19  20
ENDBRANCH  17  19
ENDBRANCH   1  17
BRANCH   2  26
ATOM     26  O   UNL     1      -0.972  13.375  19.866  0.00  0.00    +0.000 OA
ATOM     27  C   UNL     1      -2.069  13.858  20.644  0.00  0.00    +0.000 C 
ENDBRANCH   2  26
TORSDOF 7
ENDMDL
MODEL 3
REMARK VINA RESULT:      -6.1      3.638      5.481
REMARK  Name = 
REMARK  11 active torsions:
REMARK  status: ('A' for Active; 'I' for Inactive)
REMARK    1  A    between atoms: C_1  and  C_2
REMARK    2  A    between atoms: C_2  and  N_3
REMARK    3  A    between atoms: N_3  and  C_4
REMARK    4  A    between atoms: N_3  and  C_6
REMARK    5  A    between atoms: C_4  and  C_5
REMARK    6  A    between atoms: C_6  and  C_7
REMARK    7  A    between atoms: C_7  and  N_8
REMARK    8  A    between atoms: N_8  and  C_9
REMARK    9  A    between atoms: C_10  and  O_11
REMARK   10  A    between atoms: O_11  and  C_12
REMARK   11  A    between atoms: C_14  and  C_15
REMARK                            x       y       z     vdW  Elec       q    Type
REMARK                         _______ _______ _______ _____ _____    ______ ____
ROOT
ATOM      1  C   UNL     1       2.221   7.662  19.442  0.00  0.00    +0.000 A 
ATOM      2  C   UNL     1       1.347   7.268  20.501  0.00  0.00    +0.000 A 
ATOM      3  C   UNL     1       1.431   5.991  21.058  0.00  0.00    +0.000 A 
ATOM      4  C   UNL     1       2.298   5.035  20.546  0.00  0.00    +0.000 A 
ATOM      5  C   UNL     1       2.364   3.702  21.265  0.00  0.00    +0.000 C 
ATOM      6  C   UNL     1       3.034   5.321  19.370  0.00  0.00    +0.000 A 
ATOM      7  S   UNL     1       3.979   3.945  18.752  0.00  0.00    +0.000 S 
ATOM      8  C   UNL     1       4.700   4.519  17.270  0.00  0.00    +0.000 A 
ATOM      9  C   UNL     1       5.495   3.576  16.583  0.00  0.00    +0.000 A 
ATOM     10  C   UNL     1       6.116   3.898  15.383  0.00  0.00    +0.000 A 
ATOM     11  C   UNL     1       5.936   5.172  14.861  0.00  0.00    +0.000 A 
ATOM     12  C   UNL     1       5.144   6.114  15.543  0.00  0.00    +0.000 A 
ATOM     13  C   UNL     1       4.522   5.806  16.768  0.00  0.00    +0.000 A 
ATOM     14  C   UNL     1       3.706   6.861  17.469  0.00  0.00    +0.000 A 
ATOM     15  O   UNL     1       3.605   7.962  16.920  0.00  0.00    +0.000 OA
ATOM     16  C   UNL     1       2.984   6.613  18.793  0.00  0.00    +0.000 A 
ENDROOT
BRANCH   1  17
ATOM     17  N   UNL     1       2.256   9.021  19.024  0.00  0.00    +0.000 N 
ATOM     18  H   UNL     1       2.539   9.628  19.799  0.00  0.00    +0.000 HD
BRANCH  17  19
ATOM     19  C   UNL     1       1.199   9.593  18.120  0.00  0.00    +0.000 C 
BRANCH  19  20
ATOM     20  C   UNL     1       0.470  10.811  18.742  0.00  0.00    +0.000 C 
BRANCH  20  21
ATOM     21  N   UNL     1      -0.977  10.870  19.080  0.00  0.00    +0.000 NA
BRANCH  21  23
ATOM     22  C   UNL     1      -2.671  12.506  20.068  0.00  0.00    +0.000 C 
ATOM     23  C   UNL     1      -1.355  11.744  20.200  0.00  0.00    +0.000 C 
ENDBRANCH  21  23
BRANCH  21  24
ATOM     24  C   UNL     1      -1.800  11.135  17.885  0.00  0.00    +0.000 C 
ATOM     25  C   UNL     1      -2.518   9.888  17.364  0.00  0.00    +0.000 C 
ENDBRANCH  21  24
ENDBRANCH  20  21
ENDBRANCH  19  20
ENDBRANCH  17  19
ENDBRANCH   1  17
BRANCH   2  26
ATOM     26  O   UNL     1       0.399   8.171  20.903  0.00  0.00    +0.000 OA
ATOM     27  C   UNL     1       0.648   8.938  22.082  0.00  0.00    +0.000 C 
ENDBRANCH   2  26
TORSDOF 7
ENDMDL
MODEL 4
REMARK VINA RESULT:      -6.1      0.881      1.245
REMARK  Name = 
REMARK  11 active torsions:
REMARK  status: ('A' for Active; 'I' for Inactive)
REMARK    1  A    between atoms: C_1  and  C_2
REMARK    2  A    between atoms: C_2  and  N_3
REMARK    3  A    between atoms: N_3  and  C_4
REMARK    4  A    between atoms: N_3  and  C_6
REMARK    5  A    between atoms: C_4  and  C_5
REMARK    6  A    between atoms: C_6  and  C_7
REMARK    7  A    between atoms: C_7  and  N_8
REMARK    8  A    between atoms: N_8  and  C_9
REMARK    9  A    between atoms: C_10  and  O_11
REMARK   10  A    between atoms: O_11  and  C_12
REMARK   11  A    between atoms: C_14  and  C_15
REMARK                            x       y       z     vdW  Elec       q    Type
REMARK                         _______ _______ _______ _____ _____    ______ ____
ROOT
ATOM      1  C   UNL     1       0.579  11.504  19.199  0.00  0.00    +0.000 A 
ATOM      2  C   UNL     1      -0.396  12.091  20.063  0.00  0.00    +0.000 A 
ATOM      3  C   UNL     1      -0.726  11.489  21.278  0.00  0.00    +0.000 A 
ATOM      4  C   UNL     1      -0.191  10.262  21.647  0.00  0.00    +0.000 A 
ATOM      5  C   UNL     1      -0.559   9.729  23.018  0.00  0.00    +0.000 C 
ATOM      6  C   UNL     1       0.622   9.553  20.729  0.00  0.00    +0.000 A 
ATOM      7  S   UNL     1       1.103   7.933  21.287  0.00  0.00    +0.000 S 
ATOM      8  C   UNL     1       1.999   7.243  19.957  0.00  0.00    +0.000 A 
ATOM      9  C   UNL     1       2.474   5.930  20.168  0.00  0.00    +0.000 A 
ATOM     10  C   UNL     1       3.189   5.259  19.185  0.00  0.00    +0.000 A 
ATOM     11  C   UNL     1       3.426   5.901  17.977  0.00  0.00    +0.000 A 
ATOM     12  C   UNL     1       2.954   7.209  17.764  0.00  0.00    +0.000 A 
ATOM     13  C   UNL     1       2.242   7.908  18.757  0.00  0.00    +0.000 A 
ATOM     14  C   UNL     1       1.781   9.316  18.485  0.00  0.00    +0.000 A 
ATOM     15  O   UNL     1       2.040   9.797  17.378  0.00  0.00    +0.000 OA
ATOM     16  C   UNL     1       0.991  10.145  19.497  0.00  0.00    +0.000 A 
ENDROOT
BRANCH   1  17
ATOM     17  N   UNL     1       1.045  12.227  18.067  0.00  0.00    +0.000 N 
ATOM     18  H   UNL     1       0.841  11.715  17.204  0.00  0.00    +0.000 HD
BRANCH  17  19
ATOM     19  C   UNL     1       2.365  12.947  18.084  0.00  0.00    +0.000 C 
BRANCH  19  20
ATOM     20  C   UNL     1       2.258  14.387  18.647  0.00  0.00    +0.000 C 
BRANCH  20  21
ATOM     21  N   UNL     1       3.405  15.266  18.994  0.00  0.00    +0.000 NA
BRANCH  21  23
ATOM     22  C   UNL     1       3.695  15.332  21.530  0.00  0.00    +0.000 C 
ATOM     23  C   UNL     1       4.203  14.876  20.165  0.00  0.00    +0.000 C 
ENDBRANCH  21  23
BRANCH  21  24
ATOM     24  C   UNL     1       4.260  15.526  17.820  0.00  0.00    +0.000 C 
ATOM     25  C   UNL     1       5.600  14.789  17.880  0.00  0.00    +0.000 C 
ENDBRANCH  21  24
ENDBRANCH  20  21
ENDBRANCH  19  20
ENDBRANCH  17  19
ENDBRANCH   1  17
BRANCH   2  26
ATOM     26  O   UNL     1      -1.023  13.226  19.624  0.00  0.00    +0.000 OA
ATOM     27  C   UNL     1      -1.039  14.368  20.482  0.00  0.00    +0.000 C 
ENDBRANCH   2  26
TORSDOF 7
ENDMDL
MODEL 5
REMARK VINA RESULT:      -6.1      3.485      5.393
REMARK  Name = 
REMARK  11 active torsions:
REMARK  status: ('A' for Active; 'I' for Inactive)
REMARK    1  A    between atoms: C_1  and  C_2
REMARK    2  A    between atoms: C_2  and  N_3
REMARK    3  A    between atoms: N_3  and  C_4
REMARK    4  A    between atoms: N_3  and  C_6
REMARK    5  A    between atoms: C_4  and  C_5
REMARK    6  A    between atoms: C_6  and  C_7
REMARK    7  A    between atoms: C_7  and  N_8
REMARK    8  A    between atoms: N_8  and  C_9
REMARK    9  A    between atoms: C_10  and  O_11
REMARK   10  A    between atoms: O_11  and  C_12
REMARK   11  A    between atoms: C_14  and  C_15
REMARK                            x       y       z     vdW  Elec       q    Type
REMARK                         _______ _______ _______ _____ _____    ______ ____
ROOT
ATOM      1  C   UNL     1       2.252   7.596  19.453  0.00  0.00    +0.000 A 
ATOM      2  C   UNL     1       1.380   7.191  20.510  0.00  0.00    +0.000 A 
ATOM      3  C   UNL     1       1.463   5.908  21.051  0.00  0.00    +0.000 A 
ATOM      4  C   UNL     1       2.327   4.956  20.526  0.00  0.00    +0.000 A 
ATOM      5  C   UNL     1       2.392   3.615  21.230  0.00  0.00    +0.000 C 
ATOM      6  C   UNL     1       3.061   5.254  19.352  0.00  0.00    +0.000 A 
ATOM      7  S   UNL     1       4.002   3.885  18.717  0.00  0.00    +0.000 S 
ATOM      8  C   UNL     1       4.722   4.475  17.240  0.00  0.00    +0.000 A 
ATOM      9  C   UNL     1       5.514   3.538  16.541  0.00  0.00    +0.000 A 
ATOM     10  C   UNL     1       6.133   3.874  15.343  0.00  0.00    +0.000 A 
ATOM     11  C   UNL     1       5.954   5.154  14.836  0.00  0.00    +0.000 A 
ATOM     12  C   UNL     1       5.165   6.089  15.531  0.00  0.00    +0.000 A 
ATOM     13  C   UNL     1       4.545   5.767  16.753  0.00  0.00    +0.000 A 
ATOM     14  C   UNL     1       3.732   6.816  17.468  0.00  0.00    +0.000 A 
ATOM     15  O   UNL     1       3.631   7.923  16.933  0.00  0.00    +0.000 OA
ATOM     16  C   UNL     1       3.013   6.553  18.791  0.00  0.00    +0.000 A 
ENDROOT
BRANCH   1  17
ATOM     17  N   UNL     1       2.288   8.960  19.052  0.00  0.00    +0.000 N 
ATOM     18  H   UNL     1       2.565   9.558  19.835  0.00  0.00    +0.000 HD
BRANCH  17  19
ATOM     19  C   UNL     1       1.237   9.541  18.147  0.00  0.00    +0.000 C 
BRANCH  19  20
ATOM     20  C   UNL     1       0.665  10.882  18.673  0.00  0.00    +0.000 C 
BRANCH  20  21
ATOM     21  N   UNL     1      -0.778  11.198  18.842  0.00  0.00    +0.000 NA
BRANCH  21  23
ATOM     22  C   UNL     1      -2.184  10.303  16.908  0.00  0.00    +0.000 C 
ATOM     23  C   UNL     1      -1.733  10.190  18.361  0.00  0.00    +0.000 C 
ENDBRANCH  21  23
BRANCH  21  24
ATOM     24  C   UNL     1      -1.080  11.614  20.224  0.00  0.00    +0.000 C 
ATOM     25  C   UNL     1       0.076  12.364  20.890  0.00  0.00    +0.000 C 
ENDBRANCH  21  24
ENDBRANCH  20  21
ENDBRANCH  19  20
ENDBRANCH  17  19
ENDBRANCH   1  17
BRANCH   2  26
ATOM     26  O   UNL     1       0.434   8.090  20.924  0.00  0.00    +0.000 OA
ATOM     27  C   UNL     1       0.715   8.891  22.073  0.00  0.00    +0.000 C 
ENDBRANCH   2  26
TORSDOF 7
ENDMDL
MODEL 6
REMARK VINA RESULT:      -6.1      3.973      7.635
REMARK  Name = 
REMARK  11 active torsions:
REMARK  status: ('A' for Active; 'I' for Inactive)
REMARK    1  A    between atoms: C_1  and  C_2
REMARK    2  A    between atoms: C_2  and  N_3
REMARK    3  A    between atoms: N_3  and  C_4
REMARK    4  A    between atoms: N_3  and  C_6
REMARK    5  A    between atoms: C_4  and  C_5
REMARK    6  A    between atoms: C_6  and  C_7
REMARK    7  A    between atoms: C_7  and  N_8
REMARK    8  A    between atoms: N_8  and  C_9
REMARK    9  A    between atoms: C_10  and  O_11
REMARK   10  A    between atoms: O_11  and  C_12
REMARK   11  A    between atoms: C_14  and  C_15
REMARK                            x       y       z     vdW  Elec       q    Type
REMARK                         _______ _______ _______ _____ _____    ______ ____
ROOT
ATOM      1  C   UNL     1      -2.482  11.559  17.946  0.00  0.00    +0.000 A 
ATOM      2  C   UNL     1      -3.190  11.177  16.765  0.00  0.00    +0.000 A 
ATOM      3  C   UNL     1      -4.553  11.446  16.633  0.00  0.00    +0.000 A 
ATOM      4  C   UNL     1      -5.284  12.007  17.671  0.00  0.00    +0.000 A 
ATOM      5  C   UNL     1      -6.742  12.323  17.402  0.00  0.00    +0.000 C 
ATOM      6  C   UNL     1      -4.663  12.213  18.927  0.00  0.00    +0.000 A 
ATOM      7  S   UNL     1      -5.767  12.793  20.197  0.00  0.00    +0.000 S 
ATOM      8  C   UNL     1      -4.794  12.870  21.644  0.00  0.00    +0.000 A 
ATOM      9  C   UNL     1      -5.475  13.295  22.805  0.00  0.00    +0.000 A 
ATOM     10  C   UNL     1      -4.822  13.387  24.027  0.00  0.00    +0.000 A 
ATOM     11  C   UNL     1      -3.478  13.045  24.093  0.00  0.00    +0.000 A 
ATOM     12  C   UNL     1      -2.797  12.620  22.937  0.00  0.00    +0.000 A 
ATOM     13  C   UNL     1      -3.442  12.537  21.689  0.00  0.00    +0.000 A 
ATOM     14  C   UNL     1      -2.658  12.101  20.478  0.00  0.00    +0.000 A 
ATOM     15  O   UNL     1      -1.468  11.815  20.641  0.00  0.00    +0.000 OA
ATOM     16  C   UNL     1      -3.278  11.969  19.087  0.00  0.00    +0.000 A 
ENDROOT
BRANCH   1  17
ATOM     17  N   UNL     1      -1.064  11.458  17.981  0.00  0.00    +0.000 N 
ATOM     18  H   UNL     1      -0.640  12.111  17.316  0.00  0.00    +0.000 HD
BRANCH  17  19
ATOM     19  C   UNL     1      -0.374  10.126  18.095  0.00  0.00    +0.000 C 
BRANCH  19  20
ATOM     20  C   UNL     1       0.989  10.216  18.827  0.00  0.00    +0.000 C 
BRANCH  20  21
ATOM     21  N   UNL     1       1.887   9.068  19.123  0.00  0.00    +0.000 NA
BRANCH  21  23
ATOM     22  C   UNL     1       1.025   8.911  21.521  0.00  0.00    +0.000 C 
ATOM     23  C   UNL     1       1.508   8.211  20.255  0.00  0.00    +0.000 C 
ENDBRANCH  21  23
BRANCH  21  24
ATOM     24  C   UNL     1       2.164   8.274  17.911  0.00  0.00    +0.000 C 
ATOM     25  C   UNL     1       2.587   6.836  18.221  0.00  0.00    +0.000 C 
ENDBRANCH  21  24
ENDBRANCH  20  21
ENDBRANCH  19  20
ENDBRANCH  17  19
ENDBRANCH   1  17
BRANCH   2  26
ATOM     26  O   UNL     1      -2.492  10.495  15.805  0.00  0.00    +0.000 OA
ATOM     27  C   UNL     1      -3.165  10.145  14.595  0.00  0.00    +0.000 C 
ENDBRANCH   2  26
TORSDOF 7
ENDMDL
MODEL 7
REMARK VINA RESULT:      -6.1      0.833      1.037
REMARK  Name = 
REMARK  11 active torsions:
REMARK  status: ('A' for Active; 'I' for Inactive)
REMARK    1  A    between atoms: C_1  and  C_2
REMARK    2  A    between atoms: C_2  and  N_3
REMARK    3  A    between atoms: N_3  and  C_4
REMARK    4  A    between atoms: N_3  and  C_6
REMARK    5  A    between atoms: C_4  and  C_5
REMARK    6  A    between atoms: C_6  and  C_7
REMARK    7  A    between atoms: C_7  and  N_8
REMARK    8  A    between atoms: N_8  and  C_9
REMARK    9  A    between atoms: C_10  and  O_11
REMARK   10  A    between atoms: O_11  and  C_12
REMARK   11  A    between atoms: C_14  and  C_15
REMARK                            x       y       z     vdW  Elec       q    Type
REMARK                         _______ _______ _______ _____ _____    ______ ____
ROOT
ATOM      1  C   UNL     1       0.712  11.377  19.284  0.00  0.00    +0.000 A 
ATOM      2  C   UNL     1      -0.221  11.940  20.208  0.00  0.00    +0.000 A 
ATOM      3  C   UNL     1      -0.497  11.303  21.419  0.00  0.00    +0.000 A 
ATOM      4  C   UNL     1       0.051  10.065  21.727  0.00  0.00    +0.000 A 
ATOM      5  C   UNL     1      -0.257   9.491  23.096  0.00  0.00    +0.000 C 
ATOM      6  C   UNL     1       0.819   9.382  20.752  0.00  0.00    +0.000 A 
ATOM      7  S   UNL     1       1.320   7.746  21.239  0.00  0.00    +0.000 S 
ATOM      8  C   UNL     1       2.152   7.094  19.850  0.00  0.00    +0.000 A 
ATOM      9  C   UNL     1       2.633   5.775  20.000  0.00  0.00    +0.000 A 
ATOM     10  C   UNL     1       3.301   5.132  18.966  0.00  0.00    +0.000 A 
ATOM     11  C   UNL     1       3.485   5.810  17.768  0.00  0.00    +0.000 A 
ATOM     12  C   UNL     1       3.007   7.124  17.615  0.00  0.00    +0.000 A 
ATOM     13  C   UNL     1       2.342   7.794  18.661  0.00  0.00    +0.000 A 
ATOM     14  C   UNL     1       1.874   9.211  18.451  0.00  0.00    +0.000 A 
ATOM     15  O   UNL     1       2.084   9.724  17.348  0.00  0.00    +0.000 OA
ATOM     16  C   UNL     1       1.133  10.010  19.523  0.00  0.00    +0.000 A 
ENDROOT
BRANCH   1  17
ATOM     17  N   UNL     1       1.128  12.133  18.154  0.00  0.00    +0.000 N 
ATOM     18  H   UNL     1       0.933  11.623  17.288  0.00  0.00    +0.000 HD
BRANCH  17  19
ATOM     19  C   UNL     1       2.416  12.910  18.159  0.00  0.00    +0.000 C 
BRANCH  19  20
ATOM     20  C   UNL     1       2.325  14.221  18.980  0.00  0.00    +0.000 C 
BRANCH  20  21
ATOM     21  N   UNL     1       1.809  15.521  18.476  0.00  0.00    +0.000 NA
BRANCH  21  23
ATOM     22  C   UNL     1      -0.467  16.663  18.671  0.00  0.00    +0.000 C 
ATOM     23  C   UNL     1       0.836  16.219  19.330  0.00  0.00    +0.000 C 
ENDBRANCH  21  23
BRANCH  21  24
ATOM     24  C   UNL     1       2.908  16.416  18.066  0.00  0.00    +0.000 C 
ATOM     25  C   UNL     1       3.887  16.720  19.202  0.00  0.00    +0.000 C 
ENDBRANCH  21  24
ENDBRANCH  20  21
ENDBRANCH  19  20
ENDBRANCH  17  19
ENDBRANCH   1  17
BRANCH   2  26
ATOM     26  O   UNL     1      -0.865  13.088  19.832  0.00  0.00    +0.000 OA
ATOM     27  C   UNL     1      -2.289  13.134  19.937  0.00  0.00    +0.000 C 
ENDBRANCH   2  26
TORSDOF 7
ENDMDL
MODEL 8
REMARK VINA RESULT:      -6.0      1.048      1.601
REMARK  Name = 
REMARK  11 active torsions:
REMARK  status: ('A' for Active; 'I' for Inactive)
REMARK    1  A    between atoms: C_1  and  C_2
REMARK    2  A    between atoms: C_2  and  N_3
REMARK    3  A    between atoms: N_3  and  C_4
REMARK    4  A    between atoms: N_3  and  C_6
REMARK    5  A    between atoms: C_4  and  C_5
REMARK    6  A    between atoms: C_6  and  C_7
REMARK    7  A    between atoms: C_7  and  N_8
REMARK    8  A    between atoms: N_8  and  C_9
REMARK    9  A    between atoms: C_10  and  O_11
REMARK   10  A    between atoms: O_11  and  C_12
REMARK   11  A    between atoms: C_14  and  C_15
REMARK                            x       y       z     vdW  Elec       q    Type
REMARK                         _______ _______ _______ _____ _____    ______ ____
ROOT
ATOM      1  C   UNL     1       0.691  11.528  19.239  0.00  0.00    +0.000 A 
ATOM      2  C   UNL     1      -0.250  12.148  20.117  0.00  0.00    +0.000 A 
ATOM      3  C   UNL     1      -0.585  11.557  21.336  0.00  0.00    +0.000 A 
ATOM      4  C   UNL     1      -0.089  10.310  21.695  0.00  0.00    +0.000 A 
ATOM      5  C   UNL     1      -0.459   9.788  23.070  0.00  0.00    +0.000 C 
ATOM      6  C   UNL     1       0.684   9.575  20.766  0.00  0.00    +0.000 A 
ATOM      7  S   UNL     1       1.114   7.937  21.314  0.00  0.00    +0.000 S 
ATOM      8  C   UNL     1       1.966   7.218  19.971  0.00  0.00    +0.000 A 
ATOM      9  C   UNL     1       2.397   5.888  20.174  0.00  0.00    +0.000 A 
ATOM     10  C   UNL     1       3.074   5.194  19.180  0.00  0.00    +0.000 A 
ATOM     11  C   UNL     1       3.318   5.829  17.970  0.00  0.00    +0.000 A 
ATOM     12  C   UNL     1       2.890   7.154  17.765  0.00  0.00    +0.000 A 
ATOM     13  C   UNL     1       2.217   7.875  18.769  0.00  0.00    +0.000 A 
ATOM     14  C   UNL     1       1.803   9.300  18.505  0.00  0.00    +0.000 A 
ATOM     15  O   UNL     1       2.065   9.774  17.395  0.00  0.00    +0.000 OA
ATOM     16  C   UNL     1       1.057  10.155  19.529  0.00  0.00    +0.000 A 
ENDROOT
BRANCH   1  17
ATOM     17  N   UNL     1       1.167  12.236  18.102  0.00  0.00    +0.000 N 
ATOM     18  H   UNL     1       0.898  11.755  17.239  0.00  0.00    +0.000 HD
BRANCH  17  19
ATOM     19  C   UNL     1       2.535  12.862  18.082  0.00  0.00    +0.000 C 
BRANCH  19  20
ATOM     20  C   UNL     1       2.599  14.196  18.868  0.00  0.00    +0.000 C 
BRANCH  20  21
ATOM     21  N   UNL     1       3.728  14.638  19.728  0.00  0.00    +0.000 NA
BRANCH  21  23
ATOM     22  C   UNL     1       5.486  14.822  17.884  0.00  0.00    +0.000 C 
ATOM     23  C   UNL     1       4.772  15.445  19.080  0.00  0.00    +0.000 C 
ENDBRANCH  21  23
BRANCH  21  24
ATOM     24  C   UNL     1       3.245  15.273  20.968  0.00  0.00    +0.000 C 
ATOM     25  C   UNL     1       1.970  14.625  21.516  0.00  0.00    +0.000 C 
ENDBRANCH  21  24
ENDBRANCH  20  21
ENDBRANCH  19  20
ENDBRANCH  17  19
ENDBRANCH   1  17
BRANCH   2  26
ATOM     26  O   UNL     1      -0.842  13.306  19.688  0.00  0.00    +0.000 OA
ATOM     27  C   UNL     1      -1.909  13.851  20.467  0.00  0.00    +0.000 C 
ENDBRANCH   2  26
TORSDOF 7
ENDMDL
MODEL 9
REMARK VINA RESULT:      -6.0      0.646      1.337
REMARK  Name = 
REMARK  11 active torsions:
REMARK  status: ('A' for Active; 'I' for Inactive)
REMARK    1  A    between atoms: C_1  and  C_2
REMARK    2  A    between atoms: C_2  and  N_3
REMARK    3  A    between atoms: N_3  and  C_4
REMARK    4  A    between atoms: N_3  and  C_6
REMARK    5  A    between atoms: C_4  and  C_5
REMARK    6  A    between atoms: C_6  and  C_7
REMARK    7  A    between atoms: C_7  and  N_8
REMARK    8  A    between atoms: N_8  and  C_9
REMARK    9  A    between atoms: C_10  and  O_11
REMARK   10  A    between atoms: O_11  and  C_12
REMARK   11  A    between atoms: C_14  and  C_15
REMARK                            x       y       z     vdW  Elec       q    Type
REMARK                         _______ _______ _______ _____ _____    ______ ____
ROOT
ATOM      1  C   UNL     1       0.635  11.666  19.285  0.00  0.00    +0.000 A 
ATOM      2  C   UNL     1      -0.312  12.261  20.175  0.00  0.00    +0.000 A 
ATOM      3  C   UNL     1      -0.641  11.644  21.383  0.00  0.00    +0.000 A 
ATOM      4  C   UNL     1      -0.133  10.396  21.719  0.00  0.00    +0.000 A 
ATOM      5  C   UNL     1      -0.497   9.845  23.084  0.00  0.00    +0.000 C 
ATOM      6  C   UNL     1       0.648   9.685  20.776  0.00  0.00    +0.000 A 
ATOM      7  S   UNL     1       1.094   8.042  21.294  0.00  0.00    +0.000 S 
ATOM      8  C   UNL     1       1.953   7.356  19.938  0.00  0.00    +0.000 A 
ATOM      9  C   UNL     1       2.397   6.028  20.117  0.00  0.00    +0.000 A 
ATOM     10  C   UNL     1       3.081   5.358  19.111  0.00  0.00    +0.000 A 
ATOM     11  C   UNL     1       3.318   6.018  17.913  0.00  0.00    +0.000 A 
ATOM     12  C   UNL     1       2.877   7.342  17.732  0.00  0.00    +0.000 A 
ATOM     13  C   UNL     1       2.197   8.038  18.749  0.00  0.00    +0.000 A 
ATOM     14  C   UNL     1       1.769   9.464  18.511  0.00  0.00    +0.000 A 
ATOM     15  O   UNL     1       2.026   9.960  17.410  0.00  0.00    +0.000 OA
ATOM     16  C   UNL     1       1.015  10.292  19.551  0.00  0.00    +0.000 A 
ENDROOT
BRANCH   1  17
ATOM     17  N   UNL     1       1.104  12.400  18.162  0.00  0.00    +0.000 N 
ATOM     18  H   UNL     1       0.889  11.903  17.292  0.00  0.00    +0.000 HD
BRANCH  17  19
ATOM     19  C   UNL     1       2.433  13.104  18.181  0.00  0.00    +0.000 C 
BRANCH  19  20
ATOM     20  C   UNL     1       2.473  14.287  19.182  0.00  0.00    +0.000 C 
BRANCH  20  21
ATOM     21  N   UNL     1       3.136  15.596  18.944  0.00  0.00    +0.000 NA
BRANCH  21  23
ATOM     22  C   UNL     1       5.606  15.197  19.456  0.00  0.00    +0.000 C 
ATOM     23  C   UNL     1       4.298  15.908  19.789  0.00  0.00    +0.000 C 
ENDBRANCH  21  23
BRANCH  21  24
ATOM     24  C   UNL     1       3.438  15.796  17.514  0.00  0.00    +0.000 C 
ATOM     25  C   UNL     1       2.813  17.071  16.943  0.00  0.00    +0.000 C 
ENDBRANCH  21  24
ENDBRANCH  20  21
ENDBRANCH  19  20
ENDBRANCH  17  19
ENDBRANCH   1  17
BRANCH   2  26
ATOM     26  O   UNL     1      -0.916  13.420  19.767  0.00  0.00    +0.000 OA
ATOM     27  C   UNL     1      -2.010  13.923  20.537  0.00  0.00    +0.000 C 
ENDBRANCH   2  26
TORSDOF 7
ENDMDL
