MODEL 1
REMARK VINA RESULT:      -9.4      0.000      0.000
REMARK  Name = 
REMARK  7 active torsions:
REMARK  status: ('A' for Active; 'I' for Inactive)
REMARK    1  A    between atoms: C_1  and  C_2
REMARK    2  A    between atoms: N_4  and  C_5
REMARK    3  A    between atoms: C_5  and  C_6
REMARK    4  A    between atoms: C_5  and  C_7
REMARK    5  A    between atoms: C_10  and  O_11
REMARK    6  A    between atoms: O_11  and  C_12
REMARK    7  A    between atoms: N_15  and  C_16
REMARK                            x       y       z     vdW  Elec       q    Type
REMARK                         _______ _______ _______ _____ _____    ______ ____
ROOT
ATOM      1  C   UNL     1       2.051   6.606  19.309  0.00  0.00    +0.000 C 
ATOM      2  C   UNL     1       2.609   5.400  20.065  0.00  0.00    +0.000 C 
ATOM      3  C   UNL     1       4.052   5.249  19.591  0.00  0.00    +0.000 C 
ATOM      4  N   UNL     1       4.039   5.761  18.229  0.00  0.00    +0.000 N 
ATOM      5  C   UNL     1       2.916   6.686  18.036  0.00  0.00    +0.000 C 
ENDROOT
BRANCH   4   6
ATOM      6  C   UNL     1       5.119   5.725  17.361  0.00  0.00    +0.000 A 
ATOM      7  C   UNL     1       6.202   6.595  17.502  0.00  0.00    +0.000 A 
ATOM      8  C   UNL     1       7.269   6.518  16.618  0.00  0.00    +0.000 A 
ATOM      9  N   UNL     1       7.342   5.657  15.581  0.00  0.00    +0.000 NA
ATOM     10  C   UNL     1       6.315   4.801  15.397  0.00  0.00    +0.000 A 
ATOM     11  N   UNL     1       6.368   3.922  14.319  0.00  0.00    +0.000 N 
ATOM     12  C   UNL     1       7.450   4.035  13.333  0.00  0.00    +0.000 C 
ATOM     13  C   UNL     1       6.742   4.253  12.000  0.00  0.00    +0.000 C 
ATOM     14  C   UNL     1       5.485   3.433  12.157  0.00  0.00    +0.000 C 
ATOM     15  F   UNL     1       4.513   3.859  11.324  0.00  0.00    +0.000 F 
ATOM     16  F   UNL     1       5.727   2.133  11.872  0.00  0.00    +0.000 F 
ATOM     17  C   UNL     1       5.100   3.612  13.623  0.00  0.00    +0.000 C 
ATOM     18  C   UNL     1       5.226   4.801  16.298  0.00  0.00    +0.000 A 
ATOM     19  F   UNL     1       4.257   3.881  16.130  0.00  0.00    +0.000 F 
ENDBRANCH   4   6
BRANCH   1  20
ATOM     20  O   UNL     1       2.152   7.779  20.134  0.00  0.00    +0.000 OA
BRANCH  20  24
ATOM     21  C   UNL     1      -0.410  10.890  18.934  0.00  0.00    +0.000 A 
ATOM     22  C   UNL     1       0.664  10.460  18.141  0.00  0.00    +0.000 A 
ATOM     23  C   UNL     1       1.505   9.424  18.575  0.00  0.00    +0.000 A 
ATOM     24  C   UNL     1       1.302   8.811  19.813  0.00  0.00    +0.000 A 
ATOM     25  C   UNL     1       0.240   9.240  20.608  0.00  0.00    +0.000 A 
ATOM     26  C   UNL     1      -0.603  10.269  20.175  0.00  0.00    +0.000 A 
BRANCH  21  27
ATOM     27  C   UNL     1      -1.371  11.960  18.438  0.00  0.00    +0.000 C 
ATOM     28  C   UNL     1      -2.574  12.124  19.373  0.00  0.00    +0.000 C 
BRANCH  27  32
ATOM     29  C   UNL     1      -2.821  10.351  15.326  0.00  0.00    +0.000 C 
ATOM     30  C   UNL     1      -2.524  10.491  16.795  0.00  0.00    +0.000 C 
ATOM     31  O   UNL     1      -2.895   9.674  17.632  0.00  0.00    +0.000 OA
ATOM     32  N   UNL     1      -1.809  11.625  17.090  0.00  0.00    +0.000 N 
ATOM     33  H   UNL     1      -1.495  12.210  16.329  0.00  0.00    +0.000 HD
ENDBRANCH  27  32
ENDBRANCH  21  27
ENDBRANCH  20  24
ENDBRANCH   1  20
TORSDOF 5
ENDMDL
MODEL 2
REMARK VINA RESULT:      -9.1      4.206      6.371
REMARK  Name = 
REMARK  7 active torsions:
REMARK  status: ('A' for Active; 'I' for Inactive)
REMARK    1  A    between atoms: C_1  and  C_2
REMARK    2  A    between atoms: N_4  and  C_5
REMARK    3  A    between atoms: C_5  and  C_6
REMARK    4  A    between atoms: C_5  and  C_7
REMARK    5  A    between atoms: C_10  and  O_11
REMARK    6  A    between atoms: O_11  and  C_12
REMARK    7  A    between atoms: N_15  and  C_16
REMARK                            x       y       z     vdW  Elec       q    Type
REMARK                         _______ _______ _______ _____ _____    ______ ____
ROOT
ATOM      1  C   UNL     1      -0.558  10.775  19.038  0.00  0.00    +0.000 C 
ATOM      2  C   UNL     1       0.671  11.676  18.908  0.00  0.00    +0.000 C 
ATOM      3  C   UNL     1       1.768  10.793  18.321  0.00  0.00    +0.000 C 
ATOM      4  N   UNL     1       1.452   9.457  18.804  0.00  0.00    +0.000 N 
ATOM      5  C   UNL     1       0.028   9.353  19.138  0.00  0.00    +0.000 C 
ENDROOT
BRANCH   4   6
ATOM      6  C   UNL     1       2.244   8.336  18.605  0.00  0.00    +0.000 A 
ATOM      7  C   UNL     1       3.076   8.215  17.491  0.00  0.00    +0.000 A 
ATOM      8  C   UNL     1       3.862   7.082  17.335  0.00  0.00    +0.000 A 
ATOM      9  N   UNL     1       3.874   6.037  18.190  0.00  0.00    +0.000 NA
ATOM     10  C   UNL     1       3.080   6.103  19.279  0.00  0.00    +0.000 A 
ATOM     11  N   UNL     1       3.067   5.024  20.158  0.00  0.00    +0.000 N 
ATOM     12  C   UNL     1       3.793   3.794  19.819  0.00  0.00    +0.000 C 
ATOM     13  C   UNL     1       2.733   2.698  19.833  0.00  0.00    +0.000 C 
ATOM     14  C   UNL     1       1.803   3.154  20.931  0.00  0.00    +0.000 C 
ATOM     15  F   UNL     1       0.574   2.615  20.790  0.00  0.00    +0.000 F 
ATOM     16  F   UNL     1       2.277   2.778  22.141  0.00  0.00    +0.000 F 
ATOM     17  C   UNL     1       1.780   4.674  20.797  0.00  0.00    +0.000 C 
ATOM     18  C   UNL     1       2.297   7.256  19.514  0.00  0.00    +0.000 A 
ATOM     19  F   UNL     1       1.577   7.321  20.650  0.00  0.00    +0.000 F 
ENDBRANCH   4   6
BRANCH   1  20
ATOM     20  O   UNL     1      -1.409  10.956  17.894  0.00  0.00    +0.000 OA
BRANCH  20  24
ATOM     21  C   UNL     1      -5.461  11.815  18.625  0.00  0.00    +0.000 A 
ATOM     22  C   UNL     1      -5.046  11.062  17.518  0.00  0.00    +0.000 A 
ATOM     23  C   UNL     1      -3.685  10.800  17.298  0.00  0.00    +0.000 A 
ATOM     24  C   UNL     1      -2.712  11.298  18.167  0.00  0.00    +0.000 A 
ATOM     25  C   UNL     1      -3.119  12.054  19.267  0.00  0.00    +0.000 A 
ATOM     26  C   UNL     1      -4.476  12.312  19.490  0.00  0.00    +0.000 A 
BRANCH  21  27
ATOM     27  C   UNL     1      -6.937  12.040  18.911  0.00  0.00    +0.000 C 
ATOM     28  C   UNL     1      -7.552  13.074  17.962  0.00  0.00    +0.000 C 
BRANCH  27  32
ATOM     29  C   UNL     1      -7.604  12.266  22.637  0.00  0.00    +0.000 C 
ATOM     30  C   UNL     1      -7.459  11.588  21.301  0.00  0.00    +0.000 C 
ATOM     31  O   UNL     1      -7.636  10.385  21.140  0.00  0.00    +0.000 OA
ATOM     32  N   UNL     1      -7.101  12.454  20.298  0.00  0.00    +0.000 N 
ATOM     33  H   UNL     1      -7.035  13.439  20.511  0.00  0.00    +0.000 HD
ENDBRANCH  27  32
ENDBRANCH  21  27
ENDBRANCH  20  24
ENDBRANCH   1  20
TORSDOF 5
ENDMDL
MODEL 3
REMARK VINA RESULT:      -9.0      1.933      2.700
REMARK  Name = 
REMARK  7 active torsions:
REMARK  status: ('A' for Active; 'I' for Inactive)
REMARK    1  A    between atoms: C_1  and  C_2
REMARK    2  A    between atoms: N_4  and  C_5
REMARK    3  A    between atoms: C_5  and  C_6
REMARK    4  A    between atoms: C_5  and  C_7
REMARK    5  A    between atoms: C_10  and  O_11
REMARK    6  A    between atoms: O_11  and  C_12
REMARK    7  A    between atoms: N_15  and  C_16
REMARK                            x       y       z     vdW  Elec       q    Type
REMARK                         _______ _______ _______ _____ _____    ______ ____
ROOT
ATOM      1  C   UNL     1       2.024   6.619  19.449  0.00  0.00    +0.000 C 
ATOM      2  C   UNL     1       2.444   5.256  20.000  0.00  0.00    +0.000 C 
ATOM      3  C   UNL     1       3.876   5.041  19.518  0.00  0.00    +0.000 C 
ATOM      4  N   UNL     1       3.945   5.767  18.258  0.00  0.00    +0.000 N 
ATOM      5  C   UNL     1       2.922   6.818  18.213  0.00  0.00    +0.000 C 
ENDROOT
BRANCH   4   6
ATOM      6  C   UNL     1       5.036   5.765  17.403  0.00  0.00    +0.000 A 
ATOM      7  C   UNL     1       6.084   6.675  17.552  0.00  0.00    +0.000 A 
ATOM      8  C   UNL     1       7.164   6.632  16.681  0.00  0.00    +0.000 A 
ATOM      9  N   UNL     1       7.281   5.768  15.650  0.00  0.00    +0.000 NA
ATOM     10  C   UNL     1       6.289   4.874  15.461  0.00  0.00    +0.000 A 
ATOM     11  N   UNL     1       6.387   3.990  14.389  0.00  0.00    +0.000 N 
ATOM     12  C   UNL     1       7.476   4.137  13.415  0.00  0.00    +0.000 C 
ATOM     13  C   UNL     1       6.777   4.320  12.072  0.00  0.00    +0.000 C 
ATOM     14  C   UNL     1       5.549   3.455  12.220  0.00  0.00    +0.000 C 
ATOM     15  F   UNL     1       4.573   3.840  11.372  0.00  0.00    +0.000 F 
ATOM     16  F   UNL     1       5.843   2.163  11.946  0.00  0.00    +0.000 F 
ATOM     17  C   UNL     1       5.140   3.629  13.680  0.00  0.00    +0.000 C 
ATOM     18  C   UNL     1       5.190   4.839  16.348  0.00  0.00    +0.000 A 
ATOM     19  F   UNL     1       4.257   3.883  16.175  0.00  0.00    +0.000 F 
ENDBRANCH   4   6
BRANCH   1  20
ATOM     20  O   UNL     1       2.220   7.626  20.457  0.00  0.00    +0.000 OA
BRANCH  20  24
ATOM     21  C   UNL     1      -0.563  10.767  20.720  0.00  0.00    +0.000 A 
ATOM     22  C   UNL     1      -0.250   9.954  21.819  0.00  0.00    +0.000 A 
ATOM     23  C   UNL     1       0.677   8.909  21.695  0.00  0.00    +0.000 A 
ATOM     24  C   UNL     1       1.296   8.643  20.471  0.00  0.00    +0.000 A 
ATOM     25  C   UNL     1       0.982   9.445  19.373  0.00  0.00    +0.000 A 
ATOM     26  C   UNL     1       0.061  10.491  19.496  0.00  0.00    +0.000 A 
BRANCH  21  27
ATOM     27  C   UNL     1      -1.510  11.949  20.864  0.00  0.00    +0.000 C 
ATOM     28  C   UNL     1      -2.384  12.136  19.619  0.00  0.00    +0.000 C 
BRANCH  27  32
ATOM     29  C   UNL     1       0.228  14.942  22.412  0.00  0.00    +0.000 C 
ATOM     30  C   UNL     1      -0.576  13.669  22.399  0.00  0.00    +0.000 C 
ATOM     31  O   UNL     1      -1.025  13.151  23.416  0.00  0.00    +0.000 OA
ATOM     32  N   UNL     1      -0.739  13.153  21.136  0.00  0.00    +0.000 N 
ATOM     33  H   UNL     1      -0.385  13.680  20.350  0.00  0.00    +0.000 HD
ENDBRANCH  27  32
ENDBRANCH  21  27
ENDBRANCH  20  24
ENDBRANCH   1  20
TORSDOF 5
ENDMDL
MODEL 4
REMARK VINA RESULT:      -8.9      1.879      2.476
REMARK  Name = 
REMARK  7 active torsions:
REMARK  status: ('A' for Active; 'I' for Inactive)
REMARK    1  A    between atoms: C_1  and  C_2
REMARK    2  A    between atoms: N_4  and  C_5
REMARK    3  A    between atoms: C_5  and  C_6
REMARK    4  A    between atoms: C_5  and  C_7
REMARK    5  A    between atoms: C_10  and  O_11
REMARK    6  A    between atoms: O_11  and  C_12
REMARK    7  A    between atoms: N_15  and  C_16
REMARK                            x       y       z     vdW  Elec       q    Type
REMARK                         _______ _______ _______ _____ _____    ______ ____
ROOT
ATOM      1  C   UNL     1       1.960   6.675  19.469  0.00  0.00    +0.000 C 
ATOM      2  C   UNL     1       2.245   5.225  19.861  0.00  0.00    +0.000 C 
ATOM      3  C   UNL     1       3.665   4.940  19.377  0.00  0.00    +0.000 C 
ATOM      4  N   UNL     1       3.827   5.798  18.214  0.00  0.00    +0.000 N 
ATOM      5  C   UNL     1       2.902   6.935  18.279  0.00  0.00    +0.000 C 
ENDROOT
BRANCH   4   6
ATOM      6  C   UNL     1       4.935   5.799  17.381  0.00  0.00    +0.000 A 
ATOM      7  C   UNL     1       5.975   6.716  17.544  0.00  0.00    +0.000 A 
ATOM      8  C   UNL     1       7.072   6.674  16.695  0.00  0.00    +0.000 A 
ATOM      9  N   UNL     1       7.214   5.805  15.672  0.00  0.00    +0.000 NA
ATOM     10  C   UNL     1       6.231   4.904  15.468  0.00  0.00    +0.000 A 
ATOM     11  N   UNL     1       6.356   4.015  14.403  0.00  0.00    +0.000 N 
ATOM     12  C   UNL     1       7.463   4.163  13.450  0.00  0.00    +0.000 C 
ATOM     13  C   UNL     1       6.789   4.335  12.093  0.00  0.00    +0.000 C 
ATOM     14  C   UNL     1       5.564   3.463  12.222  0.00  0.00    +0.000 C 
ATOM     15  F   UNL     1       4.602   3.838  11.352  0.00  0.00    +0.000 F 
ATOM     16  F   UNL     1       5.870   2.172  11.961  0.00  0.00    +0.000 F 
ATOM     17  C   UNL     1       5.125   3.643  13.672  0.00  0.00    +0.000 C 
ATOM     18  C   UNL     1       5.115   4.868  16.334  0.00  0.00    +0.000 A 
ATOM     19  F   UNL     1       4.192   3.905  16.148  0.00  0.00    +0.000 F 
ENDBRANCH   4   6
BRANCH   1  20
ATOM     20  O   UNL     1       2.218   7.535  20.592  0.00  0.00    +0.000 OA
BRANCH  20  24
ATOM     21  C   UNL     1      -0.468  10.763  20.824  0.00  0.00    +0.000 A 
ATOM     22  C   UNL     1       0.143  10.386  19.619  0.00  0.00    +0.000 A 
ATOM     23  C   UNL     1       1.040   9.308  19.578  0.00  0.00    +0.000 A 
ATOM     24  C   UNL     1       1.360   8.600  20.738  0.00  0.00    +0.000 A 
ATOM     25  C   UNL     1       0.761   8.976  21.940  0.00  0.00    +0.000 A 
ATOM     26  C   UNL     1      -0.139  10.046  21.982  0.00  0.00    +0.000 A 
BRANCH  21  27
ATOM     27  C   UNL     1      -1.498  11.881  20.863  0.00  0.00    +0.000 C 
ATOM     28  C   UNL     1      -0.923  13.206  20.353  0.00  0.00    +0.000 C 
BRANCH  27  32
ATOM     29  C   UNL     1      -3.543  12.526  23.990  0.00  0.00    +0.000 C 
ATOM     30  C   UNL     1      -3.285  12.406  22.512  0.00  0.00    +0.000 C 
ATOM     31  O   UNL     1      -4.146  12.618  21.664  0.00  0.00    +0.000 OA
ATOM     32  N   UNL     1      -1.997  12.027  22.224  0.00  0.00    +0.000 N 
ATOM     33  H   UNL     1      -1.339  11.933  22.985  0.00  0.00    +0.000 HD
ENDBRANCH  27  32
ENDBRANCH  21  27
ENDBRANCH  20  24
ENDBRANCH   1  20
TORSDOF 5
ENDMDL
MODEL 5
REMARK VINA RESULT:      -8.9      0.832      1.284
REMARK  Name = 
REMARK  7 active torsions:
REMARK  status: ('A' for Active; 'I' for Inactive)
REMARK    1  A    between atoms: C_1  and  C_2
REMARK    2  A    between atoms: N_4  and  C_5
REMARK    3  A    between atoms: C_5  and  C_6
REMARK    4  A    between atoms: C_5  and  C_7
REMARK    5  A    between atoms: C_10  and  O_11
REMARK    6  A    between atoms: O_11  and  C_12
REMARK    7  A    between atoms: N_15  and  C_16
REMARK                            x       y       z     vdW  Elec       q    Type
REMARK                         _______ _______ _______ _____ _____    ______ ____
ROOT
ATOM      1  C   UNL     1       2.116   6.075  19.557  0.00  0.00    +0.000 C 
ATOM      2  C   UNL     1       2.839   4.950  20.299  0.00  0.00    +0.000 C 
ATOM      3  C   UNL     1       4.270   4.961  19.768  0.00  0.00    +0.000 C 
ATOM      4  N   UNL     1       4.144   5.452  18.404  0.00  0.00    +0.000 N 
ATOM      5  C   UNL     1       2.915   6.239  18.251  0.00  0.00    +0.000 C 
ENDROOT
BRANCH   4   6
ATOM      6  C   UNL     1       5.186   5.531  17.493  0.00  0.00    +0.000 A 
ATOM      7  C   UNL     1       6.204   6.477  17.623  0.00  0.00    +0.000 A 
ATOM      8  C   UNL     1       7.235   6.514  16.695  0.00  0.00    +0.000 A 
ATOM      9  N   UNL     1       7.329   5.699  15.624  0.00  0.00    +0.000 NA
ATOM     10  C   UNL     1       6.364   4.772  15.449  0.00  0.00    +0.000 A 
ATOM     11  N   UNL     1       6.439   3.937  14.337  0.00  0.00    +0.000 N 
ATOM     12  C   UNL     1       7.466   4.169  13.314  0.00  0.00    +0.000 C 
ATOM     13  C   UNL     1       6.687   4.377  12.020  0.00  0.00    +0.000 C 
ATOM     14  C   UNL     1       5.504   3.456  12.196  0.00  0.00    +0.000 C 
ATOM     15  F   UNL     1       4.469   3.833  11.418  0.00  0.00    +0.000 F 
ATOM     16  F   UNL     1       5.834   2.190  11.851  0.00  0.00    +0.000 F 
ATOM     17  C   UNL     1       5.170   3.554  13.681  0.00  0.00    +0.000 C 
ATOM     18  C   UNL     1       5.318   4.655  16.392  0.00  0.00    +0.000 A 
ATOM     19  F   UNL     1       4.416   3.669  16.228  0.00  0.00    +0.000 F 
ENDBRANCH   4   6
BRANCH   1  20
ATOM     20  O   UNL     1       2.113   7.261  20.370  0.00  0.00    +0.000 OA
BRANCH  20  24
ATOM     21  C   UNL     1       0.123  10.678  18.939  0.00  0.00    +0.000 A 
ATOM     22  C   UNL     1      -0.098  10.171  20.228  0.00  0.00    +0.000 A 
ATOM     23  C   UNL     1       0.577   9.024  20.672  0.00  0.00    +0.000 A 
ATOM     24  C   UNL     1       1.470   8.351  19.834  0.00  0.00    +0.000 A 
ATOM     25  C   UNL     1       1.687   8.847  18.549  0.00  0.00    +0.000 A 
ATOM     26  C   UNL     1       1.019   9.994  18.106  0.00  0.00    +0.000 A 
BRANCH  21  27
ATOM     27  C   UNL     1      -0.547  11.962  18.477  0.00  0.00    +0.000 C 
ATOM     28  C   UNL     1      -0.037  13.183  19.251  0.00  0.00    +0.000 C 
BRANCH  27  32
ATOM     29  C   UNL     1      -4.268  11.437  17.972  0.00  0.00    +0.000 C 
ATOM     30  C   UNL     1      -2.814  11.462  17.584  0.00  0.00    +0.000 C 
ATOM     31  O   UNL     1      -2.418  11.172  16.459  0.00  0.00    +0.000 OA
ATOM     32  N   UNL     1      -1.990  11.830  18.619  0.00  0.00    +0.000 N 
ATOM     33  H   UNL     1      -2.410  12.109  19.494  0.00  0.00    +0.000 HD
ENDBRANCH  27  32
ENDBRANCH  21  27
ENDBRANCH  20  24
ENDBRANCH   1  20
TORSDOF 5
ENDMDL
MODEL 6
REMARK VINA RESULT:      -8.7      5.056     11.369
REMARK  Name = 
REMARK  7 active torsions:
REMARK  status: ('A' for Active; 'I' for Inactive)
REMARK    1  A    between atoms: C_1  and  C_2
REMARK    2  A    between atoms: N_4  and  C_5
REMARK    3  A    between atoms: C_5  and  C_6
REMARK    4  A    between atoms: C_5  and  C_7
REMARK    5  A    between atoms: C_10  and  O_11
REMARK    6  A    between atoms: O_11  and  C_12
REMARK    7  A    between atoms: N_15  and  C_16
REMARK                            x       y       z     vdW  Elec       q    Type
REMARK                         _______ _______ _______ _____ _____    ______ ____
ROOT
ATOM      1  C   UNL     1       0.826   9.669  19.083  0.00  0.00    +0.000 C 
ATOM      2  C   UNL     1       1.513  11.024  18.911  0.00  0.00    +0.000 C 
ATOM      3  C   UNL     1       0.853  11.951  19.928  0.00  0.00    +0.000 C 
ATOM      4  N   UNL     1      -0.500  11.433  20.062  0.00  0.00    +0.000 N 
ATOM      5  C   UNL     1      -0.551  10.018  19.680  0.00  0.00    +0.000 C 
ENDROOT
BRANCH   4   6
ATOM      6  C   UNL     1      -1.504  12.029  20.810  0.00  0.00    +0.000 A 
ATOM      7  C   UNL     1      -1.290  12.441  22.127  0.00  0.00    +0.000 A 
ATOM      8  C   UNL     1      -2.320  13.044  22.837  0.00  0.00    +0.000 A 
ATOM      9  N   UNL     1      -3.562  13.253  22.353  0.00  0.00    +0.000 NA
ATOM     10  C   UNL     1      -3.820  12.865  21.087  0.00  0.00    +0.000 A 
ATOM     11  N   UNL     1      -5.103  13.057  20.582  0.00  0.00    +0.000 N 
ATOM     12  C   UNL     1      -6.174  13.537  21.464  0.00  0.00    +0.000 C 
ATOM     13  C   UNL     1      -7.250  12.458  21.394  0.00  0.00    +0.000 C 
ATOM     14  C   UNL     1      -7.139  11.974  19.969  0.00  0.00    +0.000 C 
ATOM     15  F   UNL     1      -7.640  10.729  19.832  0.00  0.00    +0.000 F 
ATOM     16  F   UNL     1      -7.831  12.787  19.137  0.00  0.00    +0.000 F 
ATOM     17  C   UNL     1      -5.644  12.025  19.670  0.00  0.00    +0.000 C 
ATOM     18  C   UNL     1      -2.795  12.293  20.301  0.00  0.00    +0.000 A 
ATOM     19  F   UNL     1      -3.066  11.989  19.017  0.00  0.00    +0.000 F 
ENDBRANCH   4   6
BRANCH   1  20
ATOM     20  O   UNL     1       1.619   8.834  19.944  0.00  0.00    +0.000 OA
BRANCH  20  24
ATOM     21  C   UNL     1       3.281   5.455  18.071  0.00  0.00    +0.000 A 
ATOM     22  C   UNL     1       3.249   6.711  17.450  0.00  0.00    +0.000 A 
ATOM     23  C   UNL     1       2.680   7.817  18.100  0.00  0.00    +0.000 A 
ATOM     24  C   UNL     1       2.116   7.687  19.371  0.00  0.00    +0.000 A 
ATOM     25  C   UNL     1       2.138   6.437  19.990  0.00  0.00    +0.000 A 
ATOM     26  C   UNL     1       2.710   5.335  19.346  0.00  0.00    +0.000 A 
BRANCH  21  27
ATOM     27  C   UNL     1       3.962   4.269  17.406  0.00  0.00    +0.000 C 
ATOM     28  C   UNL     1       3.258   2.947  17.735  0.00  0.00    +0.000 C 
BRANCH  27  32
ATOM     29  C   UNL     1       7.735   4.522  17.676  0.00  0.00    +0.000 C 
ATOM     30  C   UNL     1       6.381   4.727  17.052  0.00  0.00    +0.000 C 
ATOM     31  O   UNL     1       6.219   5.296  15.977  0.00  0.00    +0.000 OA
ATOM     32  N   UNL     1       5.358   4.223  17.817  0.00  0.00    +0.000 N 
ATOM     33  H   UNL     1       5.590   3.718  18.661  0.00  0.00    +0.000 HD
ENDBRANCH  27  32
ENDBRANCH  21  27
ENDBRANCH  20  24
ENDBRANCH   1  20
TORSDOF 5
ENDMDL
MODEL 7
REMARK VINA RESULT:      -8.7      4.213      5.992
REMARK  Name = 
REMARK  7 active torsions:
REMARK  status: ('A' for Active; 'I' for Inactive)
REMARK    1  A    between atoms: C_1  and  C_2
REMARK    2  A    between atoms: N_4  and  C_5
REMARK    3  A    between atoms: C_5  and  C_6
REMARK    4  A    between atoms: C_5  and  C_7
REMARK    5  A    between atoms: C_10  and  O_11
REMARK    6  A    between atoms: O_11  and  C_12
REMARK    7  A    between atoms: N_15  and  C_16
REMARK                            x       y       z     vdW  Elec       q    Type
REMARK                         _______ _______ _______ _____ _____    ______ ____
ROOT
ATOM      1  C   UNL     1      -0.504  10.003  22.444  0.00  0.00    +0.000 C 
ATOM      2  C   UNL     1       0.568   9.400  23.352  0.00  0.00    +0.000 C 
ATOM      3  C   UNL     1       1.690   8.951  22.420  0.00  0.00    +0.000 C 
ATOM      4  N   UNL     1       1.013   8.617  21.177  0.00  0.00    +0.000 N 
ATOM      5  C   UNL     1      -0.269   9.324  21.082  0.00  0.00    +0.000 C 
ENDROOT
BRANCH   4   6
ATOM      6  C   UNL     1       1.629   8.059  20.067  0.00  0.00    +0.000 A 
ATOM      7  C   UNL     1       1.898   8.811  18.922  0.00  0.00    +0.000 A 
ATOM      8  C   UNL     1       2.526   8.216  17.837  0.00  0.00    +0.000 A 
ATOM      9  N   UNL     1       2.893   6.919  17.783  0.00  0.00    +0.000 NA
ATOM     10  C   UNL     1       2.647   6.148  18.863  0.00  0.00    +0.000 A 
ATOM     11  N   UNL     1       3.002   4.802  18.813  0.00  0.00    +0.000 N 
ATOM     12  C   UNL     1       3.497   4.220  17.559  0.00  0.00    +0.000 C 
ATOM     13  C   UNL     1       2.533   3.079  17.252  0.00  0.00    +0.000 C 
ATOM     14  C   UNL     1       2.173   2.573  18.628  0.00  0.00    +0.000 C 
ATOM     15  F   UNL     1       0.997   1.911  18.615  0.00  0.00    +0.000 F 
ATOM     16  F   UNL     1       3.119   1.718  19.081  0.00  0.00    +0.000 F 
ATOM     17  C   UNL     1       2.112   3.832  19.487  0.00  0.00    +0.000 C 
ATOM     18  C   UNL     1       2.056   6.714  20.015  0.00  0.00    +0.000 A 
ATOM     19  F   UNL     1       1.897   5.934  21.102  0.00  0.00    +0.000 F 
ENDBRANCH   4   6
BRANCH   1  20
ATOM     20  O   UNL     1      -0.347  11.431  22.399  0.00  0.00    +0.000 OA
BRANCH  20  24
ATOM     21  C   UNL     1      -3.946  13.582  22.073  0.00  0.00    +0.000 A 
ATOM     22  C   UNL     1      -3.164  13.263  20.954  0.00  0.00    +0.000 A 
ATOM     23  C   UNL     1      -1.964  12.551  21.098  0.00  0.00    +0.000 A 
ATOM     24  C   UNL     1      -1.513  12.159  22.361  0.00  0.00    +0.000 A 
ATOM     25  C   UNL     1      -2.283  12.480  23.478  0.00  0.00    +0.000 A 
ATOM     26  C   UNL     1      -3.483  13.186  23.336  0.00  0.00    +0.000 A 
BRANCH  21  27
ATOM     27  C   UNL     1      -5.285  14.287  21.919  0.00  0.00    +0.000 C 
ATOM     28  C   UNL     1      -5.215  15.750  22.370  0.00  0.00    +0.000 C 
BRANCH  27  32
ATOM     29  C   UNL     1      -7.916  11.863  23.175  0.00  0.00    +0.000 C 
ATOM     30  C   UNL     1      -6.864  12.391  22.238  0.00  0.00    +0.000 C 
ATOM     31  O   UNL     1      -6.545  11.819  21.200  0.00  0.00    +0.000 OA
ATOM     32  N   UNL     1      -6.299  13.565  22.674  0.00  0.00    +0.000 N 
ATOM     33  H   UNL     1      -6.667  13.995  23.511  0.00  0.00    +0.000 HD
ENDBRANCH  27  32
ENDBRANCH  21  27
ENDBRANCH  20  24
ENDBRANCH   1  20
TORSDOF 5
ENDMDL
MODEL 8
REMARK VINA RESULT:      -8.7      1.679      2.484
REMARK  Name = 
REMARK  7 active torsions:
REMARK  status: ('A' for Active; 'I' for Inactive)
REMARK    1  A    between atoms: C_1  and  C_2
REMARK    2  A    between atoms: N_4  and  C_5
REMARK    3  A    between atoms: C_5  and  C_6
REMARK    4  A    between atoms: C_5  and  C_7
REMARK    5  A    between atoms: C_10  and  O_11
REMARK    6  A    between atoms: O_11  and  C_12
REMARK    7  A    between atoms: N_15  and  C_16
REMARK                            x       y       z     vdW  Elec       q    Type
REMARK                         _______ _______ _______ _____ _____    ______ ____
ROOT
ATOM      1  C   UNL     1       2.092   5.631  19.668  0.00  0.00    +0.000 C 
ATOM      2  C   UNL     1       2.767   4.363  20.192  0.00  0.00    +0.000 C 
ATOM      3  C   UNL     1       4.197   4.410  19.662  0.00  0.00    +0.000 C 
ATOM      4  N   UNL     1       4.093   5.142  18.409  0.00  0.00    +0.000 N 
ATOM      5  C   UNL     1       2.898   5.993  18.407  0.00  0.00    +0.000 C 
ENDROOT
BRANCH   4   6
ATOM      6  C   UNL     1       5.138   5.339  17.519  0.00  0.00    +0.000 A 
ATOM      7  C   UNL     1       6.070   6.362  17.700  0.00  0.00    +0.000 A 
ATOM      8  C   UNL     1       7.108   6.518  16.791  0.00  0.00    +0.000 A 
ATOM      9  N   UNL     1       7.287   5.751  15.696  0.00  0.00    +0.000 NA
ATOM     10  C   UNL     1       6.407   4.753  15.473  0.00  0.00    +0.000 A 
ATOM     11  N   UNL     1       6.568   3.967  14.335  0.00  0.00    +0.000 N 
ATOM     12  C   UNL     1       7.587   4.319  13.339  0.00  0.00    +0.000 C 
ATOM     13  C   UNL     1       6.813   4.506  12.038  0.00  0.00    +0.000 C 
ATOM     14  C   UNL     1       5.709   3.483  12.163  0.00  0.00    +0.000 C 
ATOM     15  F   UNL     1       4.657   3.799  11.379  0.00  0.00    +0.000 F 
ATOM     16  F   UNL     1       6.149   2.262  11.782  0.00  0.00    +0.000 F 
ATOM     17  C   UNL     1       5.345   3.501  13.644  0.00  0.00    +0.000 C 
ATOM     18  C   UNL     1       5.360   4.516  16.393  0.00  0.00    +0.000 A 
ATOM     19  F   UNL     1       4.547   3.464  16.180  0.00  0.00    +0.000 F 
ENDBRANCH   4   6
BRANCH   1  20
ATOM     20  O   UNL     1       2.138   6.652  20.680  0.00  0.00    +0.000 OA
BRANCH  20  24
ATOM     21  C   UNL     1       0.328  10.362  19.879  0.00  0.00    +0.000 A 
ATOM     22  C   UNL     1       0.075   9.648  21.059  0.00  0.00    +0.000 A 
ATOM     23  C   UNL     1       0.689   8.409  21.292  0.00  0.00    +0.000 A 
ATOM     24  C   UNL     1       1.552   7.850  20.346  0.00  0.00    +0.000 A 
ATOM     25  C   UNL     1       1.802   8.553  19.168  0.00  0.00    +0.000 A 
ATOM     26  C   UNL     1       1.194   9.792  18.936  0.00  0.00    +0.000 A 
BRANCH  21  27
ATOM     27  C   UNL     1      -0.275  11.740  19.652  0.00  0.00    +0.000 C 
ATOM     28  C   UNL     1      -1.423  11.702  18.637  0.00  0.00    +0.000 C 
BRANCH  27  32
ATOM     29  C   UNL     1       2.561  14.243  19.386  0.00  0.00    +0.000 C 
ATOM     30  C   UNL     1       1.594  13.325  20.084  0.00  0.00    +0.000 C 
ATOM     31  O   UNL     1       1.561  13.190  21.303  0.00  0.00    +0.000 OA
ATOM     32  N   UNL     1       0.769  12.656  19.213  0.00  0.00    +0.000 N 
ATOM     33  H   UNL     1       0.827  12.874  18.229  0.00  0.00    +0.000 HD
ENDBRANCH  27  32
ENDBRANCH  21  27
ENDBRANCH  20  24
ENDBRANCH   1  20
TORSDOF 5
ENDMDL
MODEL 9
REMARK VINA RESULT:      -8.7      4.252      6.528
REMARK  Name = 
REMARK  7 active torsions:
REMARK  status: ('A' for Active; 'I' for Inactive)
REMARK    1  A    between atoms: C_1  and  C_2
REMARK    2  A    between atoms: N_4  and  C_5
REMARK    3  A    between atoms: C_5  and  C_6
REMARK    4  A    between atoms: C_5  and  C_7
REMARK    5  A    between atoms: C_10  and  O_11
REMARK    6  A    between atoms: O_11  and  C_12
REMARK    7  A    between atoms: N_15  and  C_16
REMARK                            x       y       z     vdW  Elec       q    Type
REMARK                         _______ _______ _______ _____ _____    ______ ____
ROOT
ATOM      1  C   UNL     1      -0.726  10.487  21.700  0.00  0.00    +0.000 C 
ATOM      2  C   UNL     1       0.108   9.833  22.801  0.00  0.00    +0.000 C 
ATOM      3  C   UNL     1       1.324   9.236  22.097  0.00  0.00    +0.000 C 
ATOM      4  N   UNL     1       0.841   8.906  20.765  0.00  0.00    +0.000 N 
ATOM      5  C   UNL     1      -0.328   9.723  20.423  0.00  0.00    +0.000 C 
ENDROOT
BRANCH   4   6
ATOM      6  C   UNL     1       1.580   8.239  19.799  0.00  0.00    +0.000 A 
ATOM      7  C   UNL     1       2.092   8.900  18.682  0.00  0.00    +0.000 A 
ATOM      8  C   UNL     1       2.837   8.197  17.744  0.00  0.00    +0.000 A 
ATOM      9  N   UNL     1       3.098   6.874  17.812  0.00  0.00    +0.000 NA
ATOM     10  C   UNL     1       2.617   6.189  18.870  0.00  0.00    +0.000 A 
ATOM     11  N   UNL     1       2.862   4.820  18.942  0.00  0.00    +0.000 N 
ATOM     12  C   UNL     1       3.502   4.130  17.815  0.00  0.00    +0.000 C 
ATOM     13  C   UNL     1       2.509   3.048  17.404  0.00  0.00    +0.000 C 
ATOM     14  C   UNL     1       1.890   2.652  18.723  0.00  0.00    +0.000 C 
ATOM     15  F   UNL     1       0.681   2.081  18.545  0.00  0.00    +0.000 F 
ATOM     16  F   UNL     1       2.675   1.757  19.365  0.00  0.00    +0.000 F 
ATOM     17  C   UNL     1       1.796   3.960  19.502  0.00  0.00    +0.000 C 
ATOM     18  C   UNL     1       1.896   6.864  19.881  0.00  0.00    +0.000 A 
ATOM     19  F   UNL     1       1.498   6.164  20.960  0.00  0.00    +0.000 F 
ENDBRANCH   4   6
BRANCH   1  20
ATOM     20  O   UNL     1      -0.421  11.891  21.636  0.00  0.00    +0.000 OA
BRANCH  20  24
ATOM     21  C   UNL     1      -3.410  14.471  23.081  0.00  0.00    +0.000 A 
ATOM     22  C   UNL     1      -2.810  13.498  23.892  0.00  0.00    +0.000 A 
ATOM     23  C   UNL     1      -1.820  12.647  23.376  0.00  0.00    +0.000 A 
ATOM     24  C   UNL     1      -1.425  12.739  22.040  0.00  0.00    +0.000 A 
ATOM     25  C   UNL     1      -2.024  13.701  21.228  0.00  0.00    +0.000 A 
ATOM     26  C   UNL     1      -3.007  14.554  21.742  0.00  0.00    +0.000 A 
BRANCH  21  27
ATOM     27  C   UNL     1      -4.428  15.447  23.652  0.00  0.00    +0.000 C 
ATOM     28  C   UNL     1      -3.817  16.340  24.737  0.00  0.00    +0.000 C 
BRANCH  27  32
ATOM     29  C   UNL     1      -7.771  13.763  24.257  0.00  0.00    +0.000 C 
ATOM     30  C   UNL     1      -6.735  14.532  23.482  0.00  0.00    +0.000 C 
ATOM     31  O   UNL     1      -6.926  14.950  22.345  0.00  0.00    +0.000 OA
ATOM     32  N   UNL     1      -5.564  14.703  24.178  0.00  0.00    +0.000 N 
ATOM     33  H   UNL     1      -5.518  14.376  25.133  0.00  0.00    +0.000 HD
ENDBRANCH  27  32
ENDBRANCH  21  27
ENDBRANCH  20  24
ENDBRANCH   1  20
TORSDOF 5
ENDMDL
