MODEL 1
REMARK VINA RESULT:      -8.0      0.000      0.000
REMARK  Name = 
REMARK  7 active torsions:
REMARK  status: ('A' for Active; 'I' for Inactive)
REMARK    1  A    between atoms: C_1  and  C_2
REMARK    2  A    between atoms: C_3  and  C_4
REMARK    3  A    between atoms: N_6  and  C_7
REMARK    4  A    between atoms: C_7  and  C_8
REMARK    5  A    between atoms: C_8  and  O_9
REMARK    6  A    between atoms: O_9  and  C_10
REMARK    7  A    between atoms: C_19  and  C_20
REMARK                            x       y       z     vdW  Elec       q    Type
REMARK                         _______ _______ _______ _____ _____    ______ ____
ROOT
ATOM      1  C   UNL     1       2.352   7.977  17.849  0.00  0.00    +0.000 C 
ATOM      2  C   UNL     1       1.798   8.293  19.215  0.00  0.00    +0.000 A 
ATOM      3  C   UNL     1       1.707   7.441  20.268  0.00  0.00    +0.000 A 
ATOM      4  C   UNL     1       1.111   8.047  21.499  0.00  0.00    +0.000 A 
ATOM      5  N   UNL     1       0.705   9.269  21.665  0.00  0.00    +0.000 NA
ATOM      6  C   UNL     1       0.817  10.088  20.576  0.00  0.00    +0.000 A 
ATOM      7  C   UNL     1       0.466  11.414  20.371  0.00  0.00    +0.000 A 
ATOM      8  C   UNL     1       0.807  11.657  19.026  0.00  0.00    +0.000 A 
ATOM      9  N   UNL     1       1.345  10.601  18.421  0.00  0.00    +0.000 NA
ATOM     10  N   UNL     1       1.347   9.622  19.365  0.00  0.00    +0.000 N 
ENDROOT
BRANCH   7  11
ATOM     11  C   UNL     1      -0.153  12.293  21.354  0.00  0.00    +0.000 A 
ATOM     12  C   UNL     1       0.380  13.567  21.596  0.00  0.00    +0.000 A 
ATOM     13  C   UNL     1      -0.222  14.428  22.521  0.00  0.00    +0.000 A 
ATOM     14  C   UNL     1      -1.360  14.023  23.221  0.00  0.00    +0.000 A 
ATOM     15 CL   UNL     1      -2.064  15.143  24.332  0.00  0.00    +0.000 Cl
ATOM     16  C   UNL     1      -1.889  12.749  23.002  0.00  0.00    +0.000 A 
ATOM     17 CL   UNL     1      -3.290  12.172  23.835  0.00  0.00    +0.000 Cl
ATOM     18  C   UNL     1      -1.283  11.891  22.079  0.00  0.00    +0.000 A 
ENDBRANCH   7  11
BRANCH   3  19
ATOM     19  C   UNL     1       2.106   6.002  20.210  0.00  0.00    +0.000 C 
ATOM     20  O   UNL     1       1.286   5.097  20.339  0.00  0.00    +0.000 OA
ATOM     21  N   UNL     1       3.444   5.741  20.013  0.00  0.00    +0.000 N 
ATOM     22  H   UNL     1       4.132   6.481  20.002  0.00  0.00    +0.000 HD
BRANCH  21  23
ATOM     23  C   UNL     1       3.933   4.367  19.981  0.00  0.00    +0.000 C 
BRANCH  23  24
ATOM     24  C   UNL     1       4.529   3.996  18.624  0.00  0.00    +0.000 C 
BRANCH  24  25
ATOM     25  O   UNL     1       5.954   4.009  18.709  0.00  0.00    +0.000 OA
BRANCH  25  26
ATOM     26  C   UNL     1       6.551   5.203  18.402  0.00  0.00    +0.000 A 
ATOM     27  C   UNL     1       5.963   5.922  17.359  0.00  0.00    +0.000 A 
ATOM     28  C   UNL     1       6.491   7.152  16.960  0.00  0.00    +0.000 A 
ATOM     29  C   UNL     1       7.601   7.679  17.617  0.00  0.00    +0.000 A 
ATOM     30  C   UNL     1       8.177   6.979  18.673  0.00  0.00    +0.000 A 
ATOM     31  C   UNL     1       7.654   5.746  19.066  0.00  0.00    +0.000 A 
ENDBRANCH  25  26
ENDBRANCH  24  25
ENDBRANCH  23  24
ENDBRANCH  21  23
ENDBRANCH   3  19
TORSDOF 6
ENDMDL
MODEL 2
REMARK VINA RESULT:      -8.0      2.561      3.511
REMARK  Name = 
REMARK  7 active torsions:
REMARK  status: ('A' for Active; 'I' for Inactive)
REMARK    1  A    between atoms: C_1  and  C_2
REMARK    2  A    between atoms: C_3  and  C_4
REMARK    3  A    between atoms: N_6  and  C_7
REMARK    4  A    between atoms: C_7  and  C_8
REMARK    5  A    between atoms: C_8  and  O_9
REMARK    6  A    between atoms: O_9  and  C_10
REMARK    7  A    between atoms: C_19  and  C_20
REMARK                            x       y       z     vdW  Elec       q    Type
REMARK                         _______ _______ _______ _____ _____    ______ ____
ROOT
ATOM      1  C   UNL     1       1.807   5.520  20.942  0.00  0.00    +0.000 C 
ATOM      2  C   UNL     1       2.047   6.668  19.994  0.00  0.00    +0.000 A 
ATOM      3  C   UNL     1       2.862   6.664  18.909  0.00  0.00    +0.000 A 
ATOM      4  C   UNL     1       2.892   7.958  18.158  0.00  0.00    +0.000 A 
ATOM      5  N   UNL     1       2.226   9.042  18.417  0.00  0.00    +0.000 NA
ATOM      6  C   UNL     1       1.419   8.996  19.520  0.00  0.00    +0.000 A 
ATOM      7  C   UNL     1       0.602   9.947  20.114  0.00  0.00    +0.000 A 
ATOM      8  C   UNL     1       0.069   9.290  21.239  0.00  0.00    +0.000 A 
ATOM      9  N   UNL     1       0.482   8.030  21.357  0.00  0.00    +0.000 NA
ATOM     10  N   UNL     1       1.325   7.840  20.307  0.00  0.00    +0.000 N 
ENDROOT
BRANCH   7  11
ATOM     11  C   UNL     1       0.413  11.315  19.650  0.00  0.00    +0.000 A 
ATOM     12  C   UNL     1      -0.853  11.913  19.714  0.00  0.00    +0.000 A 
ATOM     13  C   UNL     1      -1.040  13.235  19.294  0.00  0.00    +0.000 A 
ATOM     14  C   UNL     1       0.036  13.975  18.799  0.00  0.00    +0.000 A 
ATOM     15 CL   UNL     1      -0.260  15.607  18.318  0.00  0.00    +0.000 Cl
ATOM     16  C   UNL     1       1.299  13.383  18.714  0.00  0.00    +0.000 A 
ATOM     17 CL   UNL     1       2.679  14.229  18.105  0.00  0.00    +0.000 Cl
ATOM     18  C   UNL     1       1.481  12.061  19.131  0.00  0.00    +0.000 A 
ENDBRANCH   7  11
BRANCH   3  19
ATOM     19  C   UNL     1       3.710   5.500  18.510  0.00  0.00    +0.000 C 
ATOM     20  O   UNL     1       4.604   5.073  19.235  0.00  0.00    +0.000 OA
ATOM     21  N   UNL     1       3.442   4.934  17.284  0.00  0.00    +0.000 N 
ATOM     22  H   UNL     1       2.772   5.341  16.647  0.00  0.00    +0.000 HD
BRANCH  21  23
ATOM     23  C   UNL     1       4.243   3.817  16.793  0.00  0.00    +0.000 C 
BRANCH  23  24
ATOM     24  C   UNL     1       5.202   4.238  15.682  0.00  0.00    +0.000 C 
BRANCH  24  25
ATOM     25  O   UNL     1       6.549   4.095  16.133  0.00  0.00    +0.000 OA
BRANCH  25  26
ATOM     26  C   UNL     1       7.017   5.115  16.920  0.00  0.00    +0.000 A 
ATOM     27  C   UNL     1       7.618   4.724  18.118  0.00  0.00    +0.000 A 
ATOM     28  C   UNL     1       8.129   5.680  19.000  0.00  0.00    +0.000 A 
ATOM     29  C   UNL     1       8.056   7.034  18.677  0.00  0.00    +0.000 A 
ATOM     30  C   UNL     1       7.480   7.428  17.473  0.00  0.00    +0.000 A 
ATOM     31  C   UNL     1       6.963   6.472  16.596  0.00  0.00    +0.000 A 
ENDBRANCH  25  26
ENDBRANCH  24  25
ENDBRANCH  23  24
ENDBRANCH  21  23
ENDBRANCH   3  19
TORSDOF 6
ENDMDL
MODEL 3
REMARK VINA RESULT:      -7.9      0.709      1.364
REMARK  Name = 
REMARK  7 active torsions:
REMARK  status: ('A' for Active; 'I' for Inactive)
REMARK    1  A    between atoms: C_1  and  C_2
REMARK    2  A    between atoms: C_3  and  C_4
REMARK    3  A    between atoms: N_6  and  C_7
REMARK    4  A    between atoms: C_7  and  C_8
REMARK    5  A    between atoms: C_8  and  O_9
REMARK    6  A    between atoms: O_9  and  C_10
REMARK    7  A    between atoms: C_19  and  C_20
REMARK                            x       y       z     vdW  Elec       q    Type
REMARK                         _______ _______ _______ _____ _____    ______ ____
ROOT
ATOM      1  C   UNL     1       2.706   8.020  17.503  0.00  0.00    +0.000 C 
ATOM      2  C   UNL     1       2.052   8.204  18.850  0.00  0.00    +0.000 A 
ATOM      3  C   UNL     1       1.873   7.251  19.799  0.00  0.00    +0.000 A 
ATOM      4  C   UNL     1       1.191   7.738  21.038  0.00  0.00    +0.000 A 
ATOM      5  N   UNL     1       0.783   8.943  21.298  0.00  0.00    +0.000 NA
ATOM      6  C   UNL     1       0.985   9.867  20.311  0.00  0.00    +0.000 A 
ATOM      7  C   UNL     1       0.661  11.212  20.217  0.00  0.00    +0.000 A 
ATOM      8  C   UNL     1       1.106  11.586  18.934  0.00  0.00    +0.000 A 
ATOM      9  N   UNL     1       1.680  10.589  18.266  0.00  0.00    +0.000 NA
ATOM     10  N   UNL     1       1.602   9.518  19.101  0.00  0.00    +0.000 N 
ENDROOT
BRANCH   7  11
ATOM     11  C   UNL     1      -0.023  11.996  21.237  0.00  0.00    +0.000 A 
ATOM     12  C   UNL     1      -1.034  11.413  22.014  0.00  0.00    +0.000 A 
ATOM     13  C   UNL     1      -1.681  12.151  23.012  0.00  0.00    +0.000 A 
ATOM     14  C   UNL     1      -1.328  13.483  23.243  0.00  0.00    +0.000 A 
ATOM     15 CL   UNL     1      -2.151  14.327  24.505  0.00  0.00    +0.000 Cl
ATOM     16  C   UNL     1      -0.335  14.079  22.463  0.00  0.00    +0.000 A 
ATOM     17 CL   UNL     1       0.152  15.724  22.681  0.00  0.00    +0.000 Cl
ATOM     18  C   UNL     1       0.307  13.339  21.464  0.00  0.00    +0.000 A 
ENDBRANCH   7  11
BRANCH   3  19
ATOM     19  C   UNL     1       2.264   5.819  19.623  0.00  0.00    +0.000 C 
ATOM     20  O   UNL     1       1.544   5.021  19.030  0.00  0.00    +0.000 OA
ATOM     21  N   UNL     1       3.470   5.439  20.168  0.00  0.00    +0.000 N 
ATOM     22  H   UNL     1       4.018   6.069  20.736  0.00  0.00    +0.000 HD
BRANCH  21  23
ATOM     23  C   UNL     1       3.917   4.052  20.080  0.00  0.00    +0.000 C 
BRANCH  23  24
ATOM     24  C   UNL     1       4.778   3.799  18.844  0.00  0.00    +0.000 C 
BRANCH  24  25
ATOM     25  O   UNL     1       6.144   4.079  19.148  0.00  0.00    +0.000 OA
BRANCH  25  26
ATOM     26  C   UNL     1       6.632   5.253  18.637  0.00  0.00    +0.000 A 
ATOM     27  C   UNL     1       5.905   5.798  17.576  0.00  0.00    +0.000 A 
ATOM     28  C   UNL     1       6.313   6.992  16.977  0.00  0.00    +0.000 A 
ATOM     29  C   UNL     1       7.442   7.658  17.450  0.00  0.00    +0.000 A 
ATOM     30  C   UNL     1       8.157   7.133  18.523  0.00  0.00    +0.000 A 
ATOM     31  C   UNL     1       7.753   5.935  19.116  0.00  0.00    +0.000 A 
ENDBRANCH  25  26
ENDBRANCH  24  25
ENDBRANCH  23  24
ENDBRANCH  21  23
ENDBRANCH   3  19
TORSDOF 6
ENDMDL
MODEL 4
REMARK VINA RESULT:      -7.8      4.525      9.472
REMARK  Name = 
REMARK  7 active torsions:
REMARK  status: ('A' for Active; 'I' for Inactive)
REMARK    1  A    between atoms: C_1  and  C_2
REMARK    2  A    between atoms: C_3  and  C_4
REMARK    3  A    between atoms: N_6  and  C_7
REMARK    4  A    between atoms: C_7  and  C_8
REMARK    5  A    between atoms: C_8  and  O_9
REMARK    6  A    between atoms: O_9  and  C_10
REMARK    7  A    between atoms: C_19  and  C_20
REMARK                            x       y       z     vdW  Elec       q    Type
REMARK                         _______ _______ _______ _____ _____    ______ ____
ROOT
ATOM      1  C   UNL     1       0.516  11.820  18.700  0.00  0.00    +0.000 C 
ATOM      2  C   UNL     1       0.764  10.658  19.629  0.00  0.00    +0.000 A 
ATOM      3  C   UNL     1       0.438  10.591  20.945  0.00  0.00    +0.000 A 
ATOM      4  C   UNL     1       0.811   9.301  21.604  0.00  0.00    +0.000 A 
ATOM      5  N   UNL     1       1.378   8.266  21.061  0.00  0.00    +0.000 NA
ATOM      6  C   UNL     1       1.687   8.383  19.735  0.00  0.00    +0.000 A 
ATOM      7  C   UNL     1       2.312   7.520  18.847  0.00  0.00    +0.000 A 
ATOM      8  C   UNL     1       2.362   8.244  17.640  0.00  0.00    +0.000 A 
ATOM      9  N   UNL     1       1.807   9.451  17.727  0.00  0.00    +0.000 NA
ATOM     10  N   UNL     1       1.397   9.554  19.019  0.00  0.00    +0.000 N 
ENDROOT
BRANCH   7  11
ATOM     11  C   UNL     1       2.817   6.192  19.164  0.00  0.00    +0.000 A 
ATOM     12  C   UNL     1       4.095   5.803  18.739  0.00  0.00    +0.000 A 
ATOM     13  C   UNL     1       4.599   4.537  19.060  0.00  0.00    +0.000 A 
ATOM     14  C   UNL     1       3.829   3.641  19.805  0.00  0.00    +0.000 A 
ATOM     15 CL   UNL     1       4.520   2.105  20.184  0.00  0.00    +0.000 Cl
ATOM     16  C   UNL     1       2.547   4.011  20.219  0.00  0.00    +0.000 A 
ATOM     17 CL   UNL     1       1.529   2.957  21.137  0.00  0.00    +0.000 Cl
ATOM     18  C   UNL     1       2.046   5.276  19.893  0.00  0.00    +0.000 A 
ENDBRANCH   7  11
BRANCH   3  19
ATOM     19  C   UNL     1      -0.188  11.715  21.705  0.00  0.00    +0.000 C 
ATOM     20  O   UNL     1       0.411  12.765  21.916  0.00  0.00    +0.000 OA
ATOM     21  N   UNL     1      -1.469  11.509  22.165  0.00  0.00    +0.000 N 
ATOM     22  H   UNL     1      -1.927  10.613  22.074  0.00  0.00    +0.000 HD
BRANCH  21  23
ATOM     23  C   UNL     1      -2.148  12.535  22.950  0.00  0.00    +0.000 C 
BRANCH  23  24
ATOM     24  C   UNL     1      -3.630  12.647  22.600  0.00  0.00    +0.000 C 
BRANCH  24  25
ATOM     25  O   UNL     1      -3.789  13.486  21.456  0.00  0.00    +0.000 OA
BRANCH  25  26
ATOM     26  C   UNL     1      -4.175  12.847  20.307  0.00  0.00    +0.000 A 
ATOM     27  C   UNL     1      -5.541  12.896  20.019  0.00  0.00    +0.000 A 
ATOM     28  C   UNL     1      -6.046  12.277  18.873  0.00  0.00    +0.000 A 
ATOM     29  C   UNL     1      -5.182  11.619  17.998  0.00  0.00    +0.000 A 
ATOM     30  C   UNL     1      -3.817  11.588  18.268  0.00  0.00    +0.000 A 
ATOM     31  C   UNL     1      -3.314  12.201  19.417  0.00  0.00    +0.000 A 
ENDBRANCH  25  26
ENDBRANCH  24  25
ENDBRANCH  23  24
ENDBRANCH  21  23
ENDBRANCH   3  19
TORSDOF 6
ENDMDL
MODEL 5
REMARK VINA RESULT:      -7.8      5.457     10.155
REMARK  Name = 
REMARK  7 active torsions:
REMARK  status: ('A' for Active; 'I' for Inactive)
REMARK    1  A    between atoms: C_1  and  C_2
REMARK    2  A    between atoms: C_3  and  C_4
REMARK    3  A    between atoms: N_6  and  C_7
REMARK    4  A    between atoms: C_7  and  C_8
REMARK    5  A    between atoms: C_8  and  O_9
REMARK    6  A    between atoms: O_9  and  C_10
REMARK    7  A    between atoms: C_19  and  C_20
REMARK                            x       y       z     vdW  Elec       q    Type
REMARK                         _______ _______ _______ _____ _____    ______ ____
ROOT
ATOM      1  C   UNL     1       1.601   5.081  20.708  0.00  0.00    +0.000 C 
ATOM      2  C   UNL     1       2.326   5.823  19.613  0.00  0.00    +0.000 A 
ATOM      3  C   UNL     1       2.337   7.166  19.417  0.00  0.00    +0.000 A 
ATOM      4  C   UNL     1       3.152   7.608  18.242  0.00  0.00    +0.000 A 
ATOM      5  N   UNL     1       3.842   6.865  17.431  0.00  0.00    +0.000 NA
ATOM      6  C   UNL     1       3.799   5.520  17.670  0.00  0.00    +0.000 A 
ATOM      7  C   UNL     1       4.368   4.440  17.011  0.00  0.00    +0.000 A 
ATOM      8  C   UNL     1       3.914   3.319  17.732  0.00  0.00    +0.000 A 
ATOM      9  N   UNL     1       3.143   3.636  18.768  0.00  0.00    +0.000 NA
ATOM     10  N   UNL     1       3.054   4.993  18.734  0.00  0.00    +0.000 N 
ENDROOT
BRANCH   7  11
ATOM     11  C   UNL     1       5.205   4.514  15.821  0.00  0.00    +0.000 A 
ATOM     12  C   UNL     1       6.461   5.135  15.880  0.00  0.00    +0.000 A 
ATOM     13  C   UNL     1       7.282   5.190  14.748  0.00  0.00    +0.000 A 
ATOM     14  C   UNL     1       6.857   4.629  13.541  0.00  0.00    +0.000 A 
ATOM     15 CL   UNL     1       7.929   4.713  12.190  0.00  0.00    +0.000 Cl
ATOM     16  C   UNL     1       5.600   4.024  13.467  0.00  0.00    +0.000 A 
ATOM     17 CL   UNL     1       4.997   3.316  12.009  0.00  0.00    +0.000 Cl
ATOM     18  C   UNL     1       4.780   3.975  14.600  0.00  0.00    +0.000 A 
ENDBRANCH   7  11
BRANCH   3  19
ATOM     19  C   UNL     1       1.565   8.135  20.252  0.00  0.00    +0.000 C 
ATOM     20  O   UNL     1       1.293   7.903  21.426  0.00  0.00    +0.000 OA
ATOM     21  N   UNL     1       1.168   9.300  19.635  0.00  0.00    +0.000 N 
ATOM     22  H   UNL     1       1.309   9.451  18.646  0.00  0.00    +0.000 HD
BRANCH  21  23
ATOM     23  C   UNL     1       0.377  10.289  20.361  0.00  0.00    +0.000 C 
BRANCH  23  24
ATOM     24  C   UNL     1      -1.078  10.317  19.898  0.00  0.00    +0.000 C 
BRANCH  24  25
ATOM     25  O   UNL     1      -1.240  11.314  18.889  0.00  0.00    +0.000 OA
BRANCH  25  26
ATOM     26  C   UNL     1      -2.103  10.991  17.875  0.00  0.00    +0.000 A 
ATOM     27  C   UNL     1      -3.272  11.753  17.812  0.00  0.00    +0.000 A 
ATOM     28  C   UNL     1      -4.225  11.508  16.819  0.00  0.00    +0.000 A 
ATOM     29  C   UNL     1      -4.003  10.510  15.872  0.00  0.00    +0.000 A 
ATOM     30  C   UNL     1      -2.828   9.764  15.915  0.00  0.00    +0.000 A 
ATOM     31  C   UNL     1      -1.881  10.004  16.912  0.00  0.00    +0.000 A 
ENDBRANCH  25  26
ENDBRANCH  24  25
ENDBRANCH  23  24
ENDBRANCH  21  23
ENDBRANCH   3  19
TORSDOF 6
ENDMDL
MODEL 6
REMARK VINA RESULT:      -7.8      3.158      4.260
REMARK  Name = 
REMARK  7 active torsions:
REMARK  status: ('A' for Active; 'I' for Inactive)
REMARK    1  A    between atoms: C_1  and  C_2
REMARK    2  A    between atoms: C_3  and  C_4
REMARK    3  A    between atoms: N_6  and  C_7
REMARK    4  A    between atoms: C_7  and  C_8
REMARK    5  A    between atoms: C_8  and  O_9
REMARK    6  A    between atoms: O_9  and  C_10
REMARK    7  A    between atoms: C_19  and  C_20
REMARK                            x       y       z     vdW  Elec       q    Type
REMARK                         _______ _______ _______ _____ _____    ______ ____
ROOT
ATOM      1  C   UNL     1       2.234   5.538  20.602  0.00  0.00    +0.000 C 
ATOM      2  C   UNL     1       2.273   6.681  19.619  0.00  0.00    +0.000 A 
ATOM      3  C   UNL     1       2.824   6.663  18.378  0.00  0.00    +0.000 A 
ATOM      4  C   UNL     1       2.704   7.955  17.634  0.00  0.00    +0.000 A 
ATOM      5  N   UNL     1       2.129   9.050  18.031  0.00  0.00    +0.000 NA
ATOM      6  C   UNL     1       1.590   9.018  19.287  0.00  0.00    +0.000 A 
ATOM      7  C   UNL     1       0.942   9.983  20.045  0.00  0.00    +0.000 A 
ATOM      8  C   UNL     1       0.665   9.335  21.264  0.00  0.00    +0.000 A 
ATOM      9  N   UNL     1       1.074   8.069  21.292  0.00  0.00    +0.000 NA
ATOM     10  N   UNL     1       1.658   7.865  20.081  0.00  0.00    +0.000 N 
ENDROOT
BRANCH   7  11
ATOM     11  C   UNL     1       0.675  11.353  19.629  0.00  0.00    +0.000 A 
ATOM     12  C   UNL     1      -0.620  11.882  19.732  0.00  0.00    +0.000 A 
ATOM     13  C   UNL     1      -0.882  13.205  19.358  0.00  0.00    +0.000 A 
ATOM     14  C   UNL     1       0.147  14.015  18.871  0.00  0.00    +0.000 A 
ATOM     15 CL   UNL     1      -0.242  15.644  18.449  0.00  0.00    +0.000 Cl
ATOM     16  C   UNL     1       1.437  13.494  18.748  0.00  0.00    +0.000 A 
ATOM     17 CL   UNL     1       2.761  14.429  18.147  0.00  0.00    +0.000 Cl
ATOM     18  C   UNL     1       1.694  12.170  19.119  0.00  0.00    +0.000 A 
ENDBRANCH   7  11
BRANCH   3  19
ATOM     19  C   UNL     1       3.542   5.485  17.805  0.00  0.00    +0.000 C 
ATOM     20  O   UNL     1       2.945   4.473  17.449  0.00  0.00    +0.000 OA
ATOM     21  N   UNL     1       4.912   5.589  17.703  0.00  0.00    +0.000 N 
ATOM     22  H   UNL     1       5.413   6.380  18.082  0.00  0.00    +0.000 HD
BRANCH  21  23
ATOM     23  C   UNL     1       5.702   4.473  17.191  0.00  0.00    +0.000 C 
BRANCH  23  24
ATOM     24  C   UNL     1       7.141   4.879  16.880  0.00  0.00    +0.000 C 
BRANCH  24  25
ATOM     25  O   UNL     1       7.166   5.686  15.703  0.00  0.00    +0.000 OA
BRANCH  25  26
ATOM     26  C   UNL     1       6.906   5.025  14.531  0.00  0.00    +0.000 A 
ATOM     27  C   UNL     1       7.761   5.324  13.468  0.00  0.00    +0.000 A 
ATOM     28  C   UNL     1       7.588   4.710  12.225  0.00  0.00    +0.000 A 
ATOM     29  C   UNL     1       6.566   3.779  12.044  0.00  0.00    +0.000 A 
ATOM     30  C   UNL     1       5.726   3.459  13.107  0.00  0.00    +0.000 A 
ATOM     31  C   UNL     1       5.896   4.079  14.347  0.00  0.00    +0.000 A 
ENDBRANCH  25  26
ENDBRANCH  24  25
ENDBRANCH  23  24
ENDBRANCH  21  23
ENDBRANCH   3  19
TORSDOF 6
ENDMDL
MODEL 7
REMARK VINA RESULT:      -7.8      2.001      2.291
REMARK  Name = 
REMARK  7 active torsions:
REMARK  status: ('A' for Active; 'I' for Inactive)
REMARK    1  A    between atoms: C_1  and  C_2
REMARK    2  A    between atoms: C_3  and  C_4
REMARK    3  A    between atoms: N_6  and  C_7
REMARK    4  A    between atoms: C_7  and  C_8
REMARK    5  A    between atoms: C_8  and  O_9
REMARK    6  A    between atoms: O_9  and  C_10
REMARK    7  A    between atoms: C_19  and  C_20
REMARK                            x       y       z     vdW  Elec       q    Type
REMARK                         _______ _______ _______ _____ _____    ______ ____
ROOT
ATOM      1  C   UNL     1       2.971   8.158  17.675  0.00  0.00    +0.000 C 
ATOM      2  C   UNL     1       2.126   8.156  18.925  0.00  0.00    +0.000 A 
ATOM      3  C   UNL     1       2.016   7.146  19.825  0.00  0.00    +0.000 A 
ATOM      4  C   UNL     1       1.099   7.441  20.969  0.00  0.00    +0.000 A 
ATOM      5  N   UNL     1       0.434   8.534  21.193  0.00  0.00    +0.000 NA
ATOM      6  C   UNL     1       0.578   9.521  20.258  0.00  0.00    +0.000 A 
ATOM      7  C   UNL     1       0.013  10.783  20.144  0.00  0.00    +0.000 A 
ATOM      8  C   UNL     1       0.538  11.289  18.939  0.00  0.00    +0.000 A 
ATOM      9  N   UNL     1       1.376  10.449  18.337  0.00  0.00    +0.000 NA
ATOM     10  N   UNL     1       1.401   9.348  19.136  0.00  0.00    +0.000 N 
ENDROOT
BRANCH   7  11
ATOM     11  C   UNL     1      -0.936  11.378  21.076  0.00  0.00    +0.000 A 
ATOM     12  C   UNL     1      -0.803  11.158  22.455  0.00  0.00    +0.000 A 
ATOM     13  C   UNL     1      -1.695  11.745  23.359  0.00  0.00    +0.000 A 
ATOM     14  C   UNL     1      -2.736  12.554  22.897  0.00  0.00    +0.000 A 
ATOM     15 CL   UNL     1      -3.787  13.264  24.069  0.00  0.00    +0.000 Cl
ATOM     16  C   UNL     1      -2.889  12.765  21.525  0.00  0.00    +0.000 A 
ATOM     17 CL   UNL     1      -4.155  13.745  20.873  0.00  0.00    +0.000 Cl
ATOM     18  C   UNL     1      -1.997  12.174  20.623  0.00  0.00    +0.000 A 
ENDBRANCH   7  11
BRANCH   3  19
ATOM     19  C   UNL     1       2.697   5.824  19.679  0.00  0.00    +0.000 C 
ATOM     20  O   UNL     1       3.897   5.688  19.900  0.00  0.00    +0.000 OA
ATOM     21  N   UNL     1       1.912   4.768  19.277  0.00  0.00    +0.000 N 
ATOM     22  H   UNL     1       0.947   4.897  19.005  0.00  0.00    +0.000 HD
BRANCH  21  23
ATOM     23  C   UNL     1       2.497   3.447  19.071  0.00  0.00    +0.000 C 
BRANCH  23  24
ATOM     24  C   UNL     1       2.835   3.187  17.604  0.00  0.00    +0.000 C 
BRANCH  24  25
ATOM     25  O   UNL     1       4.244   3.013  17.461  0.00  0.00    +0.000 OA
BRANCH  25  26
ATOM     26  C   UNL     1       4.862   3.891  16.608  0.00  0.00    +0.000 A 
ATOM     27  C   UNL     1       5.733   3.316  15.680  0.00  0.00    +0.000 A 
ATOM     28  C   UNL     1       6.419   4.117  14.763  0.00  0.00    +0.000 A 
ATOM     29  C   UNL     1       6.221   5.497  14.758  0.00  0.00    +0.000 A 
ATOM     30  C   UNL     1       5.335   6.072  15.665  0.00  0.00    +0.000 A 
ATOM     31  C   UNL     1       4.656   5.272  16.586  0.00  0.00    +0.000 A 
ENDBRANCH  25  26
ENDBRANCH  24  25
ENDBRANCH  23  24
ENDBRANCH  21  23
ENDBRANCH   3  19
TORSDOF 6
ENDMDL
MODEL 8
REMARK VINA RESULT:      -7.8      5.213      9.994
REMARK  Name = 
REMARK  7 active torsions:
REMARK  status: ('A' for Active; 'I' for Inactive)
REMARK    1  A    between atoms: C_1  and  C_2
REMARK    2  A    between atoms: C_3  and  C_4
REMARK    3  A    between atoms: N_6  and  C_7
REMARK    4  A    between atoms: C_7  and  C_8
REMARK    5  A    between atoms: C_8  and  O_9
REMARK    6  A    between atoms: O_9  and  C_10
REMARK    7  A    between atoms: C_19  and  C_20
REMARK                            x       y       z     vdW  Elec       q    Type
REMARK                         _______ _______ _______ _____ _____    ______ ____
ROOT
ATOM      1  C   UNL     1       2.102   4.697  21.141  0.00  0.00    +0.000 C 
ATOM      2  C   UNL     1       2.594   5.476  19.946  0.00  0.00    +0.000 A 
ATOM      3  C   UNL     1       2.321   6.774  19.659  0.00  0.00    +0.000 A 
ATOM      4  C   UNL     1       2.956   7.271  18.399  0.00  0.00    +0.000 A 
ATOM      5  N   UNL     1       3.731   6.615  17.589  0.00  0.00    +0.000 NA
ATOM      6  C   UNL     1       3.976   5.312  17.922  0.00  0.00    +0.000 A 
ATOM      7  C   UNL     1       4.710   4.315  17.296  0.00  0.00    +0.000 A 
ATOM      8  C   UNL     1       4.538   3.189  18.123  0.00  0.00    +0.000 A 
ATOM      9  N   UNL     1       3.783   3.431  19.191  0.00  0.00    +0.000 NA
ATOM     10  N   UNL     1       3.420   4.737  19.073  0.00  0.00    +0.000 N 
ENDROOT
BRANCH   7  11
ATOM     11  C   UNL     1       5.440   4.455  16.043  0.00  0.00    +0.000 A 
ATOM     12  C   UNL     1       6.689   5.093  16.022  0.00  0.00    +0.000 A 
ATOM     13  C   UNL     1       7.409   5.211  14.827  0.00  0.00    +0.000 A 
ATOM     14  C   UNL     1       6.887   4.698  13.637  0.00  0.00    +0.000 A 
ATOM     15 CL   UNL     1       7.837   4.859  12.204  0.00  0.00    +0.000 Cl
ATOM     16  C   UNL     1       5.636   4.077  13.643  0.00  0.00    +0.000 A 
ATOM     17 CL   UNL     1       4.917   3.425  12.212  0.00  0.00    +0.000 Cl
ATOM     18  C   UNL     1       4.917   3.965  14.839  0.00  0.00    +0.000 A 
ENDBRANCH   7  11
BRANCH   3  19
ATOM     19  C   UNL     1       1.422   7.637  20.484  0.00  0.00    +0.000 C 
ATOM     20  O   UNL     1       0.720   7.171  21.377  0.00  0.00    +0.000 OA
ATOM     21  N   UNL     1       1.415   8.981  20.186  0.00  0.00    +0.000 N 
ATOM     22  H   UNL     1       1.919   9.351  19.392  0.00  0.00    +0.000 HD
BRANCH  21  23
ATOM     23  C   UNL     1       0.540   9.896  20.912  0.00  0.00    +0.000 C 
BRANCH  23  24
ATOM     24  C   UNL     1       0.253  11.171  20.122  0.00  0.00    +0.000 C 
BRANCH  24  25
ATOM     25  O   UNL     1       0.057  10.847  18.746  0.00  0.00    +0.000 OA
BRANCH  25  26
ATOM     26  C   UNL     1      -1.246  10.841  18.323  0.00  0.00    +0.000 A 
ATOM     27  C   UNL     1      -1.550   9.918  17.320  0.00  0.00    +0.000 A 
ATOM     28  C   UNL     1      -2.848   9.826  16.811  0.00  0.00    +0.000 A 
ATOM     29  C   UNL     1      -3.854  10.647  17.317  0.00  0.00    +0.000 A 
ATOM     30  C   UNL     1      -3.563  11.553  18.333  0.00  0.00    +0.000 A 
ATOM     31  C   UNL     1      -2.264  11.649  18.836  0.00  0.00    +0.000 A 
ENDBRANCH  25  26
ENDBRANCH  24  25
ENDBRANCH  23  24
ENDBRANCH  21  23
ENDBRANCH   3  19
TORSDOF 6
ENDMDL
MODEL 9
REMARK VINA RESULT:      -7.7      5.020     10.583
REMARK  Name = 
REMARK  7 active torsions:
REMARK  status: ('A' for Active; 'I' for Inactive)
REMARK    1  A    between atoms: C_1  and  C_2
REMARK    2  A    between atoms: C_3  and  C_4
REMARK    3  A    between atoms: N_6  and  C_7
REMARK    4  A    between atoms: C_7  and  C_8
REMARK    5  A    between atoms: C_8  and  O_9
REMARK    6  A    between atoms: O_9  and  C_10
REMARK    7  A    between atoms: C_19  and  C_20
REMARK                            x       y       z     vdW  Elec       q    Type
REMARK                         _______ _______ _______ _____ _____    ______ ____
ROOT
ATOM      1  C   UNL     1      -0.030   9.097  21.728  0.00  0.00    +0.000 C 
ATOM      2  C   UNL     1       0.757   9.047  20.442  0.00  0.00    +0.000 A 
ATOM      3  C   UNL     1       0.849  10.031  19.512  0.00  0.00    +0.000 A 
ATOM      4  C   UNL     1       1.710   9.687  18.338  0.00  0.00    +0.000 A 
ATOM      5  N   UNL     1       2.372   8.588  18.134  0.00  0.00    +0.000 NA
ATOM      6  C   UNL     1       2.247   7.628  19.099  0.00  0.00    +0.000 A 
ATOM      7  C   UNL     1       2.765   6.346  19.207  0.00  0.00    +0.000 A 
ATOM      8  C   UNL     1       2.234   5.860  20.418  0.00  0.00    +0.000 A 
ATOM      9  N   UNL     1       1.463   6.744  21.045  0.00  0.00    +0.000 NA
ATOM     10  N   UNL     1       1.453   7.837  20.235  0.00  0.00    +0.000 N 
ENDROOT
BRANCH   7  11
ATOM     11  C   UNL     1       3.627   5.692  18.232  0.00  0.00    +0.000 A 
ATOM     12  C   UNL     1       3.194   4.532  17.574  0.00  0.00    +0.000 A 
ATOM     13  C   UNL     1       4.005   3.910  16.618  0.00  0.00    +0.000 A 
ATOM     14  C   UNL     1       5.262   4.436  16.312  0.00  0.00    +0.000 A 
ATOM     15 CL   UNL     1       6.202   3.630  15.107  0.00  0.00    +0.000 Cl
ATOM     16  C   UNL     1       5.712   5.580  16.974  0.00  0.00    +0.000 A 
ATOM     17 CL   UNL     1       7.258   6.288  16.659  0.00  0.00    +0.000 Cl
ATOM     18  C   UNL     1       4.900   6.197  17.932  0.00  0.00    +0.000 A 
ENDBRANCH   7  11
BRANCH   3  19
ATOM     19  C   UNL     1       0.119  11.331  19.602  0.00  0.00    +0.000 C 
ATOM     20  O   UNL     1       0.649  12.340  20.058  0.00  0.00    +0.000 OA
ATOM     21  N   UNL     1      -1.183  11.339  19.155  0.00  0.00    +0.000 N 
ATOM     22  H   UNL     1      -1.650  10.490  18.868  0.00  0.00    +0.000 HD
BRANCH  21  23
ATOM     23  C   UNL     1      -1.988  12.554  19.239  0.00  0.00    +0.000 C 
BRANCH  23  24
ATOM     24  C   UNL     1      -2.885  12.569  20.475  0.00  0.00    +0.000 C 
BRANCH  24  25
ATOM     25  O   UNL     1      -4.254  12.560  20.072  0.00  0.00    +0.000 OA
BRANCH  25  26
ATOM     26  C   UNL     1      -5.168  12.569  21.093  0.00  0.00    +0.000 A 
ATOM     27  C   UNL     1      -4.692  13.028  22.324  0.00  0.00    +0.000 A 
ATOM     28  C   UNL     1      -5.537  13.078  23.435  0.00  0.00    +0.000 A 
ATOM     29  C   UNL     1      -6.869  12.687  23.316  0.00  0.00    +0.000 A 
ATOM     30  C   UNL     1      -7.355  12.252  22.086  0.00  0.00    +0.000 A 
ATOM     31  C   UNL     1      -6.508  12.195  20.978  0.00  0.00    +0.000 A 
ENDBRANCH  25  26
ENDBRANCH  24  25
ENDBRANCH  23  24
ENDBRANCH  21  23
ENDBRANCH   3  19
TORSDOF 6
ENDMDL
