MODEL 1
REMARK VINA RESULT:      -6.8      0.000      0.000
REMARK  Name = 
REMARK  10 active torsions:
REMARK  status: ('A' for Active; 'I' for Inactive)
REMARK    1  A    between atoms: C_1  and  O_2
REMARK    2  A    between atoms: O_2  and  C_3
REMARK    3  A    between atoms: C_5  and  C_6
REMARK    4  A    between atoms: C_6  and  N_7
REMARK    5  A    between atoms: N_7  and  C_8
REMARK    6  A    between atoms: C_8  and  C_9
REMARK    7  A    between atoms: C_9  and  O_10
REMARK    8  A    between atoms: C_14  and  O_15
REMARK    9  A    between atoms: O_15  and  C_16
REMARK   10  A    between atoms: C_16  and  C_17
REMARK                            x       y       z     vdW  Elec       q    Type
REMARK                         _______ _______ _______ _____ _____    ______ ____
ROOT
ATOM      1  C   UNL     1       2.723   5.341  20.003  0.00  0.00    +0.000 A 
ATOM      2  C   UNL     1       3.678   4.577  19.299  0.00  0.00    +0.000 A 
ATOM      3  C   UNL     1       4.253   5.071  18.120  0.00  0.00    +0.000 A 
ATOM      4  C   UNL     1       3.902   6.348  17.668  0.00  0.00    +0.000 A 
ATOM      5  C   UNL     1       2.954   7.119  18.347  0.00  0.00    +0.000 A 
ATOM      6 CL   UNL     1       2.619   8.708  17.664  0.00  0.00    +0.000 Cl
ATOM      7  C   UNL     1       2.335   6.602  19.522  0.00  0.00    +0.000 A 
ENDROOT
BRANCH   1   9
ATOM      8  C   UNL     1       2.075   3.592  21.593  0.00  0.00    +0.000 C 
ATOM      9  O   UNL     1       2.125   4.895  21.141  0.00  0.00    +0.000 OA
ENDBRANCH   1   9
BRANCH   3  10
ATOM     10  C   UNL     1       5.229   4.233  17.333  0.00  0.00    +0.000 C 
BRANCH  10  11
ATOM     11  N   UNL     1       6.436   3.987  18.132  0.00  0.00    +0.000 NA
ATOM     12  H   UNL     1       6.759   3.005  17.952  0.00  0.00    +0.000 HD
BRANCH  11  13
ATOM     13  C   UNL     1       7.514   4.904  17.744  0.00  0.00    +0.000 C 
BRANCH  13  14
ATOM     14  C   UNL     1       7.830   5.869  18.888  0.00  0.00    +0.000 C 
BRANCH  14  15
ATOM     15  O   UNL     1       7.293   5.392  20.091  0.00  0.00    +0.000 OA
ATOM     16  H   UNL     1       7.354   6.136  20.745  0.00  0.00    +0.000 HD
ENDBRANCH  14  15
ENDBRANCH  13  14
ENDBRANCH  11  13
ENDBRANCH  10  11
ENDBRANCH   3  10
BRANCH   7  17
ATOM     17  O   UNL     1       1.359   7.235  20.221  0.00  0.00    +0.000 OA
BRANCH  17  18
ATOM     18  C   UNL     1       1.502   8.163  21.228  0.00  0.00    +0.000 C 
BRANCH  18  19
ATOM     19  C   UNL     1       0.587   9.328  20.961  0.00  0.00    +0.000 A 
ATOM     20  C   UNL     1       0.374   9.768  19.644  0.00  0.00    +0.000 A 
ATOM     21  C   UNL     1      -0.489  10.835  19.384  0.00  0.00    +0.000 A 
ATOM     22  C   UNL     1      -1.147  11.478  20.436  0.00  0.00    +0.000 A 
ATOM     23 CL   UNL     1      -2.233  12.816  20.106  0.00  0.00    +0.000 Cl
ATOM     24  C   UNL     1      -0.942  11.054  21.751  0.00  0.00    +0.000 A 
ATOM     25  C   UNL     1      -0.085   9.983  22.022  0.00  0.00    +0.000 A 
ATOM     26 CL   UNL     1       0.119   9.490  23.703  0.00  0.00    +0.000 Cl
ENDBRANCH  18  19
ENDBRANCH  17  18
ENDBRANCH   7  17
TORSDOF 9
ENDMDL
MODEL 2
REMARK VINA RESULT:      -6.8      3.426      7.614
REMARK  Name = 
REMARK  10 active torsions:
REMARK  status: ('A' for Active; 'I' for Inactive)
REMARK    1  A    between atoms: C_1  and  O_2
REMARK    2  A    between atoms: O_2  and  C_3
REMARK    3  A    between atoms: C_5  and  C_6
REMARK    4  A    between atoms: C_6  and  N_7
REMARK    5  A    between atoms: N_7  and  C_8
REMARK    6  A    between atoms: C_8  and  C_9
REMARK    7  A    between atoms: C_9  and  O_10
REMARK    8  A    between atoms: C_14  and  O_15
REMARK    9  A    between atoms: O_15  and  C_16
REMARK   10  A    between atoms: C_16  and  C_17
REMARK                            x       y       z     vdW  Elec       q    Type
REMARK                         _______ _______ _______ _____ _____    ______ ____
ROOT
ATOM      1  C   UNL     1       2.214   5.004  20.016  0.00  0.00    +0.000 A 
ATOM      2  C   UNL     1       1.578   6.018  20.762  0.00  0.00    +0.000 A 
ATOM      3  C   UNL     1       1.696   7.361  20.378  0.00  0.00    +0.000 A 
ATOM      4  C   UNL     1       2.416   7.684  19.222  0.00  0.00    +0.000 A 
ATOM      5  C   UNL     1       3.059   6.694  18.473  0.00  0.00    +0.000 A 
ATOM      6 CL   UNL     1       3.922   7.249  17.040  0.00  0.00    +0.000 Cl
ATOM      7  C   UNL     1       2.978   5.333  18.885  0.00  0.00    +0.000 A 
ENDROOT
BRANCH   1   9
ATOM      8  C   UNL     1       1.934   3.177  21.626  0.00  0.00    +0.000 C 
ATOM      9  O   UNL     1       2.143   3.690  20.363  0.00  0.00    +0.000 OA
ENDBRANCH   1   9
BRANCH   3  10
ATOM     10  C   UNL     1       1.068   8.455  21.205  0.00  0.00    +0.000 C 
BRANCH  10  11
ATOM     11  N   UNL     1       0.232   9.310  20.352  0.00  0.00    +0.000 NA
ATOM     12  H   UNL     1      -0.761   9.241  20.685  0.00  0.00    +0.000 HD
BRANCH  11  13
ATOM     13  C   UNL     1       0.653  10.712  20.450  0.00  0.00    +0.000 C 
BRANCH  13  14
ATOM     14  C   UNL     1       1.159  11.212  19.095  0.00  0.00    +0.000 C 
BRANCH  14  15
ATOM     15  O   UNL     1       0.520  10.526  18.053  0.00  0.00    +0.000 OA
ATOM     16  H   UNL     1       0.330  11.196  17.346  0.00  0.00    +0.000 HD
ENDBRANCH  14  15
ENDBRANCH  13  14
ENDBRANCH  11  13
ENDBRANCH  10  11
ENDBRANCH   3  10
BRANCH   7  17
ATOM     17  O   UNL     1       3.613   4.302  18.271  0.00  0.00    +0.000 OA
BRANCH  17  18
ATOM     18  C   UNL     1       4.941   3.951  18.358  0.00  0.00    +0.000 C 
BRANCH  18  19
ATOM     19  C   UNL     1       5.615   4.237  17.042  0.00  0.00    +0.000 A 
ATOM     20  C   UNL     1       4.961   3.932  15.837  0.00  0.00    +0.000 A 
ATOM     21  C   UNL     1       5.569   4.212  14.610  0.00  0.00    +0.000 A 
ATOM     22  C   UNL     1       6.839   4.795  14.573  0.00  0.00    +0.000 A 
ATOM     23 CL   UNL     1       7.598   5.148  13.032  0.00  0.00    +0.000 Cl
ATOM     24  C   UNL     1       7.503   5.100  15.764  0.00  0.00    +0.000 A 
ATOM     25  C   UNL     1       6.900   4.829  16.997  0.00  0.00    +0.000 A 
ATOM     26 CL   UNL     1       7.788   5.250  18.461  0.00  0.00    +0.000 Cl
ENDBRANCH  18  19
ENDBRANCH  17  18
ENDBRANCH   7  17
TORSDOF 9
ENDMDL
MODEL 3
REMARK VINA RESULT:      -6.6      3.394      7.747
REMARK  Name = 
REMARK  10 active torsions:
REMARK  status: ('A' for Active; 'I' for Inactive)
REMARK    1  A    between atoms: C_1  and  O_2
REMARK    2  A    between atoms: O_2  and  C_3
REMARK    3  A    between atoms: C_5  and  C_6
REMARK    4  A    between atoms: C_6  and  N_7
REMARK    5  A    between atoms: N_7  and  C_8
REMARK    6  A    between atoms: C_8  and  C_9
REMARK    7  A    between atoms: C_9  and  O_10
REMARK    8  A    between atoms: C_14  and  O_15
REMARK    9  A    between atoms: O_15  and  C_16
REMARK   10  A    between atoms: C_16  and  C_17
REMARK                            x       y       z     vdW  Elec       q    Type
REMARK                         _______ _______ _______ _____ _____    ______ ____
ROOT
ATOM      1  C   UNL     1       2.102   5.525  20.474  0.00  0.00    +0.000 A 
ATOM      2  C   UNL     1       1.414   6.625  21.027  0.00  0.00    +0.000 A 
ATOM      3  C   UNL     1       1.476   7.883  20.412  0.00  0.00    +0.000 A 
ATOM      4  C   UNL     1       2.194   8.030  19.220  0.00  0.00    +0.000 A 
ATOM      5  C   UNL     1       2.888   6.954  18.659  0.00  0.00    +0.000 A 
ATOM      6 CL   UNL     1       3.741   7.287  17.153  0.00  0.00    +0.000 Cl
ATOM      7  C   UNL     1       2.864   5.685  19.305  0.00  0.00    +0.000 A 
ENDROOT
BRANCH   1   9
ATOM      8  C   UNL     1       1.110   3.326  20.906  0.00  0.00    +0.000 C 
ATOM      9  O   UNL     1       2.086   4.291  21.046  0.00  0.00    +0.000 OA
ENDBRANCH   1   9
BRANCH   3  10
ATOM     10  C   UNL     1       0.791   9.076  21.032  0.00  0.00    +0.000 C 
BRANCH  10  11
ATOM     11  N   UNL     1      -0.202   8.626  22.018  0.00  0.00    +0.000 NA
ATOM     12  H   UNL     1       0.180   7.783  22.512  0.00  0.00    +0.000 HD
BRANCH  11  13
ATOM     13  C   UNL     1      -0.452   9.672  23.016  0.00  0.00    +0.000 C 
BRANCH  13  14
ATOM     14  C   UNL     1      -0.969  10.942  22.339  0.00  0.00    +0.000 C 
BRANCH  14  15
ATOM     15  O   UNL     1      -0.275  12.064  22.811  0.00  0.00    +0.000 OA
ATOM     16  H   UNL     1       0.352  12.335  22.091  0.00  0.00    +0.000 HD
ENDBRANCH  14  15
ENDBRANCH  13  14
ENDBRANCH  11  13
ENDBRANCH  10  11
ENDBRANCH   3  10
BRANCH   7  17
ATOM     17  O   UNL     1       3.550   4.592  18.884  0.00  0.00    +0.000 OA
BRANCH  17  18
ATOM     18  C   UNL     1       4.902   4.348  18.985  0.00  0.00    +0.000 C 
BRANCH  18  19
ATOM     19  C   UNL     1       5.533   4.490  17.625  0.00  0.00    +0.000 A 
ATOM     20  C   UNL     1       4.880   3.978  16.491  0.00  0.00    +0.000 A 
ATOM     21  C   UNL     1       5.448   4.122  15.222  0.00  0.00    +0.000 A 
ATOM     22  C   UNL     1       6.674   4.774  15.071  0.00  0.00    +0.000 A 
ATOM     23 CL   UNL     1       7.382   4.956  13.477  0.00  0.00    +0.000 Cl
ATOM     24  C   UNL     1       7.336   5.285  16.191  0.00  0.00    +0.000 A 
ATOM     25  C   UNL     1       6.774   5.152  17.465  0.00  0.00    +0.000 A 
ATOM     26 CL   UNL     1       7.655   5.829  18.833  0.00  0.00    +0.000 Cl
ENDBRANCH  18  19
ENDBRANCH  17  18
ENDBRANCH   7  17
TORSDOF 9
ENDMDL
MODEL 4
REMARK VINA RESULT:      -6.4      1.430      1.603
REMARK  Name = 
REMARK  10 active torsions:
REMARK  status: ('A' for Active; 'I' for Inactive)
REMARK    1  A    between atoms: C_1  and  O_2
REMARK    2  A    between atoms: O_2  and  C_3
REMARK    3  A    between atoms: C_5  and  C_6
REMARK    4  A    between atoms: C_6  and  N_7
REMARK    5  A    between atoms: N_7  and  C_8
REMARK    6  A    between atoms: C_8  and  C_9
REMARK    7  A    between atoms: C_9  and  O_10
REMARK    8  A    between atoms: C_14  and  O_15
REMARK    9  A    between atoms: O_15  and  C_16
REMARK   10  A    between atoms: C_16  and  C_17
REMARK                            x       y       z     vdW  Elec       q    Type
REMARK                         _______ _______ _______ _____ _____    ______ ____
ROOT
ATOM      1  C   UNL     1       2.779   5.291  20.044  0.00  0.00    +0.000 A 
ATOM      2  C   UNL     1       3.698   4.509  19.314  0.00  0.00    +0.000 A 
ATOM      3  C   UNL     1       4.207   4.968  18.091  0.00  0.00    +0.000 A 
ATOM      4  C   UNL     1       3.826   6.230  17.620  0.00  0.00    +0.000 A 
ATOM      5  C   UNL     1       2.912   7.018  18.324  0.00  0.00    +0.000 A 
ATOM      6 CL   UNL     1       2.533   8.584  17.612  0.00  0.00    +0.000 Cl
ATOM      7  C   UNL     1       2.359   6.535  19.545  0.00  0.00    +0.000 A 
ENDROOT
BRANCH   1   9
ATOM      8  C   UNL     1       1.910   3.586  21.574  0.00  0.00    +0.000 C 
ATOM      9  O   UNL     1       2.245   4.878  21.225  0.00  0.00    +0.000 OA
ENDBRANCH   1   9
BRANCH   3  10
ATOM     10  C   UNL     1       5.144   4.111  17.278  0.00  0.00    +0.000 C 
BRANCH  10  11
ATOM     11  N   UNL     1       5.026   4.451  15.854  0.00  0.00    +0.000 NA
ATOM     12  H   UNL     1       5.124   5.491  15.753  0.00  0.00    +0.000 HD
BRANCH  11  13
ATOM     13  C   UNL     1       6.093   3.811  15.076  0.00  0.00    +0.000 C 
BRANCH  13  14
ATOM     14  C   UNL     1       6.990   4.870  14.431  0.00  0.00    +0.000 C 
BRANCH  14  15
ATOM     15  O   UNL     1       7.548   5.700  15.412  0.00  0.00    +0.000 OA
ATOM     16  H   UNL     1       7.333   6.633  15.152  0.00  0.00    +0.000 HD
ENDBRANCH  14  15
ENDBRANCH  13  14
ENDBRANCH  11  13
ENDBRANCH  10  11
ENDBRANCH   3  10
BRANCH   7  17
ATOM     17  O   UNL     1       1.419   7.186  20.277  0.00  0.00    +0.000 OA
BRANCH  17  18
ATOM     18  C   UNL     1       1.608   8.177  21.214  0.00  0.00    +0.000 C 
BRANCH  18  19
ATOM     19  C   UNL     1       0.676   9.322  20.918  0.00  0.00    +0.000 A 
ATOM     20  C   UNL     1       0.502   9.763  19.596  0.00  0.00    +0.000 A 
ATOM     21  C   UNL     1      -0.376  10.812  19.309  0.00  0.00    +0.000 A 
ATOM     22  C   UNL     1      -1.088  11.434  20.338  0.00  0.00    +0.000 A 
ATOM     23 CL   UNL     1      -2.191  12.747  19.973  0.00  0.00    +0.000 Cl
ATOM     24  C   UNL     1      -0.922  11.008  21.658  0.00  0.00    +0.000 A 
ATOM     25  C   UNL     1      -0.050   9.955  21.956  0.00  0.00    +0.000 A 
ATOM     26 CL   UNL     1       0.103   9.459  23.641  0.00  0.00    +0.000 Cl
ENDBRANCH  18  19
ENDBRANCH  17  18
ENDBRANCH   7  17
TORSDOF 9
ENDMDL
MODEL 5
REMARK VINA RESULT:      -6.3      3.796      5.778
REMARK  Name = 
REMARK  10 active torsions:
REMARK  status: ('A' for Active; 'I' for Inactive)
REMARK    1  A    between atoms: C_1  and  O_2
REMARK    2  A    between atoms: O_2  and  C_3
REMARK    3  A    between atoms: C_5  and  C_6
REMARK    4  A    between atoms: C_6  and  N_7
REMARK    5  A    between atoms: N_7  and  C_8
REMARK    6  A    between atoms: C_8  and  C_9
REMARK    7  A    between atoms: C_9  and  O_10
REMARK    8  A    between atoms: C_14  and  O_15
REMARK    9  A    between atoms: O_15  and  C_16
REMARK   10  A    between atoms: C_16  and  C_17
REMARK                            x       y       z     vdW  Elec       q    Type
REMARK                         _______ _______ _______ _____ _____    ______ ____
ROOT
ATOM      1  C   UNL     1       6.914   4.554  17.462  0.00  0.00    +0.000 A 
ATOM      2  C   UNL     1       7.344   4.694  16.125  0.00  0.00    +0.000 A 
ATOM      3  C   UNL     1       6.482   4.381  15.066  0.00  0.00    +0.000 A 
ATOM      4  C   UNL     1       5.174   3.967  15.344  0.00  0.00    +0.000 A 
ATOM      5  C   UNL     1       4.730   3.815  16.661  0.00  0.00    +0.000 A 
ATOM      6 CL   UNL     1       3.059   3.294  16.857  0.00  0.00    +0.000 Cl
ATOM      7  C   UNL     1       5.618   4.091  17.741  0.00  0.00    +0.000 A 
ENDROOT
BRANCH   1   9
ATOM      8  C   UNL     1       7.913   6.055  19.122  0.00  0.00    +0.000 C 
ATOM      9  O   UNL     1       7.723   4.828  18.521  0.00  0.00    +0.000 OA
ENDBRANCH   1   9
BRANCH   3  10
ATOM     10  C   UNL     1       6.956   4.472  13.637  0.00  0.00    +0.000 C 
BRANCH  10  11
ATOM     11  N   UNL     1       5.992   3.811  12.746  0.00  0.00    +0.000 NA
ATOM     12  H   UNL     1       5.485   4.550  12.200  0.00  0.00    +0.000 HD
BRANCH  11  13
ATOM     13  C   UNL     1       6.681   2.929  11.798  0.00  0.00    +0.000 C 
BRANCH  13  14
ATOM     14  C   UNL     1       5.778   1.757  11.409  0.00  0.00    +0.000 C 
BRANCH  14  15
ATOM     15  O   UNL     1       6.536   0.590  11.244  0.00  0.00    +0.000 OA
ATOM     16  H   UNL     1       6.161  -0.084  11.868  0.00  0.00    +0.000 HD
ENDBRANCH  14  15
ENDBRANCH  13  14
ENDBRANCH  11  13
ENDBRANCH  10  11
ENDBRANCH   3  10
BRANCH   7  17
ATOM     17  O   UNL     1       5.315   3.917  19.052  0.00  0.00    +0.000 OA
BRANCH  17  18
ATOM     18  C   UNL     1       4.114   3.526  19.601  0.00  0.00    +0.000 C 
BRANCH  18  19
ATOM     19  C   UNL     1       3.289   4.747  19.907  0.00  0.00    +0.000 A 
ATOM     20  C   UNL     1       3.566   5.963  19.259  0.00  0.00    +0.000 A 
ATOM     21  C   UNL     1       2.792   7.097  19.522  0.00  0.00    +0.000 A 
ATOM     22  C   UNL     1       1.737   7.032  20.436  0.00  0.00    +0.000 A 
ATOM     23 CL   UNL     1       0.768   8.457  20.760  0.00  0.00    +0.000 Cl
ATOM     24  C   UNL     1       1.453   5.831  21.090  0.00  0.00    +0.000 A 
ATOM     25  C   UNL     1       2.217   4.688  20.830  0.00  0.00    +0.000 A 
ATOM     26 CL   UNL     1       1.797   3.202  21.681  0.00  0.00    +0.000 Cl
ENDBRANCH  18  19
ENDBRANCH  17  18
ENDBRANCH   7  17
TORSDOF 9
ENDMDL
MODEL 6
REMARK VINA RESULT:      -6.2      3.678      7.864
REMARK  Name = 
REMARK  10 active torsions:
REMARK  status: ('A' for Active; 'I' for Inactive)
REMARK    1  A    between atoms: C_1  and  O_2
REMARK    2  A    between atoms: O_2  and  C_3
REMARK    3  A    between atoms: C_5  and  C_6
REMARK    4  A    between atoms: C_6  and  N_7
REMARK    5  A    between atoms: N_7  and  C_8
REMARK    6  A    between atoms: C_8  and  C_9
REMARK    7  A    between atoms: C_9  and  O_10
REMARK    8  A    between atoms: C_14  and  O_15
REMARK    9  A    between atoms: O_15  and  C_16
REMARK   10  A    between atoms: C_16  and  C_17
REMARK                            x       y       z     vdW  Elec       q    Type
REMARK                         _______ _______ _______ _____ _____    ______ ____
ROOT
ATOM      1  C   UNL     1       0.398   9.781  21.086  0.00  0.00    +0.000 A 
ATOM      2  C   UNL     1      -0.407  10.881  20.723  0.00  0.00    +0.000 A 
ATOM      3  C   UNL     1      -0.488  11.291  19.385  0.00  0.00    +0.000 A 
ATOM      4  C   UNL     1       0.206  10.573  18.404  0.00  0.00    +0.000 A 
ATOM      5  C   UNL     1       1.015   9.484  18.743  0.00  0.00    +0.000 A 
ATOM      6 CL   UNL     1       1.820   8.674  17.402  0.00  0.00    +0.000 Cl
ATOM      7  C   UNL     1       1.134   9.092  20.108  0.00  0.00    +0.000 A 
ENDROOT
BRANCH   1   9
ATOM      8  C   UNL     1      -0.376   9.565  23.401  0.00  0.00    +0.000 C 
ATOM      9  O   UNL     1       0.522   9.360  22.374  0.00  0.00    +0.000 OA
ENDBRANCH   1   9
BRANCH   3  10
ATOM     10  C   UNL     1      -1.300  12.502  19.000  0.00  0.00    +0.000 C 
BRANCH  10  11
ATOM     11  N   UNL     1      -1.961  12.272  17.708  0.00  0.00    +0.000 NA
ATOM     12  H   UNL     1      -1.302  11.739  17.090  0.00  0.00    +0.000 HD
BRANCH  11  13
ATOM     13  C   UNL     1      -3.179  11.472  17.881  0.00  0.00    +0.000 C 
BRANCH  13  14
ATOM     14  C   UNL     1      -3.602  10.852  16.549  0.00  0.00    +0.000 C 
BRANCH  14  15
ATOM     15  O   UNL     1      -3.129  11.623  15.479  0.00  0.00    +0.000 OA
ATOM     16  H   UNL     1      -2.945  10.994  14.734  0.00  0.00    +0.000 HD
ENDBRANCH  14  15
ENDBRANCH  13  14
ENDBRANCH  11  13
ENDBRANCH  10  11
ENDBRANCH   3  10
BRANCH   7  17
ATOM     17  O   UNL     1       1.937   8.094  20.556  0.00  0.00    +0.000 OA
BRANCH  17  18
ATOM     18  C   UNL     1       1.638   6.757  20.685  0.00  0.00    +0.000 C 
BRANCH  18  19
ATOM     19  C   UNL     1       2.401   5.977  19.648  0.00  0.00    +0.000 A 
ATOM     20  C   UNL     1       3.457   6.583  18.949  0.00  0.00    +0.000 A 
ATOM     21  C   UNL     1       4.185   5.861  17.999  0.00  0.00    +0.000 A 
ATOM     22  C   UNL     1       3.863   4.527  17.733  0.00  0.00    +0.000 A 
ATOM     23 CL   UNL     1       4.781   3.624  16.542  0.00  0.00    +0.000 Cl
ATOM     24  C   UNL     1       2.813   3.913  18.418  0.00  0.00    +0.000 A 
ATOM     25  C   UNL     1       2.082   4.624  19.375  0.00  0.00    +0.000 A 
ATOM     26 CL   UNL     1       0.776   3.785  20.212  0.00  0.00    +0.000 Cl
ENDBRANCH  18  19
ENDBRANCH  17  18
ENDBRANCH   7  17
TORSDOF 9
ENDMDL
MODEL 7
REMARK VINA RESULT:      -6.2      3.831      7.728
REMARK  Name = 
REMARK  10 active torsions:
REMARK  status: ('A' for Active; 'I' for Inactive)
REMARK    1  A    between atoms: C_1  and  O_2
REMARK    2  A    between atoms: O_2  and  C_3
REMARK    3  A    between atoms: C_5  and  C_6
REMARK    4  A    between atoms: C_6  and  N_7
REMARK    5  A    between atoms: N_7  and  C_8
REMARK    6  A    between atoms: C_8  and  C_9
REMARK    7  A    between atoms: C_9  and  O_10
REMARK    8  A    between atoms: C_14  and  O_15
REMARK    9  A    between atoms: O_15  and  C_16
REMARK   10  A    between atoms: C_16  and  C_17
REMARK                            x       y       z     vdW  Elec       q    Type
REMARK                         _______ _______ _______ _____ _____    ______ ____
ROOT
ATOM      1  C   UNL     1       0.085   9.512  20.865  0.00  0.00    +0.000 A 
ATOM      2  C   UNL     1      -0.646  10.644  20.445  0.00  0.00    +0.000 A 
ATOM      3  C   UNL     1      -0.430  11.197  19.175  0.00  0.00    +0.000 A 
ATOM      4  C   UNL     1       0.489  10.591  18.310  0.00  0.00    +0.000 A 
ATOM      5  C   UNL     1       1.228   9.473  18.709  0.00  0.00    +0.000 A 
ATOM      6 CL   UNL     1       2.340   8.816  17.512  0.00  0.00    +0.000 Cl
ATOM      7  C   UNL     1       1.042   8.935  20.016  0.00  0.00    +0.000 A 
ENDROOT
BRANCH   1   9
ATOM      8  C   UNL     1      -0.277   9.619  23.287  0.00  0.00    +0.000 C 
ATOM      9  O   UNL     1      -0.078   8.953  22.095  0.00  0.00    +0.000 OA
ENDBRANCH   1   9
BRANCH   3  10
ATOM     10  C   UNL     1      -1.165  12.441  18.744  0.00  0.00    +0.000 C 
BRANCH  10  11
ATOM     11  N   UNL     1      -1.573  12.319  17.338  0.00  0.00    +0.000 NA
ATOM     12  H   UNL     1      -0.775  11.908  16.795  0.00  0.00    +0.000 HD
BRANCH  11  13
ATOM     13  C   UNL     1      -2.728  11.423  17.208  0.00  0.00    +0.000 C 
BRANCH  13  14
ATOM     14  C   UNL     1      -2.880  10.959  15.758  0.00  0.00    +0.000 C 
BRANCH  14  15
ATOM     15  O   UNL     1      -2.817   9.561  15.685  0.00  0.00    +0.000 OA
ATOM     16  H   UNL     1      -1.966   9.338  15.224  0.00  0.00    +0.000 HD
ENDBRANCH  14  15
ENDBRANCH  13  14
ENDBRANCH  11  13
ENDBRANCH  10  11
ENDBRANCH   3  10
BRANCH   7  17
ATOM     17  O   UNL     1       1.749   7.896  20.529  0.00  0.00    +0.000 OA
BRANCH  17  18
ATOM     18  C   UNL     1       2.757   7.176  19.928  0.00  0.00    +0.000 C 
BRANCH  18  19
ATOM     19  C   UNL     1       2.264   5.783  19.637  0.00  0.00    +0.000 A 
ATOM     20  C   UNL     1       1.349   5.166  20.506  0.00  0.00    +0.000 A 
ATOM     21  C   UNL     1       0.870   3.881  20.234  0.00  0.00    +0.000 A 
ATOM     22  C   UNL     1       1.302   3.197  19.095  0.00  0.00    +0.000 A 
ATOM     23 CL   UNL     1       0.696   1.586  18.756  0.00  0.00    +0.000 Cl
ATOM     24  C   UNL     1       2.214   3.797  18.224  0.00  0.00    +0.000 A 
ATOM     25  C   UNL     1       2.695   5.085  18.484  0.00  0.00    +0.000 A 
ATOM     26 CL   UNL     1       3.836   5.789  17.338  0.00  0.00    +0.000 Cl
ENDBRANCH  18  19
ENDBRANCH  17  18
ENDBRANCH   7  17
TORSDOF 9
ENDMDL
MODEL 8
REMARK VINA RESULT:      -6.1      1.873      2.393
REMARK  Name = 
REMARK  10 active torsions:
REMARK  status: ('A' for Active; 'I' for Inactive)
REMARK    1  A    between atoms: C_1  and  O_2
REMARK    2  A    between atoms: O_2  and  C_3
REMARK    3  A    between atoms: C_5  and  C_6
REMARK    4  A    between atoms: C_6  and  N_7
REMARK    5  A    between atoms: N_7  and  C_8
REMARK    6  A    between atoms: C_8  and  C_9
REMARK    7  A    between atoms: C_9  and  O_10
REMARK    8  A    between atoms: C_14  and  O_15
REMARK    9  A    between atoms: O_15  and  C_16
REMARK   10  A    between atoms: C_16  and  C_17
REMARK                            x       y       z     vdW  Elec       q    Type
REMARK                         _______ _______ _______ _____ _____    ______ ____
ROOT
ATOM      1  C   UNL     1       2.598   5.552  19.958  0.00  0.00    +0.000 A 
ATOM      2  C   UNL     1       3.290   4.759  19.019  0.00  0.00    +0.000 A 
ATOM      3  C   UNL     1       3.693   5.302  17.792  0.00  0.00    +0.000 A 
ATOM      4  C   UNL     1       3.440   6.652  17.522  0.00  0.00    +0.000 A 
ATOM      5  C   UNL     1       2.750   7.453  18.436  0.00  0.00    +0.000 A 
ATOM      6 CL   UNL     1       2.511   9.133  17.962  0.00  0.00    +0.000 Cl
ATOM      7  C   UNL     1       2.299   6.893  19.666  0.00  0.00    +0.000 A 
ENDROOT
BRANCH   1   9
ATOM      8  C   UNL     1       2.166   3.742  21.553  0.00  0.00    +0.000 C 
ATOM      9  O   UNL     1       2.170   5.062  21.153  0.00  0.00    +0.000 OA
ENDBRANCH   1   9
BRANCH   3  10
ATOM     10  C   UNL     1       4.381   4.443  16.760  0.00  0.00    +0.000 C 
BRANCH  10  11
ATOM     11  N   UNL     1       5.695   4.017  17.260  0.00  0.00    +0.000 NA
ATOM     12  H   UNL     1       5.711   2.968  17.300  0.00  0.00    +0.000 HD
BRANCH  11  13
ATOM     13  C   UNL     1       6.764   4.459  16.356  0.00  0.00    +0.000 C 
BRANCH  13  14
ATOM     14  C   UNL     1       6.225   4.620  14.934  0.00  0.00    +0.000 C 
BRANCH  14  15
ATOM     15  O   UNL     1       6.334   3.412  14.231  0.00  0.00    +0.000 OA
ATOM     16  H   UNL     1       5.411   3.139  13.989  0.00  0.00    +0.000 HD
ENDBRANCH  14  15
ENDBRANCH  13  14
ENDBRANCH  11  13
ENDBRANCH  10  11
ENDBRANCH   3  10
BRANCH   7  17
ATOM     17  O   UNL     1       1.568   7.559  20.595  0.00  0.00    +0.000 OA
BRANCH  17  18
ATOM     18  C   UNL     1       0.197   7.643  20.695  0.00  0.00    +0.000 C 
BRANCH  18  19
ATOM     19  C   UNL     1      -0.175   8.973  21.296  0.00  0.00    +0.000 A 
ATOM     20  C   UNL     1      -0.231   9.121  22.692  0.00  0.00    +0.000 A 
ATOM     21  C   UNL     1      -0.555  10.356  23.260  0.00  0.00    +0.000 A 
ATOM     22  C   UNL     1      -0.830  11.456  22.442  0.00  0.00    +0.000 A 
ATOM     23 CL   UNL     1      -1.233  13.005  23.159  0.00  0.00    +0.000 Cl
ATOM     24  C   UNL     1      -0.781  11.321  21.053  0.00  0.00    +0.000 A 
ATOM     25  C   UNL     1      -0.452  10.091  20.473  0.00  0.00    +0.000 A 
ATOM     26 CL   UNL     1      -0.396   9.993  18.714  0.00  0.00    +0.000 Cl
ENDBRANCH  18  19
ENDBRANCH  17  18
ENDBRANCH   7  17
TORSDOF 9
ENDMDL
MODEL 9
REMARK VINA RESULT:      -6.1      1.503      1.966
REMARK  Name = 
REMARK  10 active torsions:
REMARK  status: ('A' for Active; 'I' for Inactive)
REMARK    1  A    between atoms: C_1  and  O_2
REMARK    2  A    between atoms: O_2  and  C_3
REMARK    3  A    between atoms: C_5  and  C_6
REMARK    4  A    between atoms: C_6  and  N_7
REMARK    5  A    between atoms: N_7  and  C_8
REMARK    6  A    between atoms: C_8  and  C_9
REMARK    7  A    between atoms: C_9  and  O_10
REMARK    8  A    between atoms: C_14  and  O_15
REMARK    9  A    between atoms: O_15  and  C_16
REMARK   10  A    between atoms: C_16  and  C_17
REMARK                            x       y       z     vdW  Elec       q    Type
REMARK                         _______ _______ _______ _____ _____    ______ ____
ROOT
ATOM      1  C   UNL     1       2.749   5.486  19.995  0.00  0.00    +0.000 A 
ATOM      2  C   UNL     1       3.443   4.663  19.083  0.00  0.00    +0.000 A 
ATOM      3  C   UNL     1       3.829   5.160  17.831  0.00  0.00    +0.000 A 
ATOM      4  C   UNL     1       3.556   6.494  17.508  0.00  0.00    +0.000 A 
ATOM      5  C   UNL     1       2.864   7.324  18.394  0.00  0.00    +0.000 A 
ATOM      6 CL   UNL     1       2.599   8.980  17.853  0.00  0.00    +0.000 Cl
ATOM      7  C   UNL     1       2.431   6.810  19.650  0.00  0.00    +0.000 A 
ENDROOT
BRANCH   1   9
ATOM      8  C   UNL     1       2.092   3.734  21.577  0.00  0.00    +0.000 C 
ATOM      9  O   UNL     1       2.338   5.041  21.213  0.00  0.00    +0.000 OA
ENDBRANCH   1   9
BRANCH   3  10
ATOM     10  C   UNL     1       4.519   4.267  16.830  0.00  0.00    +0.000 C 
BRANCH  10  11
ATOM     11  N   UNL     1       5.818   4.843  16.457  0.00  0.00    +0.000 NA
ATOM     12  H   UNL     1       5.683   5.864  16.259  0.00  0.00    +0.000 HD
BRANCH  11  13
ATOM     13  C   UNL     1       6.780   4.710  17.557  0.00  0.00    +0.000 C 
BRANCH  13  14
ATOM     14  C   UNL     1       7.473   6.048  17.822  0.00  0.00    +0.000 C 
BRANCH  14  15
ATOM     15  O   UNL     1       7.620   6.767  16.628  0.00  0.00    +0.000 OA
ATOM     16  H   UNL     1       7.189   6.226  15.915  0.00  0.00    +0.000 HD
ENDBRANCH  14  15
ENDBRANCH  13  14
ENDBRANCH  11  13
ENDBRANCH  10  11
ENDBRANCH   3  10
BRANCH   7  17
ATOM     17  O   UNL     1       1.699   7.505  20.557  0.00  0.00    +0.000 OA
BRANCH  17  18
ATOM     18  C   UNL     1       0.330   7.531  20.702  0.00  0.00    +0.000 C 
BRANCH  18  19
ATOM     19  C   UNL     1      -0.079   8.852  21.299  0.00  0.00    +0.000 A 
ATOM     20  C   UNL     1      -0.169   8.995  22.693  0.00  0.00    +0.000 A 
ATOM     21  C   UNL     1      -0.528  10.223  23.257  0.00  0.00    +0.000 A 
ATOM     22  C   UNL     1      -0.806  11.319  22.436  0.00  0.00    +0.000 A 
ATOM     23 CL   UNL     1      -1.253  12.858  23.148  0.00  0.00    +0.000 Cl
ATOM     24  C   UNL     1      -0.724  11.189  21.048  0.00  0.00    +0.000 A 
ATOM     25  C   UNL     1      -0.360   9.967  20.473  0.00  0.00    +0.000 A 
ATOM     26 CL   UNL     1      -0.264   9.876  18.715  0.00  0.00    +0.000 Cl
ENDBRANCH  18  19
ENDBRANCH  17  18
ENDBRANCH   7  17
TORSDOF 9
ENDMDL
