MODEL 1
REMARK VINA RESULT:      -6.4      0.000      0.000
REMARK  Name = 
REMARK  11 active torsions:
REMARK  status: ('A' for Active; 'I' for Inactive)
REMARK    1  A    between atoms: C_1  and  O_2
REMARK    2  A    between atoms: O_2  and  C_3
REMARK    3  A    between atoms: C_3  and  C_4
REMARK    4  A    between atoms: C_4  and  C_5
REMARK    5  A    between atoms: C_4  and  N_6
REMARK    6  A    between atoms: C_7  and  C_8
REMARK    7  A    between atoms: C_20  and  C_21
REMARK    8  A    between atoms: C_22  and  C_23
REMARK    9  A    between atoms: C_26  and  C_27
REMARK   10  A    between atoms: C_28  and  O_29
REMARK   11  A    between atoms: O_29  and  C_30
REMARK                            x       y       z     vdW  Elec       q    Type
REMARK                         _______ _______ _______ _____ _____    ______ ____
ROOT
ATOM      1  N   UNL     1       0.599   9.402  19.490  0.00  0.00    +0.000 N 
ATOM      2  C   UNL     1       1.406   8.282  19.681  0.00  0.00    +0.000 A 
ATOM      3  N   UNL     1       1.561   8.035  20.964  0.00  0.00    +0.000 NA
ATOM      4  C   UNL     1       0.837   8.976  21.629  0.00  0.00    +0.000 A 
ATOM      5  C   UNL     1       0.693   9.123  23.010  0.00  0.00    +0.000 A 
ATOM      6  N   UNL     1      -0.062  10.119  23.521  0.00  0.00    +0.000 NA
ATOM      7  C   UNL     1      -0.714  10.948  22.701  0.00  0.00    +0.000 A 
ATOM      8  C   UNL     1      -1.492  11.935  23.286  0.00  0.00    +0.000 A 
ATOM      9  C   UNL     1      -2.328  12.803  22.557  0.00  0.00    +0.000 A 
ATOM     10  C   UNL     1      -2.325  12.684  21.159  0.00  0.00    +0.000 A 
ATOM     11  C   UNL     1      -1.451  11.776  20.549  0.00  0.00    +0.000 A 
ATOM     12  C   UNL     1      -0.664  10.873  21.289  0.00  0.00    +0.000 A 
ATOM     13  C   UNL     1       0.187   9.847  20.751  0.00  0.00    +0.000 A 
ENDROOT
BRANCH   9  14
ATOM     14  C   UNL     1      -3.167  13.754  23.296  0.00  0.00    +0.000 A 
ATOM     15  C   UNL     1      -2.818  14.950  24.010  0.00  0.00    +0.000 A 
ATOM     16  C   UNL     1      -1.501  15.583  24.267  0.00  0.00    +0.000 C 
ATOM     17  N   UNL     1      -3.901  15.558  24.509  0.00  0.00    +0.000 NA
ATOM     18  O   UNL     1      -4.972  14.782  24.144  0.00  0.00    +0.000 OA
ATOM     19  C   UNL     1      -4.548  13.714  23.418  0.00  0.00    +0.000 A 
ATOM     20  C   UNL     1      -5.642  12.830  22.961  0.00  0.00    +0.000 C 
ENDBRANCH   9  14
BRANCH   2  21
ATOM     21  C   UNL     1       2.060   7.425  18.619  0.00  0.00    +0.000 C 
ATOM     22  C   UNL     1       2.477   6.061  19.206  0.00  0.00    +0.000 C 
ATOM     23  C   UNL     1       3.264   5.242  18.195  0.00  0.00    +0.000 C 
ATOM     24  O   UNL     1       4.400   5.968  17.732  0.00  0.00    +0.000 OA
ATOM     25  C   UNL     1       4.040   7.187  17.087  0.00  0.00    +0.000 C 
ATOM     26  C   UNL     1       3.302   8.116  18.044  0.00  0.00    +0.000 C 
ENDBRANCH   2  21
BRANCH   1  27
ATOM     27  C   UNL     1       0.330  10.010  18.184  0.00  0.00    +0.000 C 
ATOM     28  C   UNL     1       0.887  11.438  18.065  0.00  0.00    +0.000 C 
BRANCH  27  29
ATOM     29  C   UNL     1      -1.126   9.811  17.708  0.00  0.00    +0.000 C 
BRANCH  29  31
ATOM     30  C   UNL     1      -2.658  10.914  16.271  0.00  0.00    +0.000 C 
ATOM     31  O   UNL     1      -1.669  11.063  17.283  0.00  0.00    +0.000 OA
ENDBRANCH  29  31
ENDBRANCH  27  29
ENDBRANCH   1  27
BRANCH  10  32
ATOM     32  O   UNL     1      -3.181  13.465  20.432  0.00  0.00    +0.000 OA
ATOM     33  C   UNL     1      -4.203  12.827  19.672  0.00  0.00    +0.000 C 
ENDBRANCH  10  32
TORSDOF 6
ENDMDL
MODEL 2
REMARK VINA RESULT:      -6.4      0.343      1.419
REMARK  Name = 
REMARK  11 active torsions:
REMARK  status: ('A' for Active; 'I' for Inactive)
REMARK    1  A    between atoms: C_1  and  O_2
REMARK    2  A    between atoms: O_2  and  C_3
REMARK    3  A    between atoms: C_3  and  C_4
REMARK    4  A    between atoms: C_4  and  C_5
REMARK    5  A    between atoms: C_4  and  N_6
REMARK    6  A    between atoms: C_7  and  C_8
REMARK    7  A    between atoms: C_20  and  C_21
REMARK    8  A    between atoms: C_22  and  C_23
REMARK    9  A    between atoms: C_26  and  C_27
REMARK   10  A    between atoms: C_28  and  O_29
REMARK   11  A    between atoms: O_29  and  C_30
REMARK                            x       y       z     vdW  Elec       q    Type
REMARK                         _______ _______ _______ _____ _____    ______ ____
ROOT
ATOM      1  N   UNL     1       0.586   9.413  19.482  0.00  0.00    +0.000 N 
ATOM      2  C   UNL     1       1.404   8.303  19.684  0.00  0.00    +0.000 A 
ATOM      3  N   UNL     1       1.567   8.075  20.970  0.00  0.00    +0.000 NA
ATOM      4  C   UNL     1       0.837   9.018  21.626  0.00  0.00    +0.000 A 
ATOM      5  C   UNL     1       0.698   9.182  23.005  0.00  0.00    +0.000 A 
ATOM      6  N   UNL     1      -0.063  10.178  23.506  0.00  0.00    +0.000 NA
ATOM      7  C   UNL     1      -0.726  10.990  22.678  0.00  0.00    +0.000 A 
ATOM      8  C   UNL     1      -1.511  11.978  23.253  0.00  0.00    +0.000 A 
ATOM      9  C   UNL     1      -2.357  12.829  22.516  0.00  0.00    +0.000 A 
ATOM     10  C   UNL     1      -2.360  12.691  21.120  0.00  0.00    +0.000 A 
ATOM     11  C   UNL     1      -1.480  11.783  20.518  0.00  0.00    +0.000 A 
ATOM     12  C   UNL     1      -0.682  10.896  21.267  0.00  0.00    +0.000 A 
ATOM     13  C   UNL     1       0.176   9.871  20.739  0.00  0.00    +0.000 A 
ENDROOT
BRANCH   9  14
ATOM     14  C   UNL     1      -3.202  13.782  23.247  0.00  0.00    +0.000 A 
ATOM     15  C   UNL     1      -4.624  13.811  23.442  0.00  0.00    +0.000 A 
ATOM     16  C   UNL     1      -5.697  12.920  22.935  0.00  0.00    +0.000 C 
ATOM     17  N   UNL     1      -4.992  14.836  24.220  0.00  0.00    +0.000 NA
ATOM     18  O   UNL     1      -3.835  15.498  24.545  0.00  0.00    +0.000 OA
ATOM     19  C   UNL     1      -2.767  14.876  23.979  0.00  0.00    +0.000 A 
ATOM     20  C   UNL     1      -1.470  15.511  24.295  0.00  0.00    +0.000 C 
ENDBRANCH   9  14
BRANCH   2  21
ATOM     21  C   UNL     1       2.061   7.438  18.631  0.00  0.00    +0.000 C 
ATOM     22  C   UNL     1       2.441   6.063  19.220  0.00  0.00    +0.000 C 
ATOM     23  C   UNL     1       3.230   5.233  18.220  0.00  0.00    +0.000 C 
ATOM     24  O   UNL     1       4.389   5.939  17.781  0.00  0.00    +0.000 OA
ATOM     25  C   UNL     1       4.065   7.167  17.135  0.00  0.00    +0.000 C 
ATOM     26  C   UNL     1       3.327   8.107  18.082  0.00  0.00    +0.000 C 
ENDBRANCH   2  21
BRANCH   1  27
ATOM     27  C   UNL     1       0.306  10.001  18.169  0.00  0.00    +0.000 C 
ATOM     28  C   UNL     1       0.865  11.425  18.022  0.00  0.00    +0.000 C 
BRANCH  27  29
ATOM     29  C   UNL     1      -1.155   9.798  17.711  0.00  0.00    +0.000 C 
BRANCH  29  31
ATOM     30  C   UNL     1      -2.582  10.871  16.148  0.00  0.00    +0.000 C 
ATOM     31  O   UNL     1      -1.689  11.039  17.243  0.00  0.00    +0.000 OA
ENDBRANCH  29  31
ENDBRANCH  27  29
ENDBRANCH   1  27
BRANCH  10  32
ATOM     32  O   UNL     1      -3.226  13.455  20.387  0.00  0.00    +0.000 OA
ATOM     33  C   UNL     1      -4.246  12.797  19.641  0.00  0.00    +0.000 C 
ENDBRANCH  10  32
TORSDOF 6
ENDMDL
MODEL 3
REMARK VINA RESULT:      -6.2      2.267      8.434
REMARK  Name = 
REMARK  11 active torsions:
REMARK  status: ('A' for Active; 'I' for Inactive)
REMARK    1  A    between atoms: C_1  and  O_2
REMARK    2  A    between atoms: O_2  and  C_3
REMARK    3  A    between atoms: C_3  and  C_4
REMARK    4  A    between atoms: C_4  and  C_5
REMARK    5  A    between atoms: C_4  and  N_6
REMARK    6  A    between atoms: C_7  and  C_8
REMARK    7  A    between atoms: C_20  and  C_21
REMARK    8  A    between atoms: C_22  and  C_23
REMARK    9  A    between atoms: C_26  and  C_27
REMARK   10  A    between atoms: C_28  and  O_29
REMARK   11  A    between atoms: O_29  and  C_30
REMARK                            x       y       z     vdW  Elec       q    Type
REMARK                         _______ _______ _______ _____ _____    ______ ____
ROOT
ATOM      1  N   UNL     1       0.248  11.589  20.002  0.00  0.00    +0.000 N 
ATOM      2  C   UNL     1      -0.221  12.444  20.998  0.00  0.00    +0.000 A 
ATOM      3  N   UNL     1      -0.257  11.827  22.160  0.00  0.00    +0.000 NA
ATOM      4  C   UNL     1       0.211  10.567  21.944  0.00  0.00    +0.000 A 
ATOM      5  C   UNL     1       0.360   9.541  22.878  0.00  0.00    +0.000 A 
ATOM      6  N   UNL     1       0.836   8.334  22.505  0.00  0.00    +0.000 NA
ATOM      7  C   UNL     1       1.211   8.129  21.239  0.00  0.00    +0.000 A 
ATOM      8  C   UNL     1       1.716   6.878  20.923  0.00  0.00    +0.000 A 
ATOM      9  C   UNL     1       2.260   6.552  19.665  0.00  0.00    +0.000 A 
ATOM     10  C   UNL     1       2.239   7.542  18.672  0.00  0.00    +0.000 A 
ATOM     11  C   UNL     1       1.619   8.770  18.940  0.00  0.00    +0.000 A 
ATOM     12  C   UNL     1       1.132   9.106  20.218  0.00  0.00    +0.000 A 
ATOM     13  C   UNL     1       0.570  10.369  20.608  0.00  0.00    +0.000 A 
ENDROOT
BRANCH   9  14
ATOM     14  C   UNL     1       2.839   5.215  19.477  0.00  0.00    +0.000 A 
ATOM     15  C   UNL     1       4.204   4.803  19.316  0.00  0.00    +0.000 A 
ATOM     16  C   UNL     1       5.459   5.592  19.243  0.00  0.00    +0.000 C 
ATOM     17  N   UNL     1       4.307   3.472  19.219  0.00  0.00    +0.000 NA
ATOM     18  O   UNL     1       3.028   2.987  19.307  0.00  0.00    +0.000 OA
ATOM     19  C   UNL     1       2.150   4.012  19.468  0.00  0.00    +0.000 A 
ATOM     20  C   UNL     1       0.742   3.578  19.595  0.00  0.00    +0.000 C 
ENDBRANCH   9  14
BRANCH   2  21
ATOM     21  C   UNL     1      -0.658  13.884  20.845  0.00  0.00    +0.000 C 
ATOM     22  C   UNL     1       0.017  14.771  21.913  0.00  0.00    +0.000 C 
ATOM     23  C   UNL     1      -0.518  16.193  21.869  0.00  0.00    +0.000 C 
ATOM     24  O   UNL     1      -1.936  16.204  22.017  0.00  0.00    +0.000 OA
ATOM     25  C   UNL     1      -2.597  15.481  20.983  0.00  0.00    +0.000 C 
ATOM     26  C   UNL     1      -2.180  14.014  20.986  0.00  0.00    +0.000 C 
ENDBRANCH   2  21
BRANCH   1  27
ATOM     27  C   UNL     1       0.296  11.932  18.579  0.00  0.00    +0.000 C 
ATOM     28  C   UNL     1       1.396  12.954  18.248  0.00  0.00    +0.000 C 
BRANCH  27  29
ATOM     29  C   UNL     1      -1.096  12.219  17.974  0.00  0.00    +0.000 C 
BRANCH  29  31
ATOM     30  C   UNL     1      -1.725  10.015  17.362  0.00  0.00    +0.000 C 
ATOM     31  O   UNL     1      -1.969  11.116  18.229  0.00  0.00    +0.000 OA
ENDBRANCH  29  31
ENDBRANCH  27  29
ENDBRANCH   1  27
BRANCH  10  32
ATOM     32  O   UNL     1       2.826   7.275  17.466  0.00  0.00    +0.000 OA
ATOM     33  C   UNL     1       4.099   7.851  17.189  0.00  0.00    +0.000 C 
ENDBRANCH  10  32
TORSDOF 6
ENDMDL
MODEL 4
REMARK VINA RESULT:      -6.0      2.322      8.706
REMARK  Name = 
REMARK  11 active torsions:
REMARK  status: ('A' for Active; 'I' for Inactive)
REMARK    1  A    between atoms: C_1  and  O_2
REMARK    2  A    between atoms: O_2  and  C_3
REMARK    3  A    between atoms: C_3  and  C_4
REMARK    4  A    between atoms: C_4  and  C_5
REMARK    5  A    between atoms: C_4  and  N_6
REMARK    6  A    between atoms: C_7  and  C_8
REMARK    7  A    between atoms: C_20  and  C_21
REMARK    8  A    between atoms: C_22  and  C_23
REMARK    9  A    between atoms: C_26  and  C_27
REMARK   10  A    between atoms: C_28  and  O_29
REMARK   11  A    between atoms: O_29  and  C_30
REMARK                            x       y       z     vdW  Elec       q    Type
REMARK                         _______ _______ _______ _____ _____    ______ ____
ROOT
ATOM      1  N   UNL     1       0.551  11.512  19.924  0.00  0.00    +0.000 N 
ATOM      2  C   UNL     1       0.062  12.267  20.987  0.00  0.00    +0.000 A 
ATOM      3  N   UNL     1      -0.018  11.536  22.078  0.00  0.00    +0.000 NA
ATOM      4  C   UNL     1       0.441  10.298  21.748  0.00  0.00    +0.000 A 
ATOM      5  C   UNL     1       0.549   9.180  22.576  0.00  0.00    +0.000 A 
ATOM      6  N   UNL     1       1.023   8.010  22.096  0.00  0.00    +0.000 NA
ATOM      7  C   UNL     1       1.435   7.930  20.827  0.00  0.00    +0.000 A 
ATOM      8  C   UNL     1       1.935   6.710  20.400  0.00  0.00    +0.000 A 
ATOM      9  C   UNL     1       2.514   6.506  19.132  0.00  0.00    +0.000 A 
ATOM     10  C   UNL     1       2.536   7.593  18.246  0.00  0.00    +0.000 A 
ATOM     11  C   UNL     1       1.923   8.796  18.619  0.00  0.00    +0.000 A 
ATOM     12  C   UNL     1       1.400   9.007  19.910  0.00  0.00    +0.000 A 
ATOM     13  C   UNL     1       0.840  10.232  20.411  0.00  0.00    +0.000 A 
ENDROOT
BRANCH   9  14
ATOM     14  C   UNL     1       3.083   5.188  18.826  0.00  0.00    +0.000 A 
ATOM     15  C   UNL     1       2.466   4.004  18.299  0.00  0.00    +0.000 A 
ATOM     16  C   UNL     1       1.055   3.716  17.939  0.00  0.00    +0.000 C 
ATOM     17  N   UNL     1       3.358   3.021  18.122  0.00  0.00    +0.000 NA
ATOM     18  O   UNL     1       4.565   3.531  18.528  0.00  0.00    +0.000 OA
ATOM     19  C   UNL     1       4.414   4.817  18.940  0.00  0.00    +0.000 A 
ATOM     20  C   UNL     1       5.674   5.456  19.377  0.00  0.00    +0.000 C 
ENDBRANCH   9  14
BRANCH   2  21
ATOM     21  C   UNL     1      -0.354  13.723  20.970  0.00  0.00    +0.000 C 
ATOM     22  C   UNL     1       0.603  14.568  21.836  0.00  0.00    +0.000 C 
ATOM     23  C   UNL     1       0.121  16.006  21.949  0.00  0.00    +0.000 C 
ATOM     24  O   UNL     1      -1.209  16.054  22.461  0.00  0.00    +0.000 OA
ATOM     25  C   UNL     1      -2.138  15.370  21.626  0.00  0.00    +0.000 C 
ATOM     26  C   UNL     1      -1.782  13.892  21.503  0.00  0.00    +0.000 C 
ENDBRANCH   2  21
BRANCH   1  27
ATOM     27  C   UNL     1       0.648  11.998  18.545  0.00  0.00    +0.000 C 
ATOM     28  C   UNL     1       1.813  12.981  18.339  0.00  0.00    +0.000 C 
BRANCH  27  29
ATOM     29  C   UNL     1      -0.712  12.429  17.954  0.00  0.00    +0.000 C 
BRANCH  29  31
ATOM     30  C   UNL     1      -2.876  11.697  18.596  0.00  0.00    +0.000 C 
ATOM     31  O   UNL     1      -1.631  11.335  18.010  0.00  0.00    +0.000 OA
ENDBRANCH  29  31
ENDBRANCH  27  29
ENDBRANCH   1  27
BRANCH  10  32
ATOM     32  O   UNL     1       3.158   7.442  17.037  0.00  0.00    +0.000 OA
ATOM     33  C   UNL     1       4.543   7.759  16.942  0.00  0.00    +0.000 C 
ENDBRANCH  10  32
TORSDOF 6
ENDMDL
MODEL 5
REMARK VINA RESULT:      -6.0      0.963      1.719
REMARK  Name = 
REMARK  11 active torsions:
REMARK  status: ('A' for Active; 'I' for Inactive)
REMARK    1  A    between atoms: C_1  and  O_2
REMARK    2  A    between atoms: O_2  and  C_3
REMARK    3  A    between atoms: C_3  and  C_4
REMARK    4  A    between atoms: C_4  and  C_5
REMARK    5  A    between atoms: C_4  and  N_6
REMARK    6  A    between atoms: C_7  and  C_8
REMARK    7  A    between atoms: C_20  and  C_21
REMARK    8  A    between atoms: C_22  and  C_23
REMARK    9  A    between atoms: C_26  and  C_27
REMARK   10  A    between atoms: C_28  and  O_29
REMARK   11  A    between atoms: O_29  and  C_30
REMARK                            x       y       z     vdW  Elec       q    Type
REMARK                         _______ _______ _______ _____ _____    ______ ____
ROOT
ATOM      1  N   UNL     1       0.904   9.550  19.440  0.00  0.00    +0.000 N 
ATOM      2  C   UNL     1       1.466   8.284  19.591  0.00  0.00    +0.000 A 
ATOM      3  N   UNL     1       1.407   7.896  20.847  0.00  0.00    +0.000 NA
ATOM      4  C   UNL     1       0.782   8.894  21.530  0.00  0.00    +0.000 A 
ATOM      5  C   UNL     1       0.488   8.939  22.894  0.00  0.00    +0.000 A 
ATOM      6  N   UNL     1      -0.137  10.010  23.428  0.00  0.00    +0.000 NA
ATOM      7  C   UNL     1      -0.519  11.019  22.640  0.00  0.00    +0.000 A 
ATOM      8  C   UNL     1      -1.178  12.079  23.243  0.00  0.00    +0.000 A 
ATOM      9  C   UNL     1      -1.743  13.153  22.529  0.00  0.00    +0.000 A 
ATOM     10  C   UNL     1      -1.580  13.163  21.135  0.00  0.00    +0.000 A 
ATOM     11  C   UNL     1      -0.810  12.165  20.527  0.00  0.00    +0.000 A 
ATOM     12  C   UNL     1      -0.300  11.064  21.243  0.00  0.00    +0.000 A 
ATOM     13  C   UNL     1       0.417   9.948  20.690  0.00  0.00    +0.000 A 
ENDROOT
BRANCH   9  14
ATOM     14  C   UNL     1      -2.489  14.175  23.274  0.00  0.00    +0.000 A 
ATOM     15  C   UNL     1      -3.853  14.197  23.721  0.00  0.00    +0.000 A 
ATOM     16  C   UNL     1      -4.955  13.220  23.537  0.00  0.00    +0.000 C 
ATOM     17  N   UNL     1      -4.125  15.308  24.415  0.00  0.00    +0.000 NA
ATOM     18  O   UNL     1      -2.962  16.035  24.436  0.00  0.00    +0.000 OA
ATOM     19  C   UNL     1      -1.983  15.369  23.768  0.00  0.00    +0.000 A 
ATOM     20  C   UNL     1      -0.682  16.071  23.758  0.00  0.00    +0.000 C 
ENDBRANCH   9  14
BRANCH   2  21
ATOM     21  C   UNL     1       2.090   7.418  18.517  0.00  0.00    +0.000 C 
ATOM     22  C   UNL     1       2.245   5.966  19.016  0.00  0.00    +0.000 C 
ATOM     23  C   UNL     1       2.999   5.113  18.008  0.00  0.00    +0.000 C 
ATOM     24  O   UNL     1       4.269   5.690  17.709  0.00  0.00    +0.000 OA
ATOM     25  C   UNL     1       4.155   6.993  17.146  0.00  0.00    +0.000 C 
ATOM     26  C   UNL     1       3.470   7.951  18.114  0.00  0.00    +0.000 C 
ENDBRANCH   2  21
BRANCH   1  27
ATOM     27  C   UNL     1       0.919  10.313  18.189  0.00  0.00    +0.000 C 
ATOM     28  C   UNL     1       1.993  11.414  18.177  0.00  0.00    +0.000 C 
BRANCH  27  29
ATOM     29  C   UNL     1      -0.488  10.737  17.717  0.00  0.00    +0.000 C 
BRANCH  29  31
ATOM     30  C   UNL     1      -2.650   9.826  17.362  0.00  0.00    +0.000 C 
ATOM     31  O   UNL     1      -1.249   9.578  17.368  0.00  0.00    +0.000 OA
ENDBRANCH  29  31
ENDBRANCH  27  29
ENDBRANCH   1  27
BRANCH  10  32
ATOM     32  O   UNL     1      -2.182  14.156  20.411  0.00  0.00    +0.000 OA
ATOM     33  C   UNL     1      -1.397  15.277  20.013  0.00  0.00    +0.000 C 
ENDBRANCH  10  32
TORSDOF 6
ENDMDL
MODEL 6
REMARK VINA RESULT:      -5.9      3.141      9.279
REMARK  Name = 
REMARK  11 active torsions:
REMARK  status: ('A' for Active; 'I' for Inactive)
REMARK    1  A    between atoms: C_1  and  O_2
REMARK    2  A    between atoms: O_2  and  C_3
REMARK    3  A    between atoms: C_3  and  C_4
REMARK    4  A    between atoms: C_4  and  C_5
REMARK    5  A    between atoms: C_4  and  N_6
REMARK    6  A    between atoms: C_7  and  C_8
REMARK    7  A    between atoms: C_20  and  C_21
REMARK    8  A    between atoms: C_22  and  C_23
REMARK    9  A    between atoms: C_26  and  C_27
REMARK   10  A    between atoms: C_28  and  O_29
REMARK   11  A    between atoms: O_29  and  C_30
REMARK                            x       y       z     vdW  Elec       q    Type
REMARK                         _______ _______ _______ _____ _____    ______ ____
ROOT
ATOM      1  N   UNL     1       0.950  10.332  20.769  0.00  0.00    +0.000 N 
ATOM      2  C   UNL     1       0.805  11.613  20.239  0.00  0.00    +0.000 A 
ATOM      3  N   UNL     1       1.212  11.646  18.989  0.00  0.00    +0.000 NA
ATOM      4  C   UNL     1       1.607  10.382  18.676  0.00  0.00    +0.000 A 
ATOM      5  C   UNL     1       2.116   9.923  17.461  0.00  0.00    +0.000 A 
ATOM      6  N   UNL     1       2.471   8.629  17.307  0.00  0.00    +0.000 NA
ATOM      7  C   UNL     1       2.294   7.767  18.312  0.00  0.00    +0.000 A 
ATOM      8  C   UNL     1       2.654   6.448  18.085  0.00  0.00    +0.000 A 
ATOM      9  C   UNL     1       2.417   5.406  19.003  0.00  0.00    +0.000 A 
ATOM     10  C   UNL     1       1.828   5.745  20.230  0.00  0.00    +0.000 A 
ATOM     11  C   UNL     1       1.573   7.090  20.522  0.00  0.00    +0.000 A 
ATOM     12  C   UNL     1       1.759   8.116  19.575  0.00  0.00    +0.000 A 
ATOM     13  C   UNL     1       1.438   9.506  19.751  0.00  0.00    +0.000 A 
ENDROOT
BRANCH   9  14
ATOM     14  C   UNL     1       2.770   4.035  18.614  0.00  0.00    +0.000 A 
ATOM     15  C   UNL     1       1.951   2.866  18.467  0.00  0.00    +0.000 A 
ATOM     16  C   UNL     1       0.501   2.654  18.701  0.00  0.00    +0.000 C 
ATOM     17  N   UNL     1       2.666   1.815  18.045  0.00  0.00    +0.000 NA
ATOM     18  O   UNL     1       3.955   2.265  17.913  0.00  0.00    +0.000 OA
ATOM     19  C   UNL     1       4.026   3.582  18.240  0.00  0.00    +0.000 A 
ATOM     20  C   UNL     1       5.381   4.158  18.105  0.00  0.00    +0.000 C 
ENDBRANCH   9  14
BRANCH   2  21
ATOM     21  C   UNL     1       0.274  12.845  20.939  0.00  0.00    +0.000 C 
ATOM     22  C   UNL     1      -0.761  13.568  20.052  0.00  0.00    +0.000 C 
ATOM     23  C   UNL     1      -1.199  14.884  20.674  0.00  0.00    +0.000 C 
ATOM     24  O   UNL     1      -0.073  15.721  20.930  0.00  0.00    +0.000 OA
ATOM     25  C   UNL     1       0.854  15.124  21.833  0.00  0.00    +0.000 C 
ATOM     26  C   UNL     1       1.410  13.822  21.267  0.00  0.00    +0.000 C 
ENDBRANCH   2  21
BRANCH   1  27
ATOM     27  C   UNL     1       0.698   9.988  22.171  0.00  0.00    +0.000 C 
ATOM     28  C   UNL     1       1.882   9.260  22.828  0.00  0.00    +0.000 C 
BRANCH  27  29
ATOM     29  C   UNL     1      -0.693   9.361  22.404  0.00  0.00    +0.000 C 
BRANCH  29  31
ATOM     30  C   UNL     1      -1.738  11.361  23.138  0.00  0.00    +0.000 C 
ATOM     31  O   UNL     1      -1.352  10.035  23.479  0.00  0.00    +0.000 OA
ENDBRANCH  29  31
ENDBRANCH  27  29
ENDBRANCH   1  27
BRANCH  10  32
ATOM     32  O   UNL     1       1.520   4.742  21.109  0.00  0.00    +0.000 OA
ATOM     33  C   UNL     1       2.587   4.027  21.724  0.00  0.00    +0.000 C 
ENDBRANCH  10  32
TORSDOF 6
ENDMDL
MODEL 7
REMARK VINA RESULT:      -5.8      2.595      9.268
REMARK  Name = 
REMARK  11 active torsions:
REMARK  status: ('A' for Active; 'I' for Inactive)
REMARK    1  A    between atoms: C_1  and  O_2
REMARK    2  A    between atoms: O_2  and  C_3
REMARK    3  A    between atoms: C_3  and  C_4
REMARK    4  A    between atoms: C_4  and  C_5
REMARK    5  A    between atoms: C_4  and  N_6
REMARK    6  A    between atoms: C_7  and  C_8
REMARK    7  A    between atoms: C_20  and  C_21
REMARK    8  A    between atoms: C_22  and  C_23
REMARK    9  A    between atoms: C_26  and  C_27
REMARK   10  A    between atoms: C_28  and  O_29
REMARK   11  A    between atoms: O_29  and  C_30
REMARK                            x       y       z     vdW  Elec       q    Type
REMARK                         _______ _______ _______ _____ _____    ______ ____
ROOT
ATOM      1  N   UNL     1       0.218  10.568  20.720  0.00  0.00    +0.000 N 
ATOM      2  C   UNL     1      -0.185  11.807  20.227  0.00  0.00    +0.000 A 
ATOM      3  N   UNL     1       0.317  12.017  19.029  0.00  0.00    +0.000 NA
ATOM      4  C   UNL     1       1.037  10.907  18.712  0.00  0.00    +0.000 A 
ATOM      5  C   UNL     1       1.754  10.662  17.540  0.00  0.00    +0.000 A 
ATOM      6  N   UNL     1       2.428   9.504  17.375  0.00  0.00    +0.000 NA
ATOM      7  C   UNL     1       2.374   8.562  18.321  0.00  0.00    +0.000 A 
ATOM      8  C   UNL     1       3.066   7.385  18.082  0.00  0.00    +0.000 A 
ATOM      9  C   UNL     1       3.006   6.260  18.928  0.00  0.00    +0.000 A 
ATOM     10  C   UNL     1       2.239   6.368  20.098  0.00  0.00    +0.000 A 
ATOM     11  C   UNL     1       1.637   7.592  20.413  0.00  0.00    +0.000 A 
ATOM     12  C   UNL     1       1.654   8.691  19.532  0.00  0.00    +0.000 A 
ATOM     13  C   UNL     1       0.987   9.949  19.728  0.00  0.00    +0.000 A 
ENDROOT
BRANCH   9  14
ATOM     14  C   UNL     1       3.719   5.041  18.526  0.00  0.00    +0.000 A 
ATOM     15  C   UNL     1       3.256   3.875  17.828  0.00  0.00    +0.000 A 
ATOM     16  C   UNL     1       1.907   3.508  17.331  0.00  0.00    +0.000 C 
ATOM     17  N   UNL     1       4.249   3.003  17.616  0.00  0.00    +0.000 NA
ATOM     18  O   UNL     1       5.371   3.567  18.167  0.00  0.00    +0.000 OA
ATOM     19  C   UNL     1       5.069   4.779  18.703  0.00  0.00    +0.000 A 
ATOM     20  C   UNL     1       6.229   5.472  19.303  0.00  0.00    +0.000 C 
ENDBRANCH   9  14
BRANCH   2  21
ATOM     21  C   UNL     1      -1.065  12.830  20.914  0.00  0.00    +0.000 C 
ATOM     22  C   UNL     1      -2.424  12.946  20.193  0.00  0.00    +0.000 C 
ATOM     23  C   UNL     1      -3.266  14.068  20.779  0.00  0.00    +0.000 C 
ATOM     24  O   UNL     1      -2.557  15.305  20.737  0.00  0.00    +0.000 OA
ATOM     25  C   UNL     1      -1.345  15.263  21.485  0.00  0.00    +0.000 C 
ATOM     26  C   UNL     1      -0.394  14.209  20.929  0.00  0.00    +0.000 C 
ENDBRANCH   2  21
BRANCH   1  27
ATOM     27  C   UNL     1      -0.072  10.085  22.072  0.00  0.00    +0.000 C 
ATOM     28  C   UNL     1      -0.795   8.728  22.078  0.00  0.00    +0.000 C 
BRANCH  27  29
ATOM     29  C   UNL     1      -0.668  11.172  22.992  0.00  0.00    +0.000 C 
BRANCH  29  31
ATOM     30  C   UNL     1      -2.816  11.892  23.698  0.00  0.00    +0.000 C 
ATOM     31  O   UNL     1      -1.975  10.779  23.419  0.00  0.00    +0.000 OA
ENDBRANCH  29  31
ENDBRANCH  27  29
ENDBRANCH   1  27
BRANCH  10  32
ATOM     32  O   UNL     1       2.106   5.267  20.899  0.00  0.00    +0.000 OA
ATOM     33  C   UNL     1       1.008   4.389  20.668  0.00  0.00    +0.000 C 
ENDBRANCH  10  32
TORSDOF 6
ENDMDL
MODEL 8
REMARK VINA RESULT:      -5.7      1.616      2.044
REMARK  Name = 
REMARK  11 active torsions:
REMARK  status: ('A' for Active; 'I' for Inactive)
REMARK    1  A    between atoms: C_1  and  O_2
REMARK    2  A    between atoms: O_2  and  C_3
REMARK    3  A    between atoms: C_3  and  C_4
REMARK    4  A    between atoms: C_4  and  C_5
REMARK    5  A    between atoms: C_4  and  N_6
REMARK    6  A    between atoms: C_7  and  C_8
REMARK    7  A    between atoms: C_20  and  C_21
REMARK    8  A    between atoms: C_22  and  C_23
REMARK    9  A    between atoms: C_26  and  C_27
REMARK   10  A    between atoms: C_28  and  O_29
REMARK   11  A    between atoms: O_29  and  C_30
REMARK                            x       y       z     vdW  Elec       q    Type
REMARK                         _______ _______ _______ _____ _____    ______ ____
ROOT
ATOM      1  N   UNL     1      -0.734  10.598  19.590  0.00  0.00    +0.000 N 
ATOM      2  C   UNL     1       0.243   9.650  19.890  0.00  0.00    +0.000 A 
ATOM      3  N   UNL     1       0.429   9.570  21.190  0.00  0.00    +0.000 NA
ATOM      4  C   UNL     1      -0.441  10.448  21.760  0.00  0.00    +0.000 A 
ATOM      5  C   UNL     1      -0.614  10.716  23.119  0.00  0.00    +0.000 A 
ATOM      6  N   UNL     1      -1.522  11.626  23.530  0.00  0.00    +0.000 NA
ATOM      7  C   UNL     1      -2.296  12.246  22.635  0.00  0.00    +0.000 A 
ATOM      8  C   UNL     1      -3.227  13.151  23.121  0.00  0.00    +0.000 A 
ATOM      9  C   UNL     1      -4.188  13.790  22.314  0.00  0.00    +0.000 A 
ATOM     10  C   UNL     1      -4.159  13.524  20.937  0.00  0.00    +0.000 A 
ATOM     11  C   UNL     1      -3.146  12.709  20.416  0.00  0.00    +0.000 A 
ATOM     12  C   UNL     1      -2.227  12.029  21.238  0.00  0.00    +0.000 A 
ATOM     13  C   UNL     1      -1.218  11.103  20.802  0.00  0.00    +0.000 A 
ENDROOT
BRANCH   9  14
ATOM     14  C   UNL     1      -5.174  14.666  22.958  0.00  0.00    +0.000 A 
ATOM     15  C   UNL     1      -5.243  16.098  23.033  0.00  0.00    +0.000 A 
ATOM     16  C   UNL     1      -4.325  17.148  22.525  0.00  0.00    +0.000 C 
ATOM     17  N   UNL     1      -6.343  16.504  23.681  0.00  0.00    +0.000 NA
ATOM     18  O   UNL     1      -7.008  15.361  24.047  0.00  0.00    +0.000 OA
ATOM     19  C   UNL     1      -6.327  14.266  23.616  0.00  0.00    +0.000 A 
ATOM     20  C   UNL     1      -6.985  12.985  23.948  0.00  0.00    +0.000 C 
ENDBRANCH   9  14
BRANCH   2  21
ATOM     21  C   UNL     1       1.033   8.801  18.917  0.00  0.00    +0.000 C 
ATOM     22  C   UNL     1       1.791   7.684  19.665  0.00  0.00    +0.000 C 
ATOM     23  C   UNL     1       2.702   6.911  18.725  0.00  0.00    +0.000 C 
ATOM     24  O   UNL     1       3.609   7.790  18.065  0.00  0.00    +0.000 OA
ATOM     25  C   UNL     1       2.940   8.771  17.277  0.00  0.00    +0.000 C 
ATOM     26  C   UNL     1       2.047   9.653  18.143  0.00  0.00    +0.000 C 
ENDBRANCH   2  21
BRANCH   1  27
ATOM     27  C   UNL     1      -1.091  11.011  18.231  0.00  0.00    +0.000 C 
ATOM     28  C   UNL     1      -0.881  12.515  17.990  0.00  0.00    +0.000 C 
BRANCH  27  29
ATOM     29  C   UNL     1      -2.440  10.433  17.754  0.00  0.00    +0.000 C 
BRANCH  29  31
ATOM     30  C   UNL     1      -2.864  10.693  15.433  0.00  0.00    +0.000 C 
ATOM     31  O   UNL     1      -2.290   9.874  16.446  0.00  0.00    +0.000 OA
ENDBRANCH  29  31
ENDBRANCH  27  29
ENDBRANCH   1  27
BRANCH  10  32
ATOM     32  O   UNL     1      -5.126  14.075  20.141  0.00  0.00    +0.000 OA
ATOM     33  C   UNL     1      -6.020  13.202  19.456  0.00  0.00    +0.000 C 
ENDBRANCH  10  32
TORSDOF 6
ENDMDL
MODEL 9
REMARK VINA RESULT:      -5.6      2.702      4.419
REMARK  Name = 
REMARK  11 active torsions:
REMARK  status: ('A' for Active; 'I' for Inactive)
REMARK    1  A    between atoms: C_1  and  O_2
REMARK    2  A    between atoms: O_2  and  C_3
REMARK    3  A    between atoms: C_3  and  C_4
REMARK    4  A    between atoms: C_4  and  C_5
REMARK    5  A    between atoms: C_4  and  N_6
REMARK    6  A    between atoms: C_7  and  C_8
REMARK    7  A    between atoms: C_20  and  C_21
REMARK    8  A    between atoms: C_22  and  C_23
REMARK    9  A    between atoms: C_26  and  C_27
REMARK   10  A    between atoms: C_28  and  O_29
REMARK   11  A    between atoms: O_29  and  C_30
REMARK                            x       y       z     vdW  Elec       q    Type
REMARK                         _______ _______ _______ _____ _____    ______ ____
ROOT
ATOM      1  N   UNL     1      -0.681  11.240  20.170  0.00  0.00    +0.000 N 
ATOM      2  C   UNL     1      -0.246  10.338  19.200  0.00  0.00    +0.000 A 
ATOM      3  N   UNL     1      -1.170  10.165  18.279  0.00  0.00    +0.000 NA
ATOM      4  C   UNL     1      -2.213  10.970  18.622  0.00  0.00    +0.000 A 
ATOM      5  C   UNL     1      -3.424  11.129  17.947  0.00  0.00    +0.000 A 
ATOM      6  N   UNL     1      -4.370  11.968  18.420  0.00  0.00    +0.000 NA
ATOM      7  C   UNL     1      -4.131  12.688  19.519  0.00  0.00    +0.000 A 
ATOM      8  C   UNL     1      -5.131  13.551  19.940  0.00  0.00    +0.000 A 
ATOM      9  C   UNL     1      -4.980  14.458  21.008  0.00  0.00    +0.000 A 
ATOM     10  C   UNL     1      -3.763  14.442  21.705  0.00  0.00    +0.000 A 
ATOM     11  C   UNL     1      -2.791  13.491  21.369  0.00  0.00    +0.000 A 
ATOM     12  C   UNL     1      -2.929  12.629  20.263  0.00  0.00    +0.000 A 
ATOM     13  C   UNL     1      -1.950  11.691  19.789  0.00  0.00    +0.000 A 
ENDROOT
BRANCH   9  14
ATOM     14  C   UNL     1      -6.084  15.378  21.307  0.00  0.00    +0.000 A 
ATOM     15  C   UNL     1      -6.986  15.424  22.423  0.00  0.00    +0.000 A 
ATOM     16  C   UNL     1      -7.123  14.535  23.604  0.00  0.00    +0.000 C 
ATOM     17  N   UNL     1      -7.826  16.463  22.334  0.00  0.00    +0.000 NA
ATOM     18  O   UNL     1      -7.501  17.111  21.170  0.00  0.00    +0.000 OA
ATOM     19  C   UNL     1      -6.465  16.481  20.557  0.00  0.00    +0.000 A 
ATOM     20  C   UNL     1      -6.032  17.127  19.300  0.00  0.00    +0.000 C 
ENDBRANCH   9  14
BRANCH   2  21
ATOM     21  C   UNL     1       1.080   9.610  19.148  0.00  0.00    +0.000 C 
ATOM     22  C   UNL     1       1.391   9.157  17.706  0.00  0.00    +0.000 C 
ATOM     23  C   UNL     1       2.646   8.300  17.655  0.00  0.00    +0.000 C 
ATOM     24  O   UNL     1       2.527   7.179  18.529  0.00  0.00    +0.000 OA
ATOM     25  C   UNL     1       2.345   7.566  19.888  0.00  0.00    +0.000 C 
ATOM     26  C   UNL     1       1.066   8.378  20.060  0.00  0.00    +0.000 C 
ENDBRANCH   2  21
BRANCH   1  27
ATOM     27  C   UNL     1       0.063  11.558  21.391  0.00  0.00    +0.000 C 
ATOM     28  C   UNL     1      -0.652  11.081  22.666  0.00  0.00    +0.000 C 
BRANCH  27  29
ATOM     29  C   UNL     1       0.597  13.007  21.418  0.00  0.00    +0.000 C 
BRANCH  29  31
ATOM     30  C   UNL     1       2.482  14.302  20.787  0.00  0.00    +0.000 C 
ATOM     31  O   UNL     1       1.998  13.009  21.131  0.00  0.00    +0.000 OA
ENDBRANCH  29  31
ENDBRANCH  27  29
ENDBRANCH   1  27
BRANCH  10  32
ATOM     32  O   UNL     1      -3.563  15.362  22.698  0.00  0.00    +0.000 OA
ATOM     33  C   UNL     1      -2.256  15.494  23.248  0.00  0.00    +0.000 C 
ENDBRANCH  10  32
TORSDOF 6
ENDMDL
