MODEL 1
REMARK VINA RESULT:      -8.8      0.000      0.000
REMARK  Name = 
REMARK  4 active torsions:
REMARK  status: ('A' for Active; 'I' for Inactive)
REMARK    1  A    between atoms: C_2  and  O_3
REMARK    2  A    between atoms: O_3  and  C_4
REMARK    3  A    between atoms: C_11  and  O_12
REMARK    4  A    between atoms: C_18  and  C_19
REMARK                            x       y       z     vdW  Elec       q    Type
REMARK                         _______ _______ _______ _____ _____    ______ ____
ROOT
ATOM      1  O   UNL     1       3.618   7.184  18.248  0.00  0.00    +0.000 OA
ATOM      2  C   UNL     1       4.319   6.216  18.510  0.00  0.00    +0.000 C 
ATOM      3  N   UNL     1       5.462   5.885  17.830  0.00  0.00    +0.000 N 
ATOM      4  C   UNL     1       6.191   4.645  18.001  0.00  0.00    +0.000 C 
ATOM      5  C   UNL     1       7.485   4.867  17.237  0.00  0.00    +0.000 C 
ATOM      6  C   UNL     1       7.073   5.792  16.079  0.00  0.00    +0.000 C 
ATOM      7  C   UNL     1       5.971   6.662  16.715  0.00  0.00    +0.000 C 
ENDROOT
BRANCH   6   8
ATOM      8  C   UNL     1       6.706   4.991  14.837  0.00  0.00    +0.000 A 
ATOM      9  C   UNL     1       7.531   4.885  13.714  0.00  0.00    +0.000 A 
ATOM     10  C   UNL     1       7.120   4.130  12.609  0.00  0.00    +0.000 A 
ATOM     11  N   UNL     1       5.896   3.489  12.583  0.00  0.00    +0.000 N 
ATOM     12  O   UNL     1       5.537   2.809  11.574  0.00  0.00    +0.000 OA
ATOM     13  C   UNL     1       5.072   3.606  13.685  0.00  0.00    +0.000 A 
ATOM     14  C   UNL     1       5.460   4.348  14.803  0.00  0.00    +0.000 A 
ENDBRANCH   6   8
BRANCH   2  15
ATOM     15  O   UNL     1       4.036   5.294  19.464  0.00  0.00    +0.000 OA
BRANCH  15  16
ATOM     16  C   UNL     1       2.683   4.818  19.522  0.00  0.00    +0.000 C 
ATOM     17  C   UNL     1       2.341   4.225  18.135  0.00  0.00    +0.000 C 
ATOM     18  C   UNL     1       0.907   3.678  18.153  0.00  0.00    +0.000 C 
ATOM     19  C   UNL     1       0.779   2.573  19.217  0.00  0.00    +0.000 C 
ATOM     20  C   UNL     1       1.133   3.157  20.598  0.00  0.00    +0.000 C 
ATOM     21  C   UNL     1       2.574   3.705  20.590  0.00  0.00    +0.000 C 
ATOM     22  C   UNL     1       3.539   2.553  20.256  0.00  0.00    +0.000 C 
ATOM     23  C   UNL     1       3.199   1.967  18.874  0.00  0.00    +0.000 C 
ATOM     24  C   UNL     1       1.758   1.433  18.886  0.00  0.00    +0.000 C 
ATOM     25  C   UNL     1       3.311   3.069  17.808  0.00  0.00    +0.000 C 
BRANCH  23  26
ATOM     26  O   UNL     1       4.106   0.923  18.555  0.00  0.00    +0.000 OA
ATOM     27  H   UNL     1       5.004   1.297  18.548  0.00  0.00    +0.000 HD
ENDBRANCH  23  26
ENDBRANCH  15  16
ENDBRANCH   2  15
TORSDOF 4
ENDMDL
MODEL 2
REMARK VINA RESULT:      -8.6      4.844      6.984
REMARK  Name = 
REMARK  4 active torsions:
REMARK  status: ('A' for Active; 'I' for Inactive)
REMARK    1  A    between atoms: C_2  and  O_3
REMARK    2  A    between atoms: O_3  and  C_4
REMARK    3  A    between atoms: C_11  and  O_12
REMARK    4  A    between atoms: C_18  and  C_19
REMARK                            x       y       z     vdW  Elec       q    Type
REMARK                         _______ _______ _______ _____ _____    ______ ____
ROOT
ATOM      1  O   UNL     1       1.547   7.012  21.358  0.00  0.00    +0.000 OA
ATOM      2  C   UNL     1       1.839   7.173  20.182  0.00  0.00    +0.000 C 
ATOM      3  N   UNL     1       1.666   8.349  19.498  0.00  0.00    +0.000 N 
ATOM      4  C   UNL     1       1.826   8.499  18.066  0.00  0.00    +0.000 C 
ATOM      5  C   UNL     1       1.783  10.000  17.844  0.00  0.00    +0.000 C 
ATOM      6  C   UNL     1       0.830  10.507  18.940  0.00  0.00    +0.000 C 
ATOM      7  C   UNL     1       1.115   9.544  20.109  0.00  0.00    +0.000 C 
ENDROOT
BRANCH   6   8
ATOM      8  C   UNL     1      -0.603  10.587  18.430  0.00  0.00    +0.000 A 
ATOM      9  C   UNL     1      -1.099   9.792  17.393  0.00  0.00    +0.000 A 
ATOM     10  C   UNL     1      -2.430   9.927  16.980  0.00  0.00    +0.000 A 
ATOM     11  N   UNL     1      -3.281  10.849  17.562  0.00  0.00    +0.000 N 
ATOM     12  O   UNL     1      -4.485  10.959  17.176  0.00  0.00    +0.000 OA
ATOM     13  C   UNL     1      -2.787  11.646  18.576  0.00  0.00    +0.000 A 
ATOM     14  C   UNL     1      -1.466  11.528  19.011  0.00  0.00    +0.000 A 
ENDBRANCH   6   8
BRANCH   2  15
ATOM     15  O   UNL     1       2.314   6.200  19.364  0.00  0.00    +0.000 OA
BRANCH  15  16
ATOM     16  C   UNL     1       1.875   4.859  19.631  0.00  0.00    +0.000 C 
ATOM     17  C   UNL     1       1.528   4.207  18.272  0.00  0.00    +0.000 C 
ATOM     18  C   UNL     1       1.075   2.759  18.502  0.00  0.00    +0.000 C 
ATOM     19  C   UNL     1       2.203   1.954  19.173  0.00  0.00    +0.000 C 
ATOM     20  C   UNL     1       2.560   2.611  20.520  0.00  0.00    +0.000 C 
ATOM     21  C   UNL     1       3.022   4.065  20.298  0.00  0.00    +0.000 C 
ATOM     22  C   UNL     1       4.261   4.056  19.386  0.00  0.00    +0.000 C 
ATOM     23  C   UNL     1       3.913   3.410  18.033  0.00  0.00    +0.000 C 
ATOM     24  C   UNL     1       3.443   1.964  18.263  0.00  0.00    +0.000 C 
ATOM     25  C   UNL     1       2.777   4.200  17.364  0.00  0.00    +0.000 C 
BRANCH  23  26
ATOM     26  O   UNL     1       5.049   3.427  17.182  0.00  0.00    +0.000 OA
ATOM     27  H   UNL     1       5.539   4.250  17.351  0.00  0.00    +0.000 HD
ENDBRANCH  23  26
ENDBRANCH  15  16
ENDBRANCH   2  15
TORSDOF 4
ENDMDL
MODEL 3
REMARK VINA RESULT:      -8.1      5.030      7.287
REMARK  Name = 
REMARK  4 active torsions:
REMARK  status: ('A' for Active; 'I' for Inactive)
REMARK    1  A    between atoms: C_2  and  O_3
REMARK    2  A    between atoms: O_3  and  C_4
REMARK    3  A    between atoms: C_11  and  O_12
REMARK    4  A    between atoms: C_18  and  C_19
REMARK                            x       y       z     vdW  Elec       q    Type
REMARK                         _______ _______ _______ _____ _____    ______ ____
ROOT
ATOM      1  O   UNL     1       1.429   7.105  21.265  0.00  0.00    +0.000 OA
ATOM      2  C   UNL     1       1.789   7.415  20.138  0.00  0.00    +0.000 C 
ATOM      3  N   UNL     1       1.550   8.635  19.560  0.00  0.00    +0.000 N 
ATOM      4  C   UNL     1       1.798   8.949  18.168  0.00  0.00    +0.000 C 
ATOM      5  C   UNL     1       1.621  10.455  18.090  0.00  0.00    +0.000 C 
ATOM      6  C   UNL     1       0.545  10.753  19.147  0.00  0.00    +0.000 C 
ATOM      7  C   UNL     1       0.838   9.704  20.237  0.00  0.00    +0.000 C 
ENDROOT
BRANCH   6   8
ATOM      8  C   UNL     1      -0.848  10.754  18.531  0.00  0.00    +0.000 A 
ATOM      9  C   UNL     1      -1.216   9.942  17.454  0.00  0.00    +0.000 A 
ATOM     10  C   UNL     1      -2.517  10.002  16.941  0.00  0.00    +0.000 A 
ATOM     11  N   UNL     1      -3.464  10.866  17.463  0.00  0.00    +0.000 N 
ATOM     12  O   UNL     1      -4.639  10.909  16.987  0.00  0.00    +0.000 OA
ATOM     13  C   UNL     1      -3.096  11.680  18.516  0.00  0.00    +0.000 A 
ATOM     14  C   UNL     1      -1.807  11.636  19.050  0.00  0.00    +0.000 A 
ENDBRANCH   6   8
BRANCH   2  15
ATOM     15  O   UNL     1       2.418   6.581  19.272  0.00  0.00    +0.000 OA
BRANCH  15  16
ATOM     16  C   UNL     1       3.148   5.485  19.844  0.00  0.00    +0.000 C 
ATOM     17  C   UNL     1       2.159   4.305  20.004  0.00  0.00    +0.000 C 
ATOM     18  C   UNL     1       2.900   3.096  20.591  0.00  0.00    +0.000 C 
ATOM     19  C   UNL     1       4.042   2.671  19.650  0.00  0.00    +0.000 C 
ATOM     20  C   UNL     1       5.020   3.848  19.478  0.00  0.00    +0.000 C 
ATOM     21  C   UNL     1       4.285   5.067  18.883  0.00  0.00    +0.000 C 
ATOM     22  C   UNL     1       3.705   4.675  17.513  0.00  0.00    +0.000 C 
ATOM     23  C   UNL     1       2.720   3.504  17.675  0.00  0.00    +0.000 C 
ATOM     24  C   UNL     1       3.456   2.296  18.278  0.00  0.00    +0.000 C 
ATOM     25  C   UNL     1       1.584   3.916  18.625  0.00  0.00    +0.000 C 
BRANCH  23  26
ATOM     26  O   UNL     1       2.165   3.160  16.415  0.00  0.00    +0.000 OA
ATOM     27  H   UNL     1       1.196   3.207  16.490  0.00  0.00    +0.000 HD
ENDBRANCH  23  26
ENDBRANCH  15  16
ENDBRANCH   2  15
TORSDOF 4
ENDMDL
MODEL 4
REMARK VINA RESULT:      -8.1      4.693      7.601
REMARK  Name = 
REMARK  4 active torsions:
REMARK  status: ('A' for Active; 'I' for Inactive)
REMARK    1  A    between atoms: C_2  and  O_3
REMARK    2  A    between atoms: O_3  and  C_4
REMARK    3  A    between atoms: C_11  and  O_12
REMARK    4  A    between atoms: C_18  and  C_19
REMARK                            x       y       z     vdW  Elec       q    Type
REMARK                         _______ _______ _______ _____ _____    ______ ____
ROOT
ATOM      1  O   UNL     1       2.065   6.192  19.821  0.00  0.00    +0.000 OA
ATOM      2  C   UNL     1       2.446   6.981  18.968  0.00  0.00    +0.000 C 
ATOM      3  N   UNL     1       2.068   8.297  18.910  0.00  0.00    +0.000 N 
ATOM      4  C   UNL     1       2.354   9.189  17.805  0.00  0.00    +0.000 C 
ATOM      5  C   UNL     1       1.964  10.561  18.324  0.00  0.00    +0.000 C 
ATOM      6  C   UNL     1       0.791  10.273  19.276  0.00  0.00    +0.000 C 
ATOM      7  C   UNL     1       1.166   8.903  19.873  0.00  0.00    +0.000 C 
ENDROOT
BRANCH   6   8
ATOM      8  C   UNL     1      -0.546  10.382  18.553  0.00  0.00    +0.000 A 
ATOM      9  C   UNL     1      -0.878   9.621  17.428  0.00  0.00    +0.000 A 
ATOM     10  C   UNL     1      -2.128   9.781  16.817  0.00  0.00    +0.000 A 
ATOM     11  N   UNL     1      -3.054  10.694  17.287  0.00  0.00    +0.000 N 
ATOM     12  O   UNL     1      -4.182  10.827  16.722  0.00  0.00    +0.000 OA
ATOM     13  C   UNL     1      -2.720  11.458  18.388  0.00  0.00    +0.000 A 
ATOM     14  C   UNL     1      -1.483  11.315  19.020  0.00  0.00    +0.000 A 
ENDBRANCH   6   8
BRANCH   2  15
ATOM     15  O   UNL     1       3.244   6.658  17.919  0.00  0.00    +0.000 OA
BRANCH  15  16
ATOM     16  C   UNL     1       4.629   6.416  18.209  0.00  0.00    +0.000 C 
ATOM     17  C   UNL     1       4.842   4.883  18.200  0.00  0.00    +0.000 C 
ATOM     18  C   UNL     1       6.318   4.573  18.483  0.00  0.00    +0.000 C 
ATOM     19  C   UNL     1       7.207   5.211  17.399  0.00  0.00    +0.000 C 
ATOM     20  C   UNL     1       6.985   6.735  17.397  0.00  0.00    +0.000 C 
ATOM     21  C   UNL     1       5.505   7.057  17.108  0.00  0.00    +0.000 C 
ATOM     22  C   UNL     1       5.133   6.481  15.731  0.00  0.00    +0.000 C 
ATOM     23  C   UNL     1       5.342   4.956  15.726  0.00  0.00    +0.000 C 
ATOM     24  C   UNL     1       6.818   4.641  16.024  0.00  0.00    +0.000 C 
ATOM     25  C   UNL     1       4.469   4.313  16.815  0.00  0.00    +0.000 C 
BRANCH  23  26
ATOM     26  O   UNL     1       4.973   4.421  14.464  0.00  0.00    +0.000 OA
ATOM     27  H   UNL     1       5.779   4.098  14.027  0.00  0.00    +0.000 HD
ENDBRANCH  23  26
ENDBRANCH  15  16
ENDBRANCH   2  15
TORSDOF 4
ENDMDL
MODEL 5
REMARK VINA RESULT:      -8.0      5.165      7.384
REMARK  Name = 
REMARK  4 active torsions:
REMARK  status: ('A' for Active; 'I' for Inactive)
REMARK    1  A    between atoms: C_2  and  O_3
REMARK    2  A    between atoms: O_3  and  C_4
REMARK    3  A    between atoms: C_11  and  O_12
REMARK    4  A    between atoms: C_18  and  C_19
REMARK                            x       y       z     vdW  Elec       q    Type
REMARK                         _______ _______ _______ _____ _____    ______ ____
ROOT
ATOM      1  O   UNL     1       1.153   7.288  21.400  0.00  0.00    +0.000 OA
ATOM      2  C   UNL     1       1.643   7.739  20.375  0.00  0.00    +0.000 C 
ATOM      3  N   UNL     1       1.344   8.971  19.854  0.00  0.00    +0.000 N 
ATOM      4  C   UNL     1       1.766   9.438  18.550  0.00  0.00    +0.000 C 
ATOM      5  C   UNL     1       1.413  10.914  18.551  0.00  0.00    +0.000 C 
ATOM      6  C   UNL     1       0.154  10.990  19.432  0.00  0.00    +0.000 C 
ATOM      7  C   UNL     1       0.404   9.885  20.478  0.00  0.00    +0.000 C 
ENDROOT
BRANCH   6   8
ATOM      8  C   UNL     1      -1.113  10.888  18.593  0.00  0.00    +0.000 A 
ATOM      9  C   UNL     1      -1.261   9.999  17.524  0.00  0.00    +0.000 A 
ATOM     10  C   UNL     1      -2.458   9.967  16.799  0.00  0.00    +0.000 A 
ATOM     11  N   UNL     1      -3.512  10.811  17.099  0.00  0.00    +0.000 N 
ATOM     12  O   UNL     1      -4.590  10.771  16.431  0.00  0.00    +0.000 OA
ATOM     13  C   UNL     1      -3.360  11.701  18.144  0.00  0.00    +0.000 A 
ATOM     14  C   UNL     1      -2.179  11.750  18.888  0.00  0.00    +0.000 A 
ENDBRANCH   6   8
BRANCH   2  15
ATOM     15  O   UNL     1       2.501   7.065  19.568  0.00  0.00    +0.000 OA
BRANCH  15  16
ATOM     16  C   UNL     1       2.231   5.671  19.357  0.00  0.00    +0.000 C 
ATOM     17  C   UNL     1       2.293   5.414  17.832  0.00  0.00    +0.000 C 
ATOM     18  C   UNL     1       2.034   3.927  17.555  0.00  0.00    +0.000 C 
ATOM     19  C   UNL     1       3.102   3.067  18.253  0.00  0.00    +0.000 C 
ATOM     20  C   UNL     1       3.053   3.332  19.770  0.00  0.00    +0.000 C 
ATOM     21  C   UNL     1       3.317   4.824  20.058  0.00  0.00    +0.000 C 
ATOM     22  C   UNL     1       4.710   5.193  19.517  0.00  0.00    +0.000 C 
ATOM     23  C   UNL     1       4.768   4.940  18.000  0.00  0.00    +0.000 C 
ATOM     24  C   UNL     1       4.493   3.454  17.719  0.00  0.00    +0.000 C 
ATOM     25  C   UNL     1       3.693   5.784  17.297  0.00  0.00    +0.000 C 
BRANCH  23  26
ATOM     26  O   UNL     1       6.044   5.306  17.497  0.00  0.00    +0.000 OA
ATOM     27  H   UNL     1       6.425   4.529  17.053  0.00  0.00    +0.000 HD
ENDBRANCH  23  26
ENDBRANCH  15  16
ENDBRANCH   2  15
TORSDOF 4
ENDMDL
MODEL 6
REMARK VINA RESULT:      -7.9      0.963      1.191
REMARK  Name = 
REMARK  4 active torsions:
REMARK  status: ('A' for Active; 'I' for Inactive)
REMARK    1  A    between atoms: C_2  and  O_3
REMARK    2  A    between atoms: O_3  and  C_4
REMARK    3  A    between atoms: C_11  and  O_12
REMARK    4  A    between atoms: C_18  and  C_19
REMARK                            x       y       z     vdW  Elec       q    Type
REMARK                         _______ _______ _______ _____ _____    ______ ____
ROOT
ATOM      1  O   UNL     1       3.734   7.467  17.709  0.00  0.00    +0.000 OA
ATOM      2  C   UNL     1       4.336   6.454  18.034  0.00  0.00    +0.000 C 
ATOM      3  N   UNL     1       5.461   5.990  17.404  0.00  0.00    +0.000 N 
ATOM      4  C   UNL     1       6.069   4.699  17.651  0.00  0.00    +0.000 C 
ATOM      5  C   UNL     1       7.397   4.768  16.918  0.00  0.00    +0.000 C 
ATOM      6  C   UNL     1       7.103   5.672  15.709  0.00  0.00    +0.000 C 
ATOM      7  C   UNL     1       6.068   6.666  16.272  0.00  0.00    +0.000 C 
ENDROOT
BRANCH   6   8
ATOM      8  C   UNL     1       6.696   4.850  14.492  0.00  0.00    +0.000 A 
ATOM      9  C   UNL     1       7.486   4.726  13.345  0.00  0.00    +0.000 A 
ATOM     10  C   UNL     1       7.040   3.953  12.267  0.00  0.00    +0.000 A 
ATOM     11  N   UNL     1       5.815   3.311  12.290  0.00  0.00    +0.000 N 
ATOM     12  O   UNL     1       5.425   2.615  11.304  0.00  0.00    +0.000 OA
ATOM     13  C   UNL     1       5.027   3.447  13.416  0.00  0.00    +0.000 A 
ATOM     14  C   UNL     1       5.450   4.206  14.508  0.00  0.00    +0.000 A 
ENDBRANCH   6   8
BRANCH   2  15
ATOM     15  O   UNL     1       3.945   5.606  19.019  0.00  0.00    +0.000 OA
BRANCH  15  16
ATOM     16  C   UNL     1       2.597   5.115  18.952  0.00  0.00    +0.000 C 
ATOM     17  C   UNL     1       2.661   3.656  18.442  0.00  0.00    +0.000 C 
ATOM     18  C   UNL     1       1.242   3.076  18.376  0.00  0.00    +0.000 C 
ATOM     19  C   UNL     1       0.602   3.091  19.776  0.00  0.00    +0.000 C 
ATOM     20  C   UNL     1       0.550   4.541  20.293  0.00  0.00    +0.000 C 
ATOM     21  C   UNL     1       1.973   5.130  20.367  0.00  0.00    +0.000 C 
ATOM     22  C   UNL     1       2.815   4.272  21.328  0.00  0.00    +0.000 C 
ATOM     23  C   UNL     1       2.880   2.822  20.815  0.00  0.00    +0.000 C 
ATOM     24  C   UNL     1       1.458   2.244  20.734  0.00  0.00    +0.000 C 
ATOM     25  C   UNL     1       3.505   2.800  19.411  0.00  0.00    +0.000 C 
BRANCH  23  26
ATOM     26  O   UNL     1       3.680   2.036  21.687  0.00  0.00    +0.000 OA
ATOM     27  H   UNL     1       3.990   2.610  22.408  0.00  0.00    +0.000 HD
ENDBRANCH  23  26
ENDBRANCH  15  16
ENDBRANCH   2  15
TORSDOF 4
ENDMDL
MODEL 7
REMARK VINA RESULT:      -7.8      4.600      7.156
REMARK  Name = 
REMARK  4 active torsions:
REMARK  status: ('A' for Active; 'I' for Inactive)
REMARK    1  A    between atoms: C_2  and  O_3
REMARK    2  A    between atoms: O_3  and  C_4
REMARK    3  A    between atoms: C_11  and  O_12
REMARK    4  A    between atoms: C_18  and  C_19
REMARK                            x       y       z     vdW  Elec       q    Type
REMARK                         _______ _______ _______ _____ _____    ______ ____
ROOT
ATOM      1  O   UNL     1       3.275   7.543  17.233  0.00  0.00    +0.000 OA
ATOM      2  C   UNL     1       2.668   7.597  18.294  0.00  0.00    +0.000 C 
ATOM      3  N   UNL     1       1.797   8.599  18.633  0.00  0.00    +0.000 N 
ATOM      4  C   UNL     1       1.223   8.780  19.951  0.00  0.00    +0.000 C 
ATOM      5  C   UNL     1       0.154   9.838  19.748  0.00  0.00    +0.000 C 
ATOM      6  C   UNL     1       0.721  10.724  18.626  0.00  0.00    +0.000 C 
ATOM      7  C   UNL     1       1.493   9.714  17.754  0.00  0.00    +0.000 C 
ENDROOT
BRANCH   6   8
ATOM      8  C   UNL     1       1.504  11.901  19.194  0.00  0.00    +0.000 A 
ATOM      9  C   UNL     1       1.376  12.348  20.513  0.00  0.00    +0.000 A 
ATOM     10  C   UNL     1       2.129  13.440  20.960  0.00  0.00    +0.000 A 
ATOM     11  N   UNL     1       2.998  14.114  20.122  0.00  0.00    +0.000 N 
ATOM     12  O   UNL     1       3.673  15.103  20.542  0.00  0.00    +0.000 OA
ATOM     13  C   UNL     1       3.112  13.684  18.814  0.00  0.00    +0.000 A 
ATOM     14  C   UNL     1       2.378  12.594  18.344  0.00  0.00    +0.000 A 
ENDBRANCH   6   8
BRANCH   2  15
ATOM     15  O   UNL     1       2.817   6.715  19.314  0.00  0.00    +0.000 OA
BRANCH  15  16
ATOM     16  C   UNL     1       1.883   5.626  19.369  0.00  0.00    +0.000 C 
ATOM     17  C   UNL     1       2.117   4.754  18.112  0.00  0.00    +0.000 C 
ATOM     18  C   UNL     1       1.156   3.557  18.136  0.00  0.00    +0.000 C 
ATOM     19  C   UNL     1       1.407   2.705  19.394  0.00  0.00    +0.000 C 
ATOM     20  C   UNL     1       1.190   3.575  20.646  0.00  0.00    +0.000 C 
ATOM     21  C   UNL     1       2.156   4.778  20.633  0.00  0.00    +0.000 C 
ATOM     22  C   UNL     1       3.602   4.251  20.617  0.00  0.00    +0.000 C 
ATOM     23  C   UNL     1       3.832   3.387  19.364  0.00  0.00    +0.000 C 
ATOM     24  C   UNL     1       2.859   2.196  19.378  0.00  0.00    +0.000 C 
ATOM     25  C   UNL     1       3.568   4.227  18.104  0.00  0.00    +0.000 C 
BRANCH  23  26
ATOM     26  O   UNL     1       5.174   2.924  19.336  0.00  0.00    +0.000 OA
ATOM     27  H   UNL     1       5.736   3.652  19.023  0.00  0.00    +0.000 HD
ENDBRANCH  23  26
ENDBRANCH  15  16
ENDBRANCH   2  15
TORSDOF 4
ENDMDL
MODEL 8
REMARK VINA RESULT:      -7.7      5.030      7.352
REMARK  Name = 
REMARK  4 active torsions:
REMARK  status: ('A' for Active; 'I' for Inactive)
REMARK    1  A    between atoms: C_2  and  O_3
REMARK    2  A    between atoms: O_3  and  C_4
REMARK    3  A    between atoms: C_11  and  O_12
REMARK    4  A    between atoms: C_18  and  C_19
REMARK                            x       y       z     vdW  Elec       q    Type
REMARK                         _______ _______ _______ _____ _____    ______ ____
ROOT
ATOM      1  O   UNL     1       1.511   7.221  21.456  0.00  0.00    +0.000 OA
ATOM      2  C   UNL     1       1.724   7.341  20.257  0.00  0.00    +0.000 C 
ATOM      3  N   UNL     1       1.549   8.505  19.556  0.00  0.00    +0.000 N 
ATOM      4  C   UNL     1       1.611   8.613  18.113  0.00  0.00    +0.000 C 
ATOM      5  C   UNL     1       1.610  10.109  17.852  0.00  0.00    +0.000 C 
ATOM      6  C   UNL     1       0.759  10.681  18.998  0.00  0.00    +0.000 C 
ATOM      7  C   UNL     1       1.089   9.737  20.171  0.00  0.00    +0.000 C 
ENDROOT
BRANCH   6   8
ATOM      8  C   UNL     1      -0.703  10.806  18.589  0.00  0.00    +0.000 A 
ATOM      9  C   UNL     1      -1.305  10.000  17.619  0.00  0.00    +0.000 A 
ATOM     10  C   UNL     1      -2.656  10.179  17.296  0.00  0.00    +0.000 A 
ATOM     11  N   UNL     1      -3.424  11.156  17.903  0.00  0.00    +0.000 N 
ATOM     12  O   UNL     1      -4.646  11.306  17.600  0.00  0.00    +0.000 OA
ATOM     13  C   UNL     1      -2.825  11.964  18.850  0.00  0.00    +0.000 A 
ATOM     14  C   UNL     1      -1.482  11.803  19.195  0.00  0.00    +0.000 A 
ENDBRANCH   6   8
BRANCH   2  15
ATOM     15  O   UNL     1       2.101   6.329  19.436  0.00  0.00    +0.000 OA
BRANCH  15  16
ATOM     16  C   UNL     1       2.878   5.274  20.023  0.00  0.00    +0.000 C 
ATOM     17  C   UNL     1       1.928   4.446  20.921  0.00  0.00    +0.000 C 
ATOM     18  C   UNL     1       2.708   3.286  21.555  0.00  0.00    +0.000 C 
ATOM     19  C   UNL     1       3.282   2.374  20.455  0.00  0.00    +0.000 C 
ATOM     20  C   UNL     1       4.216   3.200  19.550  0.00  0.00    +0.000 C 
ATOM     21  C   UNL     1       3.439   4.365  18.905  0.00  0.00    +0.000 C 
ATOM     22  C   UNL     1       2.288   3.786  18.063  0.00  0.00    +0.000 C 
ATOM     23  C   UNL     1       1.343   2.966  18.960  0.00  0.00    +0.000 C 
ATOM     24  C   UNL     1       2.126   1.813  19.608  0.00  0.00    +0.000 C 
ATOM     25  C   UNL     1       0.778   3.867  20.070  0.00  0.00    +0.000 C 
BRANCH  23  26
ATOM     26  O   UNL     1       0.267   2.455  18.188  0.00  0.00    +0.000 OA
ATOM     27  H   UNL     1       0.529   2.481  17.252  0.00  0.00    +0.000 HD
ENDBRANCH  23  26
ENDBRANCH  15  16
ENDBRANCH   2  15
TORSDOF 4
ENDMDL
MODEL 9
REMARK VINA RESULT:      -7.7      4.613      7.356
REMARK  Name = 
REMARK  4 active torsions:
REMARK  status: ('A' for Active; 'I' for Inactive)
REMARK    1  A    between atoms: C_2  and  O_3
REMARK    2  A    between atoms: O_3  and  C_4
REMARK    3  A    between atoms: C_11  and  O_12
REMARK    4  A    between atoms: C_18  and  C_19
REMARK                            x       y       z     vdW  Elec       q    Type
REMARK                         _______ _______ _______ _____ _____    ______ ____
ROOT
ATOM      1  O   UNL     1       3.226   7.611  16.957  0.00  0.00    +0.000 OA
ATOM      2  C   UNL     1       2.755   7.606  18.085  0.00  0.00    +0.000 C 
ATOM      3  N   UNL     1       1.872   8.543  18.556  0.00  0.00    +0.000 N 
ATOM      4  C   UNL     1       1.458   8.661  19.939  0.00  0.00    +0.000 C 
ATOM      5  C   UNL     1       0.309   9.652  19.899  0.00  0.00    +0.000 C 
ATOM      6  C   UNL     1       0.675  10.593  18.739  0.00  0.00    +0.000 C 
ATOM      7  C   UNL     1       1.393   9.651  17.752  0.00  0.00    +0.000 C 
ENDROOT
BRANCH   6   8
ATOM      8  C   UNL     1       1.448  11.807  19.237  0.00  0.00    +0.000 A 
ATOM      9  C   UNL     1       1.336  12.314  20.536  0.00  0.00    +0.000 A 
ATOM     10  C   UNL     1       2.080  13.437  20.917  0.00  0.00    +0.000 A 
ATOM     11  N   UNL     1       2.923  14.085  20.033  0.00  0.00    +0.000 N 
ATOM     12  O   UNL     1       3.589  15.102  20.394  0.00  0.00    +0.000 OA
ATOM     13  C   UNL     1       3.021  13.595  18.745  0.00  0.00    +0.000 A 
ATOM     14  C   UNL     1       2.296  12.473  18.340  0.00  0.00    +0.000 A 
ENDBRANCH   6   8
BRANCH   2  15
ATOM     15  O   UNL     1       3.085   6.717  19.055  0.00  0.00    +0.000 OA
BRANCH  15  16
ATOM     16  C   UNL     1       3.700   5.491  18.628  0.00  0.00    +0.000 C 
ATOM     17  C   UNL     1       3.942   4.631  19.891  0.00  0.00    +0.000 C 
ATOM     18  C   UNL     1       4.579   3.295  19.483  0.00  0.00    +0.000 C 
ATOM     19  C   UNL     1       3.641   2.535  18.529  0.00  0.00    +0.000 C 
ATOM     20  C   UNL     1       3.386   3.396  17.277  0.00  0.00    +0.000 C 
ATOM     21  C   UNL     1       2.742   4.738  17.677  0.00  0.00    +0.000 C 
ATOM     22  C   UNL     1       1.405   4.454  18.386  0.00  0.00    +0.000 C 
ATOM     23  C   UNL     1       1.650   3.601  19.643  0.00  0.00    +0.000 C 
ATOM     24  C   UNL     1       2.302   2.269  19.239  0.00  0.00    +0.000 C 
ATOM     25  C   UNL     1       2.598   4.348  20.595  0.00  0.00    +0.000 C 
BRANCH  23  26
ATOM     26  O   UNL     1       0.420   3.362  20.312  0.00  0.00    +0.000 OA
ATOM     27  H   UNL     1      -0.282   3.311  19.640  0.00  0.00    +0.000 HD
ENDBRANCH  23  26
ENDBRANCH  15  16
ENDBRANCH   2  15
TORSDOF 4
ENDMDL
