MODEL 1
REMARK VINA RESULT:      -6.6      0.000      0.000
REMARK  Name = 
REMARK  10 active torsions:
REMARK  status: ('A' for Active; 'I' for Inactive)
REMARK    1  A    between atoms: C_1  and  C_2
REMARK    2  A    between atoms: C_2  and  C_3
REMARK    3  A    between atoms: C_3  and  C_4
REMARK    4  A    between atoms: C_4  and  C_5
REMARK    5  A    between atoms: C_7  and  C_8
REMARK    6  A    between atoms: N_9  and  P_10
REMARK    7  A    between atoms: P_10  and  C_12
REMARK    8  A    between atoms: P_10  and  C_18
REMARK    9  A    between atoms: C_25  and  O_26
REMARK   10  A    between atoms: C_25  and  C_27
REMARK                            x       y       z     vdW  Elec       q    Type
REMARK                         _______ _______ _______ _____ _____    ______ ____
ROOT
ATOM      1  C   UNL     1      -0.994  15.463  20.725  0.00  0.00    +0.000 C 
ATOM      2  N   UNL     1      -0.483  13.865  20.805  0.00  0.00    +0.000 NA
ATOM      3  C   UNL     1       0.969  13.851  20.232  0.00  0.00    +0.000 C 
ATOM      4  C   UNL     1       2.037  14.781  20.863  0.00  0.00    +0.000 C 
ATOM      5  C   UNL     1       1.414  16.149  21.088  0.00  0.00    +0.000 C 
ATOM      6  C   UNL     1       0.197  16.334  20.203  0.00  0.00    +0.000 C 
ATOM      7  C   UNL     1       0.108  16.585  18.685  0.00  0.00    +0.000 C 
ATOM      8  C   UNL     1       0.287  17.740  19.577  0.00  0.00    +0.000 C 
ENDROOT
BRANCH   4   9
ATOM      9  C   UNL     1       3.315  15.091  20.057  0.00  0.00    +0.000 A 
ATOM     10  C   UNL     1       3.453  14.729  18.706  0.00  0.00    +0.000 A 
ATOM     11  C   UNL     1       4.345  15.405  17.865  0.00  0.00    +0.000 A 
ATOM     12  C   UNL     1       5.161  16.410  18.367  0.00  0.00    +0.000 A 
ATOM     13  C   UNL     1       5.122  16.704  19.730  0.00  0.00    +0.000 A 
ATOM     14  C   UNL     1       4.222  16.049  20.561  0.00  0.00    +0.000 A 
ENDBRANCH   4   9
BRANCH   1  17
ATOM     15  C   UNL     1      -2.941  16.070  22.652  0.00  0.00    +0.000 C 
ATOM     16  C   UNL     1      -1.739  15.624  23.394  0.00  0.00    +0.000 C 
ATOM     17  C   UNL     1      -1.473  16.215  22.022  0.00  0.00    +0.000 C 
BRANCH  15  18
ATOM     18  C   UNL     1      -4.021  15.100  22.217  0.00  0.00    +0.000 C 
BRANCH  18  19
ATOM     19  C   UNL     1      -4.192  13.700  22.837  0.00  0.00    +0.000 C 
BRANCH  19  21
ATOM     20  C   UNL     1      -6.146  12.600  21.499  0.00  0.00    +0.000 C 
ATOM     21  C   UNL     1      -4.648  12.740  21.702  0.00  0.00    +0.000 C 
ENDBRANCH  19  21
ENDBRANCH  18  19
ENDBRANCH  15  18
ENDBRANCH   1  17
BRANCH   2  22
ATOM     22  P   UNL     1      -1.294  12.755  19.674  0.00  0.00    +0.000 P 
ATOM     23  O   UNL     1      -0.053  12.829  18.744  0.00  0.00    +0.000 OA
BRANCH  22  24
ATOM     24  C   UNL     1      -0.912  11.270  20.957  0.00  0.00    +0.000 A 
ATOM     25  C   UNL     1      -0.290  10.069  20.575  0.00  0.00    +0.000 A 
ATOM     26  C   UNL     1       0.122   9.151  21.543  0.00  0.00    +0.000 A 
ATOM     27  C   UNL     1      -0.186   9.367  22.885  0.00  0.00    +0.000 A 
ATOM     28  C   UNL     1      -0.900  10.505  23.260  0.00  0.00    +0.000 A 
ATOM     29  C   UNL     1      -1.244  11.467  22.307  0.00  0.00    +0.000 A 
ENDBRANCH  22  24
BRANCH  22  30
ATOM     30  C   UNL     1      -2.129  11.614  18.512  0.00  0.00    +0.000 A 
ATOM     31  C   UNL     1      -3.534  11.583  18.418  0.00  0.00    +0.000 A 
ATOM     32  C   UNL     1      -4.213  10.647  17.631  0.00  0.00    +0.000 A 
ATOM     33  C   UNL     1      -3.499   9.799  16.800  0.00  0.00    +0.000 A 
ATOM     34  C   UNL     1      -2.116   9.914  16.740  0.00  0.00    +0.000 A 
ATOM     35  C   UNL     1      -1.441  10.805  17.588  0.00  0.00    +0.000 A 
ENDBRANCH  22  30
ENDBRANCH   2  22
BRANCH   4  36
ATOM     36  O   UNL     1       2.392  14.226  22.139  0.00  0.00    +0.000 OA
ATOM     37  H   UNL     1       2.591  14.989  22.716  0.00  0.00    +0.000 HD
ENDBRANCH   4  36
TORSDOF 9
ENDMDL
MODEL 2
REMARK VINA RESULT:      -6.5      0.779      1.098
REMARK  Name = 
REMARK  10 active torsions:
REMARK  status: ('A' for Active; 'I' for Inactive)
REMARK    1  A    between atoms: C_1  and  C_2
REMARK    2  A    between atoms: C_2  and  C_3
REMARK    3  A    between atoms: C_3  and  C_4
REMARK    4  A    between atoms: C_4  and  C_5
REMARK    5  A    between atoms: C_7  and  C_8
REMARK    6  A    between atoms: N_9  and  P_10
REMARK    7  A    between atoms: P_10  and  C_12
REMARK    8  A    between atoms: P_10  and  C_18
REMARK    9  A    between atoms: C_25  and  O_26
REMARK   10  A    between atoms: C_25  and  C_27
REMARK                            x       y       z     vdW  Elec       q    Type
REMARK                         _______ _______ _______ _____ _____    ______ ____
ROOT
ATOM      1  C   UNL     1      -0.915  15.395  20.979  0.00  0.00    +0.000 C 
ATOM      2  N   UNL     1      -0.317  13.826  20.921  0.00  0.00    +0.000 NA
ATOM      3  C   UNL     1       1.078  13.926  20.228  0.00  0.00    +0.000 C 
ATOM      4  C   UNL     1       2.148  14.879  20.820  0.00  0.00    +0.000 C 
ATOM      5  C   UNL     1       1.477  16.196  21.177  0.00  0.00    +0.000 C 
ATOM      6  C   UNL     1       0.179  16.359  20.411  0.00  0.00    +0.000 C 
ATOM      7  C   UNL     1      -0.055  16.687  18.923  0.00  0.00    +0.000 C 
ATOM      8  C   UNL     1       0.141  17.800  19.863  0.00  0.00    +0.000 C 
ENDROOT
BRANCH   4   9
ATOM      9  C   UNL     1       3.333  15.304  19.929  0.00  0.00    +0.000 A 
ATOM     10  C   UNL     1       4.626  15.496  20.446  0.00  0.00    +0.000 A 
ATOM     11  C   UNL     1       5.755  15.395  19.624  0.00  0.00    +0.000 A 
ATOM     12  C   UNL     1       5.614  15.165  18.261  0.00  0.00    +0.000 A 
ATOM     13  C   UNL     1       4.336  15.087  17.710  0.00  0.00    +0.000 A 
ATOM     14  C   UNL     1       3.215  15.165  18.529  0.00  0.00    +0.000 A 
ENDBRANCH   4   9
BRANCH   1  17
ATOM     15  C   UNL     1      -2.543  15.547  23.259  0.00  0.00    +0.000 C 
ATOM     16  C   UNL     1      -1.146  15.464  23.744  0.00  0.00    +0.000 C 
ATOM     17  C   UNL     1      -1.317  16.047  22.353  0.00  0.00    +0.000 C 
BRANCH  15  18
ATOM     18  C   UNL     1      -3.389  14.311  23.034  0.00  0.00    +0.000 C 
BRANCH  18  19
ATOM     19  C   UNL     1      -3.603  13.232  24.113  0.00  0.00    +0.000 C 
BRANCH  19  21
ATOM     20  C   UNL     1      -6.064  13.888  23.536  0.00  0.00    +0.000 C 
ATOM     21  C   UNL     1      -5.110  12.847  24.094  0.00  0.00    +0.000 C 
ENDBRANCH  19  21
ENDBRANCH  18  19
ENDBRANCH  15  18
ENDBRANCH   1  17
BRANCH   2  22
ATOM     22  P   UNL     1      -1.165  12.736  19.799  0.00  0.00    +0.000 P 
ATOM     23  O   UNL     1       0.038  12.837  18.824  0.00  0.00    +0.000 OA
BRANCH  22  24
ATOM     24  C   UNL     1      -0.725  11.227  21.034  0.00  0.00    +0.000 A 
ATOM     25  C   UNL     1       0.069  10.131  20.652  0.00  0.00    +0.000 A 
ATOM     26  C   UNL     1       0.500   9.208  21.607  0.00  0.00    +0.000 A 
ATOM     27  C   UNL     1       0.048   9.302  22.922  0.00  0.00    +0.000 A 
ATOM     28  C   UNL     1      -0.829  10.324  23.285  0.00  0.00    +0.000 A 
ATOM     29  C   UNL     1      -1.198  11.299  22.354  0.00  0.00    +0.000 A 
ENDBRANCH  22  24
BRANCH  22  30
ATOM     30  C   UNL     1      -2.038  11.614  18.647  0.00  0.00    +0.000 A 
ATOM     31  C   UNL     1      -3.445  11.616  18.567  0.00  0.00    +0.000 A 
ATOM     32  C   UNL     1      -4.153  10.696  17.787  0.00  0.00    +0.000 A 
ATOM     33  C   UNL     1      -3.468   9.830  16.950  0.00  0.00    +0.000 A 
ATOM     34  C   UNL     1      -2.083   9.913  16.876  0.00  0.00    +0.000 A 
ATOM     35  C   UNL     1      -1.379  10.787  17.717  0.00  0.00    +0.000 A 
ENDBRANCH  22  30
ENDBRANCH   2  22
BRANCH   4  36
ATOM     36  O   UNL     1       2.642  14.277  22.026  0.00  0.00    +0.000 OA
ATOM     37  H   UNL     1       2.759  13.328  21.823  0.00  0.00    +0.000 HD
ENDBRANCH   4  36
TORSDOF 9
ENDMDL
MODEL 3
REMARK VINA RESULT:      -6.4      0.283      1.166
REMARK  Name = 
REMARK  10 active torsions:
REMARK  status: ('A' for Active; 'I' for Inactive)
REMARK    1  A    between atoms: C_1  and  C_2
REMARK    2  A    between atoms: C_2  and  C_3
REMARK    3  A    between atoms: C_3  and  C_4
REMARK    4  A    between atoms: C_4  and  C_5
REMARK    5  A    between atoms: C_7  and  C_8
REMARK    6  A    between atoms: N_9  and  P_10
REMARK    7  A    between atoms: P_10  and  C_12
REMARK    8  A    between atoms: P_10  and  C_18
REMARK    9  A    between atoms: C_25  and  O_26
REMARK   10  A    between atoms: C_25  and  C_27
REMARK                            x       y       z     vdW  Elec       q    Type
REMARK                         _______ _______ _______ _____ _____    ______ ____
ROOT
ATOM      1  C   UNL     1      -1.011  15.639  20.608  0.00  0.00    +0.000 C 
ATOM      2  N   UNL     1      -0.518  14.045  20.802  0.00  0.00    +0.000 NA
ATOM      3  C   UNL     1       0.950  13.984  20.274  0.00  0.00    +0.000 C 
ATOM      4  C   UNL     1       2.008  14.942  20.879  0.00  0.00    +0.000 C 
ATOM      5  C   UNL     1       1.393  16.327  20.999  0.00  0.00    +0.000 C 
ATOM      6  C   UNL     1       0.204  16.466  20.069  0.00  0.00    +0.000 C 
ATOM      7  C   UNL     1       0.162  16.624  18.537  0.00  0.00    +0.000 C 
ATOM      8  C   UNL     1       0.326  17.830  19.360  0.00  0.00    +0.000 C 
ENDROOT
BRANCH   4   9
ATOM      9  C   UNL     1       3.313  15.190  20.094  0.00  0.00    +0.000 A 
ATOM     10  C   UNL     1       3.530  14.649  18.815  0.00  0.00    +0.000 A 
ATOM     11  C   UNL     1       4.437  15.239  17.926  0.00  0.00    +0.000 A 
ATOM     12  C   UNL     1       5.191  16.338  18.316  0.00  0.00    +0.000 A 
ATOM     13  C   UNL     1       5.074  16.818  19.620  0.00  0.00    +0.000 A 
ATOM     14  C   UNL     1       4.157  16.248  20.496  0.00  0.00    +0.000 A 
ENDBRANCH   4   9
BRANCH   1  17
ATOM     15  C   UNL     1      -2.959  16.280  22.523  0.00  0.00    +0.000 C 
ATOM     16  C   UNL     1      -1.710  16.000  23.270  0.00  0.00    +0.000 C 
ATOM     17  C   UNL     1      -1.520  16.475  21.840  0.00  0.00    +0.000 C 
BRANCH  15  18
ATOM     18  C   UNL     1      -3.968  15.194  22.213  0.00  0.00    +0.000 C 
BRANCH  18  19
ATOM     19  C   UNL     1      -3.928  13.798  22.864  0.00  0.00    +0.000 C 
BRANCH  19  21
ATOM     20  C   UNL     1      -5.564  13.424  20.863  0.00  0.00    +0.000 C 
ATOM     21  C   UNL     1      -4.630  12.809  21.891  0.00  0.00    +0.000 C 
ENDBRANCH  19  21
ENDBRANCH  18  19
ENDBRANCH  15  18
ENDBRANCH   1  17
BRANCH   2  22
ATOM     22  P   UNL     1      -1.307  12.874  19.718  0.00  0.00    +0.000 P 
ATOM     23  O   UNL     1      -0.089  12.972  18.760  0.00  0.00    +0.000 OA
BRANCH  22  24
ATOM     24  C   UNL     1      -0.841  11.441  21.031  0.00  0.00    +0.000 A 
ATOM     25  C   UNL     1      -1.158  11.521  22.398  0.00  0.00    +0.000 A 
ATOM     26  C   UNL     1      -0.979  10.413  23.228  0.00  0.00    +0.000 A 
ATOM     27  C   UNL     1      -0.376   9.259  22.731  0.00  0.00    +0.000 A 
ATOM     28  C   UNL     1       0.043   9.211  21.401  0.00  0.00    +0.000 A 
ATOM     29  C   UNL     1      -0.207  10.286  20.545  0.00  0.00    +0.000 A 
ENDBRANCH  22  24
BRANCH  22  30
ATOM     30  C   UNL     1      -2.119  11.670  18.604  0.00  0.00    +0.000 A 
ATOM     31  C   UNL     1      -1.355  10.762  17.847  0.00  0.00    +0.000 A 
ATOM     32  C   UNL     1      -1.928   9.907  16.899  0.00  0.00    +0.000 A 
ATOM     33  C   UNL     1      -3.306   9.835  16.779  0.00  0.00    +0.000 A 
ATOM     34  C   UNL     1      -4.100  10.596  17.629  0.00  0.00    +0.000 A 
ATOM     35  C   UNL     1      -3.515  11.504  18.524  0.00  0.00    +0.000 A 
ENDBRANCH  22  30
ENDBRANCH   2  22
BRANCH   4  36
ATOM     36  O   UNL     1       2.320  14.464  22.196  0.00  0.00    +0.000 OA
ATOM     37  H   UNL     1       3.269  14.655  22.332  0.00  0.00    +0.000 HD
ENDBRANCH   4  36
TORSDOF 9
ENDMDL
MODEL 4
REMARK VINA RESULT:      -6.4      0.654      1.323
REMARK  Name = 
REMARK  10 active torsions:
REMARK  status: ('A' for Active; 'I' for Inactive)
REMARK    1  A    between atoms: C_1  and  C_2
REMARK    2  A    between atoms: C_2  and  C_3
REMARK    3  A    between atoms: C_3  and  C_4
REMARK    4  A    between atoms: C_4  and  C_5
REMARK    5  A    between atoms: C_7  and  C_8
REMARK    6  A    between atoms: N_9  and  P_10
REMARK    7  A    between atoms: P_10  and  C_12
REMARK    8  A    between atoms: P_10  and  C_18
REMARK    9  A    between atoms: C_25  and  O_26
REMARK   10  A    between atoms: C_25  and  C_27
REMARK                            x       y       z     vdW  Elec       q    Type
REMARK                         _______ _______ _______ _____ _____    ______ ____
ROOT
ATOM      1  C   UNL     1      -1.015  15.322  21.053  0.00  0.00    +0.000 C 
ATOM      2  N   UNL     1      -0.404  13.763  20.925  0.00  0.00    +0.000 NA
ATOM      3  C   UNL     1       0.975  13.901  20.208  0.00  0.00    +0.000 C 
ATOM      4  C   UNL     1       2.048  14.843  20.813  0.00  0.00    +0.000 C 
ATOM      5  C   UNL     1       1.372  16.140  21.231  0.00  0.00    +0.000 C 
ATOM      6  C   UNL     1       0.058  16.317  20.497  0.00  0.00    +0.000 C 
ATOM      7  C   UNL     1      -0.210  16.696  19.028  0.00  0.00    +0.000 C 
ATOM      8  C   UNL     1      -0.005  17.777  20.003  0.00  0.00    +0.000 C 
ENDROOT
BRANCH   4   9
ATOM      9  C   UNL     1       3.210  15.312  19.914  0.00  0.00    +0.000 A 
ATOM     10  C   UNL     1       4.526  15.429  20.394  0.00  0.00    +0.000 A 
ATOM     11  C   UNL     1       5.621  15.369  19.523  0.00  0.00    +0.000 A 
ATOM     12  C   UNL     1       5.424  15.256  18.153  0.00  0.00    +0.000 A 
ATOM     13  C   UNL     1       4.124  15.254  17.647  0.00  0.00    +0.000 A 
ATOM     14  C   UNL     1       3.037  15.291  18.513  0.00  0.00    +0.000 A 
ENDBRANCH   4   9
BRANCH   1  17
ATOM     15  C   UNL     1      -2.475  15.267  23.448  0.00  0.00    +0.000 C 
ATOM     16  C   UNL     1      -1.046  15.369  23.827  0.00  0.00    +0.000 C 
ATOM     17  C   UNL     1      -1.395  15.921  22.457  0.00  0.00    +0.000 C 
BRANCH  15  18
ATOM     18  C   UNL     1      -3.167  13.931  23.279  0.00  0.00    +0.000 C 
BRANCH  18  19
ATOM     19  C   UNL     1      -4.652  13.797  22.894  0.00  0.00    +0.000 C 
BRANCH  19  21
ATOM     20  C   UNL     1      -4.905  14.992  20.586  0.00  0.00    +0.000 C 
ATOM     21  C   UNL     1      -4.724  13.689  21.344  0.00  0.00    +0.000 C 
ENDBRANCH  19  21
ENDBRANCH  18  19
ENDBRANCH  15  18
ENDBRANCH   1  17
BRANCH   2  22
ATOM     22  P   UNL     1      -1.266  12.705  19.782  0.00  0.00    +0.000 P 
ATOM     23  O   UNL     1      -0.055  12.799  18.815  0.00  0.00    +0.000 OA
BRANCH  22  24
ATOM     24  C   UNL     1      -0.860  11.170  20.997  0.00  0.00    +0.000 A 
ATOM     25  C   UNL     1      -0.217   9.998  20.561  0.00  0.00    +0.000 A 
ATOM     26  C   UNL     1       0.210   9.044  21.487  0.00  0.00    +0.000 A 
ATOM     27  C   UNL     1      -0.104   9.193  22.837  0.00  0.00    +0.000 A 
ATOM     28  C   UNL     1      -0.839  10.300  23.263  0.00  0.00    +0.000 A 
ATOM     29  C   UNL     1      -1.198  11.298  22.353  0.00  0.00    +0.000 A 
ENDBRANCH  22  24
BRANCH  22  30
ATOM     30  C   UNL     1      -2.152  11.617  18.608  0.00  0.00    +0.000 A 
ATOM     31  C   UNL     1      -1.446  10.709  17.795  0.00  0.00    +0.000 A 
ATOM     32  C   UNL     1      -2.073   9.946  16.804  0.00  0.00    +0.000 A 
ATOM     33  C   UNL     1      -3.453   9.964  16.690  0.00  0.00    +0.000 A 
ATOM     34  C   UNL     1      -4.198  10.720  17.587  0.00  0.00    +0.000 A 
ATOM     35  C   UNL     1      -3.556  11.539  18.528  0.00  0.00    +0.000 A 
ENDBRANCH  22  30
ENDBRANCH   2  22
BRANCH   4  36
ATOM     36  O   UNL     1       2.572  14.203  21.986  0.00  0.00    +0.000 OA
ATOM     37  H   UNL     1       2.238  14.720  22.745  0.00  0.00    +0.000 HD
ENDBRANCH   4  36
TORSDOF 9
ENDMDL
MODEL 5
REMARK VINA RESULT:      -6.4      2.148      6.671
REMARK  Name = 
REMARK  10 active torsions:
REMARK  status: ('A' for Active; 'I' for Inactive)
REMARK    1  A    between atoms: C_1  and  C_2
REMARK    2  A    between atoms: C_2  and  C_3
REMARK    3  A    between atoms: C_3  and  C_4
REMARK    4  A    between atoms: C_4  and  C_5
REMARK    5  A    between atoms: C_7  and  C_8
REMARK    6  A    between atoms: N_9  and  P_10
REMARK    7  A    between atoms: P_10  and  C_12
REMARK    8  A    between atoms: P_10  and  C_18
REMARK    9  A    between atoms: C_25  and  O_26
REMARK   10  A    between atoms: C_25  and  C_27
REMARK                            x       y       z     vdW  Elec       q    Type
REMARK                         _______ _______ _______ _____ _____    ______ ____
ROOT
ATOM      1  C   UNL     1      -4.311  13.085  19.836  0.00  0.00    +0.000 C 
ATOM      2  N   UNL     1      -3.106  12.568  20.886  0.00  0.00    +0.000 NA
ATOM      3  C   UNL     1      -3.230  13.466  22.156  0.00  0.00    +0.000 C 
ATOM      4  C   UNL     1      -4.589  13.533  22.901  0.00  0.00    +0.000 C 
ATOM      5  C   UNL     1      -5.699  13.665  21.871  0.00  0.00    +0.000 C 
ATOM      6  C   UNL     1      -5.150  14.191  20.559  0.00  0.00    +0.000 C 
ATOM      7  C   UNL     1      -4.683  15.611  20.182  0.00  0.00    +0.000 C 
ATOM      8  C   UNL     1      -6.112  15.288  20.059  0.00  0.00    +0.000 C 
ENDROOT
BRANCH   4   9
ATOM      9  C   UNL     1      -4.844  14.710  23.865  0.00  0.00    +0.000 A 
ATOM     10  C   UNL     1      -3.808  15.314  24.598  0.00  0.00    +0.000 A 
ATOM     11  C   UNL     1      -3.926  16.629  25.065  0.00  0.00    +0.000 A 
ATOM     12  C   UNL     1      -5.100  17.343  24.867  0.00  0.00    +0.000 A 
ATOM     13  C   UNL     1      -6.181  16.721  24.243  0.00  0.00    +0.000 A 
ATOM     14  C   UNL     1      -6.058  15.424  23.759  0.00  0.00    +0.000 A 
ENDBRANCH   4   9
BRANCH   1  17
ATOM     15  C   UNL     1      -5.447  11.532  17.794  0.00  0.00    +0.000 C 
ATOM     16  C   UNL     1      -5.203  10.617  18.934  0.00  0.00    +0.000 C 
ATOM     17  C   UNL     1      -5.394  12.077  19.302  0.00  0.00    +0.000 C 
BRANCH  15  18
ATOM     18  C   UNL     1      -4.411  11.761  16.713  0.00  0.00    +0.000 C 
BRANCH  18  19
ATOM     19  C   UNL     1      -3.942  10.652  15.751  0.00  0.00    +0.000 C 
BRANCH  19  21
ATOM     20  C   UNL     1      -1.821  10.460  17.263  0.00  0.00    +0.000 C 
ATOM     21  C   UNL     1      -2.947   9.748  16.534  0.00  0.00    +0.000 C 
ENDBRANCH  19  21
ENDBRANCH  18  19
ENDBRANCH  15  18
ENDBRANCH   1  17
BRANCH   2  22
ATOM     22  P   UNL     1      -1.444  12.949  20.374  0.00  0.00    +0.000 P 
ATOM     23  O   UNL     1      -1.397  14.076  21.440  0.00  0.00    +0.000 OA
BRANCH  22  24
ATOM     24  C   UNL     1      -0.841  11.294  21.320  0.00  0.00    +0.000 A 
ATOM     25  C   UNL     1      -0.873  11.156  22.719  0.00  0.00    +0.000 A 
ATOM     26  C   UNL     1      -0.622   9.917  23.310  0.00  0.00    +0.000 A 
ATOM     27  C   UNL     1      -0.223   8.837  22.523  0.00  0.00    +0.000 A 
ATOM     28  C   UNL     1      -0.082   8.995  21.144  0.00  0.00    +0.000 A 
ATOM     29  C   UNL     1      -0.411  10.211  20.538  0.00  0.00    +0.000 A 
ENDBRANCH  22  24
BRANCH  22  30
ATOM     30  C   UNL     1       0.264  13.340  19.848  0.00  0.00    +0.000 A 
ATOM     31  C   UNL     1       0.633  13.270  18.490  0.00  0.00    +0.000 A 
ATOM     32  C   UNL     1       1.953  13.447  18.061  0.00  0.00    +0.000 A 
ATOM     33  C   UNL     1       2.925  13.838  18.967  0.00  0.00    +0.000 A 
ATOM     34  C   UNL     1       2.564  14.080  20.287  0.00  0.00    +0.000 A 
ATOM     35  C   UNL     1       1.255  13.829  20.721  0.00  0.00    +0.000 A 
ENDBRANCH  22  30
ENDBRANCH   2  22
BRANCH   4  36
ATOM     36  O   UNL     1      -4.759  12.290  23.599  0.00  0.00    +0.000 OA
ATOM     37  H   UNL     1      -3.858  11.964  23.788  0.00  0.00    +0.000 HD
ENDBRANCH   4  36
TORSDOF 9
ENDMDL
MODEL 6
REMARK VINA RESULT:      -6.4      0.680      1.537
REMARK  Name = 
REMARK  10 active torsions:
REMARK  status: ('A' for Active; 'I' for Inactive)
REMARK    1  A    between atoms: C_1  and  C_2
REMARK    2  A    between atoms: C_2  and  C_3
REMARK    3  A    between atoms: C_3  and  C_4
REMARK    4  A    between atoms: C_4  and  C_5
REMARK    5  A    between atoms: C_7  and  C_8
REMARK    6  A    between atoms: N_9  and  P_10
REMARK    7  A    between atoms: P_10  and  C_12
REMARK    8  A    between atoms: P_10  and  C_18
REMARK    9  A    between atoms: C_25  and  O_26
REMARK   10  A    between atoms: C_25  and  C_27
REMARK                            x       y       z     vdW  Elec       q    Type
REMARK                         _______ _______ _______ _____ _____    ______ ____
ROOT
ATOM      1  C   UNL     1      -0.544  15.616  20.804  0.00  0.00    +0.000 C 
ATOM      2  N   UNL     1       0.051  14.045  20.805  0.00  0.00    +0.000 NA
ATOM      3  C   UNL     1       1.410  14.102  20.038  0.00  0.00    +0.000 C 
ATOM      4  C   UNL     1       2.507  15.085  20.521  0.00  0.00    +0.000 C 
ATOM      5  C   UNL     1       1.854  16.421  20.835  0.00  0.00    +0.000 C 
ATOM      6  C   UNL     1       0.520  16.543  20.127  0.00  0.00    +0.000 C 
ATOM      7  C   UNL     1       0.211  16.787  18.637  0.00  0.00    +0.000 C 
ATOM      8  C   UNL     1       0.454  17.951  19.501  0.00  0.00    +0.000 C 
ENDROOT
BRANCH   4   9
ATOM      9  C   UNL     1       3.646  15.455  19.549  0.00  0.00    +0.000 A 
ATOM     10  C   UNL     1       4.565  16.481  19.830  0.00  0.00    +0.000 A 
ATOM     11  C   UNL     1       5.833  16.498  19.236  0.00  0.00    +0.000 A 
ATOM     12  C   UNL     1       6.185  15.531  18.304  0.00  0.00    +0.000 A 
ATOM     13  C   UNL     1       5.246  14.572  17.925  0.00  0.00    +0.000 A 
ATOM     14  C   UNL     1       3.995  14.541  18.531  0.00  0.00    +0.000 A 
ENDBRANCH   4   9
BRANCH   1  17
ATOM     15  C   UNL     1      -2.042  15.888  23.160  0.00  0.00    +0.000 C 
ATOM     16  C   UNL     1      -0.617  15.852  23.568  0.00  0.00    +0.000 C 
ATOM     17  C   UNL     1      -0.877  16.347  22.157  0.00  0.00    +0.000 C 
BRANCH  15  18
ATOM     18  C   UNL     1      -2.879  14.630  23.061  0.00  0.00    +0.000 C 
BRANCH  18  19
ATOM     19  C   UNL     1      -4.002  14.449  22.021  0.00  0.00    +0.000 C 
BRANCH  19  21
ATOM     20  C   UNL     1      -5.680  12.583  21.298  0.00  0.00    +0.000 C 
ATOM     21  C   UNL     1      -4.389  12.943  22.012  0.00  0.00    +0.000 C 
ENDBRANCH  19  21
ENDBRANCH  18  19
ENDBRANCH  15  18
ENDBRANCH   1  17
BRANCH   2  22
ATOM     22  P   UNL     1      -0.852  12.895  19.791  0.00  0.00    +0.000 P 
ATOM     23  O   UNL     1       0.340  12.867  18.797  0.00  0.00    +0.000 OA
BRANCH  22  24
ATOM     24  C   UNL     1      -0.449  11.482  21.147  0.00  0.00    +0.000 A 
ATOM     25  C   UNL     1      -1.112  11.395  22.383  0.00  0.00    +0.000 A 
ATOM     26  C   UNL     1      -0.926  10.281  23.205  0.00  0.00    +0.000 A 
ATOM     27  C   UNL     1       0.008   9.307  22.858  0.00  0.00    +0.000 A 
ATOM     28  C   UNL     1       0.751   9.442  21.685  0.00  0.00    +0.000 A 
ATOM     29  C   UNL     1       0.511  10.512  20.818  0.00  0.00    +0.000 A 
ENDBRANCH  22  24
BRANCH  22  30
ATOM     30  C   UNL     1      -1.782  11.711  18.750  0.00  0.00    +0.000 A 
ATOM     31  C   UNL     1      -1.110  10.699  18.037  0.00  0.00    +0.000 A 
ATOM     32  C   UNL     1      -1.769   9.850  17.141  0.00  0.00    +0.000 A 
ATOM     33  C   UNL     1      -3.149   9.897  17.034  0.00  0.00    +0.000 A 
ATOM     34  C   UNL     1      -3.862  10.770  17.847  0.00  0.00    +0.000 A 
ATOM     35  C   UNL     1      -3.188  11.668  18.687  0.00  0.00    +0.000 A 
ENDBRANCH  22  30
ENDBRANCH   2  22
BRANCH   4  36
ATOM     36  O   UNL     1       3.061  14.551  21.733  0.00  0.00    +0.000 OA
ATOM     37  H   UNL     1       3.724  13.889  21.455  0.00  0.00    +0.000 HD
ENDBRANCH   4  36
TORSDOF 9
ENDMDL
MODEL 7
REMARK VINA RESULT:      -6.4      2.325      5.974
REMARK  Name = 
REMARK  10 active torsions:
REMARK  status: ('A' for Active; 'I' for Inactive)
REMARK    1  A    between atoms: C_1  and  C_2
REMARK    2  A    between atoms: C_2  and  C_3
REMARK    3  A    between atoms: C_3  and  C_4
REMARK    4  A    between atoms: C_4  and  C_5
REMARK    5  A    between atoms: C_7  and  C_8
REMARK    6  A    between atoms: N_9  and  P_10
REMARK    7  A    between atoms: P_10  and  C_12
REMARK    8  A    between atoms: P_10  and  C_18
REMARK    9  A    between atoms: C_25  and  O_26
REMARK   10  A    between atoms: C_25  and  C_27
REMARK                            x       y       z     vdW  Elec       q    Type
REMARK                         _______ _______ _______ _____ _____    ______ ____
ROOT
ATOM      1  C   UNL     1      -0.275  13.781  21.148  0.00  0.00    +0.000 C 
ATOM      2  N   UNL     1      -1.028  12.634  22.117  0.00  0.00    +0.000 NA
ATOM      3  C   UNL     1      -0.804  11.261  21.409  0.00  0.00    +0.000 C 
ATOM      4  C   UNL     1       0.643  10.810  21.081  0.00  0.00    +0.000 C 
ATOM      5  C   UNL     1       1.400  11.996  20.506  0.00  0.00    +0.000 C 
ATOM      6  C   UNL     1       0.437  13.036  19.969  0.00  0.00    +0.000 C 
ATOM      7  C   UNL     1      -0.425  13.018  18.692  0.00  0.00    +0.000 C 
ATOM      8  C   UNL     1       0.963  13.490  18.593  0.00  0.00    +0.000 C 
ENDROOT
BRANCH   4   9
ATOM      9  C   UNL     1       0.849   9.702  20.028  0.00  0.00    +0.000 A 
ATOM     10  C   UNL     1       0.835   9.969  18.648  0.00  0.00    +0.000 A 
ATOM     11  C   UNL     1       1.484   9.122  17.742  0.00  0.00    +0.000 A 
ATOM     12  C   UNL     1       2.102   7.960  18.184  0.00  0.00    +0.000 A 
ATOM     13  C   UNL     1       2.027   7.617  19.534  0.00  0.00    +0.000 A 
ATOM     14  C   UNL     1       1.403   8.469  20.438  0.00  0.00    +0.000 A 
ENDBRANCH   4   9
BRANCH   1  17
ATOM     15  C   UNL     1       1.164  16.188  21.188  0.00  0.00    +0.000 C 
ATOM     16  C   UNL     1       0.664  15.973  22.566  0.00  0.00    +0.000 C 
ATOM     17  C   UNL     1       0.845  14.715  21.736  0.00  0.00    +0.000 C 
BRANCH  15  18
ATOM     18  C   UNL     1       0.368  16.962  20.157  0.00  0.00    +0.000 C 
BRANCH  18  19
ATOM     19  C   UNL     1       0.918  17.314  18.761  0.00  0.00    +0.000 C 
BRANCH  19  21
ATOM     20  C   UNL     1       3.026  16.640  17.375  0.00  0.00    +0.000 C 
ATOM     21  C   UNL     1       2.422  16.917  18.740  0.00  0.00    +0.000 C 
ENDBRANCH  19  21
ENDBRANCH  18  19
ENDBRANCH  15  18
ENDBRANCH   1  17
BRANCH   2  22
ATOM     22  P   UNL     1      -2.806  12.710  22.134  0.00  0.00    +0.000 P 
ATOM     23  O   UNL     1      -2.824  11.578  23.196  0.00  0.00    +0.000 OA
BRANCH  22  24
ATOM     24  C   UNL     1      -2.660  14.413  23.171  0.00  0.00    +0.000 A 
ATOM     25  C   UNL     1      -2.153  14.471  24.482  0.00  0.00    +0.000 A 
ATOM     26  C   UNL     1      -1.897  15.704  25.083  0.00  0.00    +0.000 A 
ATOM     27  C   UNL     1      -2.253  16.885  24.433  0.00  0.00    +0.000 A 
ATOM     28  C   UNL     1      -2.858  16.832  23.177  0.00  0.00    +0.000 A 
ATOM     29  C   UNL     1      -3.042  15.604  22.535  0.00  0.00    +0.000 A 
ENDBRANCH  22  24
BRANCH  22  30
ATOM     30  C   UNL     1      -4.634  12.790  22.151  0.00  0.00    +0.000 A 
ATOM     31  C   UNL     1      -5.337  12.930  23.364  0.00  0.00    +0.000 A 
ATOM     32  C   UNL     1      -6.734  12.877  23.432  0.00  0.00    +0.000 A 
ATOM     33  C   UNL     1      -7.479  12.822  22.265  0.00  0.00    +0.000 A 
ATOM     34  C   UNL     1      -6.824  12.851  21.040  0.00  0.00    +0.000 A 
ATOM     35  C   UNL     1      -5.423  12.829  20.985  0.00  0.00    +0.000 A 
ENDBRANCH  22  30
ENDBRANCH   2  22
BRANCH   4  36
ATOM     36  O   UNL     1       1.265  10.425  22.316  0.00  0.00    +0.000 OA
ATOM     37  H   UNL     1       1.251  11.222  22.881  0.00  0.00    +0.000 HD
ENDBRANCH   4  36
TORSDOF 9
ENDMDL
MODEL 8
REMARK VINA RESULT:      -6.4      2.231      6.614
REMARK  Name = 
REMARK  10 active torsions:
REMARK  status: ('A' for Active; 'I' for Inactive)
REMARK    1  A    between atoms: C_1  and  C_2
REMARK    2  A    between atoms: C_2  and  C_3
REMARK    3  A    between atoms: C_3  and  C_4
REMARK    4  A    between atoms: C_4  and  C_5
REMARK    5  A    between atoms: C_7  and  C_8
REMARK    6  A    between atoms: N_9  and  P_10
REMARK    7  A    between atoms: P_10  and  C_12
REMARK    8  A    between atoms: P_10  and  C_18
REMARK    9  A    between atoms: C_25  and  O_26
REMARK   10  A    between atoms: C_25  and  C_27
REMARK                            x       y       z     vdW  Elec       q    Type
REMARK                         _______ _______ _______ _____ _____    ______ ____
ROOT
ATOM      1  C   UNL     1      -4.403  13.108  20.004  0.00  0.00    +0.000 C 
ATOM      2  N   UNL     1      -3.172  12.589  21.022  0.00  0.00    +0.000 NA
ATOM      3  C   UNL     1      -3.240  13.511  22.280  0.00  0.00    +0.000 C 
ATOM      4  C   UNL     1      -4.571  13.613  23.068  0.00  0.00    +0.000 C 
ATOM      5  C   UNL     1      -5.713  13.746  22.073  0.00  0.00    +0.000 C 
ATOM      6  C   UNL     1      -5.200  14.240  20.735  0.00  0.00    +0.000 C 
ATOM      7  C   UNL     1      -4.723  15.645  20.317  0.00  0.00    +0.000 C 
ATOM      8  C   UNL     1      -6.161  15.344  20.248  0.00  0.00    +0.000 C 
ENDROOT
BRANCH   4   9
ATOM      9  C   UNL     1      -4.775  14.810  24.019  0.00  0.00    +0.000 A 
ATOM     10  C   UNL     1      -3.713  15.382  24.740  0.00  0.00    +0.000 A 
ATOM     11  C   UNL     1      -3.776  16.706  25.192  0.00  0.00    +0.000 A 
ATOM     12  C   UNL     1      -4.922  17.464  24.990  0.00  0.00    +0.000 A 
ATOM     13  C   UNL     1      -6.030  16.877  24.379  0.00  0.00    +0.000 A 
ATOM     14  C   UNL     1      -5.960  15.570  23.910  0.00  0.00    +0.000 A 
ENDBRANCH   4   9
BRANCH   1  17
ATOM     15  C   UNL     1      -5.652  11.566  18.021  0.00  0.00    +0.000 C 
ATOM     16  C   UNL     1      -5.359  10.648  19.147  0.00  0.00    +0.000 C 
ATOM     17  C   UNL     1      -5.520  12.109  19.524  0.00  0.00    +0.000 C 
BRANCH  15  18
ATOM     18  C   UNL     1      -4.669  11.786  16.889  0.00  0.00    +0.000 C 
BRANCH  18  19
ATOM     19  C   UNL     1      -3.232  11.231  16.904  0.00  0.00    +0.000 C 
BRANCH  19  21
ATOM     20  C   UNL     1      -2.945  10.049  14.593  0.00  0.00    +0.000 C 
ATOM     21  C   UNL     1      -3.234   9.913  16.077  0.00  0.00    +0.000 C 
ENDBRANCH  19  21
ENDBRANCH  18  19
ENDBRANCH  15  18
ENDBRANCH   1  17
BRANCH   2  22
ATOM     22  P   UNL     1      -1.523  12.933  20.448  0.00  0.00    +0.000 P 
ATOM     23  O   UNL     1      -1.361  13.963  21.599  0.00  0.00    +0.000 OA
BRANCH  22  24
ATOM     24  C   UNL     1      -0.957  11.178  21.219  0.00  0.00    +0.000 A 
ATOM     25  C   UNL     1      -0.492  10.110  20.432  0.00  0.00    +0.000 A 
ATOM     26  C   UNL     1       0.067   8.982  21.036  0.00  0.00    +0.000 A 
ATOM     27  C   UNL     1       0.061   8.859  22.425  0.00  0.00    +0.000 A 
ATOM     28  C   UNL     1      -0.498   9.867  23.210  0.00  0.00    +0.000 A 
ATOM     29  C   UNL     1      -0.985  11.034  22.615  0.00  0.00    +0.000 A 
ENDBRANCH  22  24
BRANCH  22  30
ATOM     30  C   UNL     1       0.173  13.287  19.859  0.00  0.00    +0.000 A 
ATOM     31  C   UNL     1       1.229  13.473  20.772  0.00  0.00    +0.000 A 
ATOM     32  C   UNL     1       2.511  13.860  20.368  0.00  0.00    +0.000 A 
ATOM     33  C   UNL     1       2.815  13.936  19.019  0.00  0.00    +0.000 A 
ATOM     34  C   UNL     1       1.843  13.595  18.085  0.00  0.00    +0.000 A 
ATOM     35  C   UNL     1       0.541  13.281  18.499  0.00  0.00    +0.000 A 
ENDBRANCH  22  30
ENDBRANCH   2  22
BRANCH   4  36
ATOM     36  O   UNL     1      -4.738  12.386  23.793  0.00  0.00    +0.000 OA
ATOM     37  H   UNL     1      -4.720  12.630  24.740  0.00  0.00    +0.000 HD
ENDBRANCH   4  36
TORSDOF 9
ENDMDL
MODEL 9
REMARK VINA RESULT:      -6.3      2.316      5.928
REMARK  Name = 
REMARK  10 active torsions:
REMARK  status: ('A' for Active; 'I' for Inactive)
REMARK    1  A    between atoms: C_1  and  C_2
REMARK    2  A    between atoms: C_2  and  C_3
REMARK    3  A    between atoms: C_3  and  C_4
REMARK    4  A    between atoms: C_4  and  C_5
REMARK    5  A    between atoms: C_7  and  C_8
REMARK    6  A    between atoms: N_9  and  P_10
REMARK    7  A    between atoms: P_10  and  C_12
REMARK    8  A    between atoms: P_10  and  C_18
REMARK    9  A    between atoms: C_25  and  O_26
REMARK   10  A    between atoms: C_25  and  C_27
REMARK                            x       y       z     vdW  Elec       q    Type
REMARK                         _______ _______ _______ _____ _____    ______ ____
ROOT
ATOM      1  C   UNL     1      -0.326  13.795  21.043  0.00  0.00    +0.000 C 
ATOM      2  N   UNL     1      -1.143  12.660  21.972  0.00  0.00    +0.000 NA
ATOM      3  C   UNL     1      -0.900  11.283  21.277  0.00  0.00    +0.000 C 
ATOM      4  C   UNL     1       0.555  10.813  21.026  0.00  0.00    +0.000 C 
ATOM      5  C   UNL     1       1.357  11.988  20.491  0.00  0.00    +0.000 C 
ATOM      6  C   UNL     1       0.437  13.039  19.904  0.00  0.00    +0.000 C 
ATOM      7  C   UNL     1      -0.357  13.030  18.583  0.00  0.00    +0.000 C 
ATOM      8  C   UNL     1       1.040  13.485  18.556  0.00  0.00    +0.000 C 
ENDROOT
BRANCH   4   9
ATOM      9  C   UNL     1       0.802   9.700  19.986  0.00  0.00    +0.000 A 
ATOM     10  C   UNL     1       0.756   9.946  18.603  0.00  0.00    +0.000 A 
ATOM     11  C   UNL     1       1.434   9.119  17.699  0.00  0.00    +0.000 A 
ATOM     12  C   UNL     1       2.115   7.996  18.149  0.00  0.00    +0.000 A 
ATOM     13  C   UNL     1       2.076   7.670  19.505  0.00  0.00    +0.000 A 
ATOM     14  C   UNL     1       1.423   8.503  20.405  0.00  0.00    +0.000 A 
ENDBRANCH   4   9
BRANCH   1  17
ATOM     15  C   UNL     1       1.056  16.229  21.236  0.00  0.00    +0.000 C 
ATOM     16  C   UNL     1       0.566  15.913  22.598  0.00  0.00    +0.000 C 
ATOM     17  C   UNL     1       0.774  14.716  21.688  0.00  0.00    +0.000 C 
BRANCH  15  18
ATOM     18  C   UNL     1       0.238  17.049  20.260  0.00  0.00    +0.000 C 
BRANCH  18  19
ATOM     19  C   UNL     1       0.731  17.408  18.845  0.00  0.00    +0.000 C 
BRANCH  19  21
ATOM     20  C   UNL     1       2.785  16.729  17.381  0.00  0.00    +0.000 C 
ATOM     21  C   UNL     1       2.237  17.028  18.766  0.00  0.00    +0.000 C 
ENDBRANCH  19  21
ENDBRANCH  18  19
ENDBRANCH  15  18
ENDBRANCH   1  17
BRANCH   2  22
ATOM     22  P   UNL     1      -2.919  12.759  21.896  0.00  0.00    +0.000 P 
ATOM     23  O   UNL     1      -3.005  11.706  23.034  0.00  0.00    +0.000 OA
BRANCH  22  24
ATOM     24  C   UNL     1      -2.796  14.529  22.816  0.00  0.00    +0.000 A 
ATOM     25  C   UNL     1      -3.101  15.746  22.180  0.00  0.00    +0.000 A 
ATOM     26  C   UNL     1      -3.182  16.926  22.922  0.00  0.00    +0.000 A 
ATOM     27  C   UNL     1      -2.846  16.925  24.274  0.00  0.00    +0.000 A 
ATOM     28  C   UNL     1      -2.435  15.741  24.888  0.00  0.00    +0.000 A 
ATOM     29  C   UNL     1      -2.431  14.541  24.171  0.00  0.00    +0.000 A 
ENDBRANCH  22  24
BRANCH  22  30
ATOM     30  C   UNL     1      -4.744  12.861  21.818  0.00  0.00    +0.000 A 
ATOM     31  C   UNL     1      -5.422  12.712  20.592  0.00  0.00    +0.000 A 
ATOM     32  C   UNL     1      -6.803  12.899  20.470  0.00  0.00    +0.000 A 
ATOM     33  C   UNL     1      -7.573  13.106  21.603  0.00  0.00    +0.000 A 
ATOM     34  C   UNL     1      -6.960  13.093  22.850  0.00  0.00    +0.000 A 
ATOM     35  C   UNL     1      -5.567  12.978  22.955  0.00  0.00    +0.000 A 
ENDBRANCH  22  30
ENDBRANCH   2  22
BRANCH   4  36
ATOM     36  O   UNL     1       1.107  10.422  22.292  0.00  0.00    +0.000 OA
ATOM     37  H   UNL     1       1.773   9.734  22.093  0.00  0.00    +0.000 HD
ENDBRANCH   4  36
TORSDOF 9
ENDMDL
