MODEL 1
REMARK VINA RESULT:      -8.1      0.000      0.000
REMARK  Name = 
REMARK  6 active torsions:
REMARK  status: ('A' for Active; 'I' for Inactive)
REMARK    1  A    between atoms: C_1  and  C_2
REMARK    2  A    between atoms: C_2  and  N_3
REMARK    3  A    between atoms: C_4  and  C_5
REMARK    4  A    between atoms: C_5  and  N_6
REMARK    5  A    between atoms: C_7  and  C_9
REMARK    6  A    between atoms: C_19  and  C_20
REMARK                            x       y       z     vdW  Elec       q    Type
REMARK                         _______ _______ _______ _____ _____    ______ ____
ROOT
ATOM      1  N   UNL     1       3.798   6.356  18.166  0.00  0.00    +0.000 N 
ATOM      2  C   UNL     1       5.137   6.007  18.173  0.00  0.00    +0.000 A 
ATOM      3  C   UNL     1       5.265   4.948  19.057  0.00  0.00    +0.000 A 
ATOM      4  C   UNL     1       3.984   4.624  19.575  0.00  0.00    +0.000 A 
ATOM      5  C   UNL     1       3.506   3.630  20.456  0.00  0.00    +0.000 A 
ATOM      6  C   UNL     1       2.138   3.564  20.770  0.00  0.00    +0.000 A 
ATOM      7  C   UNL     1       1.607   2.503  21.690  0.00  0.00    +0.000 C 
ATOM      8  C   UNL     1       1.261   4.497  20.215  0.00  0.00    +0.000 A 
ATOM      9  C   UNL     1       1.712   5.490  19.338  0.00  0.00    +0.000 A 
ATOM     10  C   UNL     1       3.081   5.529  19.019  0.00  0.00    +0.000 A 
ENDROOT
BRANCH   1  12
ATOM     11  C   UNL     1       2.541   8.485  18.201  0.00  0.00    +0.000 C 
ATOM     12  C   UNL     1       3.176   7.395  17.357  0.00  0.00    +0.000 C 
ENDBRANCH   1  12
BRANCH   2  13
ATOM     13  C   UNL     1       6.196   6.622  17.317  0.00  0.00    +0.000 C 
BRANCH  13  14
ATOM     14  N   UNL     1       6.102   6.109  15.974  0.00  0.00    +0.000 N 
ATOM     15  C   UNL     1       6.930   5.088  15.552  0.00  0.00    +0.000 C 
ATOM     16  O   UNL     1       7.790   4.585  16.272  0.00  0.00    +0.000 OA
ATOM     17  H   UNL     1       5.373   6.460  15.366  0.00  0.00    +0.000 HD
BRANCH  15  18
ATOM     18  C   UNL     1       6.781   4.613  14.150  0.00  0.00    +0.000 A 
ATOM     19  C   UNL     1       5.713   3.756  13.834  0.00  0.00    +0.000 A 
ATOM     20  C   UNL     1       5.554   3.270  12.533  0.00  0.00    +0.000 A 
ATOM     21  C   UNL     1       6.450   3.643  11.532  0.00  0.00    +0.000 A 
ATOM     22  C   UNL     1       7.502   4.509  11.833  0.00  0.00    +0.000 A 
ATOM     23  C   UNL     1       7.662   4.987  13.134  0.00  0.00    +0.000 A 
ATOM     24  F   UNL     1       8.683   5.822  13.379  0.00  0.00    +0.000 F 
ENDBRANCH  15  18
ENDBRANCH  13  14
ENDBRANCH   2  13
TORSDOF 4
ENDMDL
MODEL 2
REMARK VINA RESULT:      -8.0      2.706      7.318
REMARK  Name = 
REMARK  6 active torsions:
REMARK  status: ('A' for Active; 'I' for Inactive)
REMARK    1  A    between atoms: C_1  and  C_2
REMARK    2  A    between atoms: C_2  and  N_3
REMARK    3  A    between atoms: C_4  and  C_5
REMARK    4  A    between atoms: C_5  and  N_6
REMARK    5  A    between atoms: C_7  and  C_9
REMARK    6  A    between atoms: C_19  and  C_20
REMARK                            x       y       z     vdW  Elec       q    Type
REMARK                         _______ _______ _______ _____ _____    ______ ____
ROOT
ATOM      1  N   UNL     1       6.367   5.271  17.351  0.00  0.00    +0.000 N 
ATOM      2  C   UNL     1       5.165   4.832  17.879  0.00  0.00    +0.000 A 
ATOM      3  C   UNL     1       4.493   4.190  16.853  0.00  0.00    +0.000 A 
ATOM      4  C   UNL     1       5.305   4.208  15.689  0.00  0.00    +0.000 A 
ATOM      5  C   UNL     1       5.164   3.680  14.387  0.00  0.00    +0.000 A 
ATOM      6  C   UNL     1       6.184   3.863  13.437  0.00  0.00    +0.000 A 
ATOM      7  C   UNL     1       6.062   3.293  12.054  0.00  0.00    +0.000 C 
ATOM      8  C   UNL     1       7.326   4.584  13.788  0.00  0.00    +0.000 A 
ATOM      9  C   UNL     1       7.488   5.116  15.072  0.00  0.00    +0.000 A 
ATOM     10  C   UNL     1       6.467   4.905  16.016  0.00  0.00    +0.000 A 
ENDROOT
BRANCH   1  12
ATOM     11  C   UNL     1       7.523   7.432  17.679  0.00  0.00    +0.000 C 
ATOM     12  C   UNL     1       7.427   5.967  18.067  0.00  0.00    +0.000 C 
ENDBRANCH   1  12
BRANCH   2  13
ATOM     13  C   UNL     1       4.746   4.971  19.306  0.00  0.00    +0.000 C 
BRANCH  13  14
ATOM     14  N   UNL     1       4.048   6.218  19.495  0.00  0.00    +0.000 N 
ATOM     15  C   UNL     1       2.670   6.271  19.423  0.00  0.00    +0.000 C 
ATOM     16  O   UNL     1       1.977   5.286  19.178  0.00  0.00    +0.000 OA
ATOM     17  H   UNL     1       4.578   7.041  19.750  0.00  0.00    +0.000 HD
BRANCH  15  18
ATOM     18  C   UNL     1       2.019   7.593  19.622  0.00  0.00    +0.000 A 
ATOM     19  C   UNL     1       1.512   7.915  20.892  0.00  0.00    +0.000 A 
ATOM     20  C   UNL     1       0.872   9.139  21.112  0.00  0.00    +0.000 A 
ATOM     21  C   UNL     1       0.743  10.058  20.071  0.00  0.00    +0.000 A 
ATOM     22  C   UNL     1       1.260   9.753  18.812  0.00  0.00    +0.000 A 
ATOM     23  C   UNL     1       1.892   8.529  18.595  0.00  0.00    +0.000 A 
ATOM     24  F   UNL     1       2.381   8.280  17.370  0.00  0.00    +0.000 F 
ENDBRANCH  15  18
ENDBRANCH  13  14
ENDBRANCH   2  13
TORSDOF 4
ENDMDL
MODEL 3
REMARK VINA RESULT:      -7.7      5.569      8.258
REMARK  Name = 
REMARK  6 active torsions:
REMARK  status: ('A' for Active; 'I' for Inactive)
REMARK    1  A    between atoms: C_1  and  C_2
REMARK    2  A    between atoms: C_2  and  N_3
REMARK    3  A    between atoms: C_4  and  C_5
REMARK    4  A    between atoms: C_5  and  N_6
REMARK    5  A    between atoms: C_7  and  C_9
REMARK    6  A    between atoms: C_19  and  C_20
REMARK                            x       y       z     vdW  Elec       q    Type
REMARK                         _______ _______ _______ _____ _____    ______ ____
ROOT
ATOM      1  N   UNL     1       1.914   7.632  19.931  0.00  0.00    +0.000 N 
ATOM      2  C   UNL     1       2.081   8.202  18.682  0.00  0.00    +0.000 A 
ATOM      3  C   UNL     1       2.431   7.175  17.822  0.00  0.00    +0.000 A 
ATOM      4  C   UNL     1       2.448   5.954  18.545  0.00  0.00    +0.000 A 
ATOM      5  C   UNL     1       2.683   4.609  18.191  0.00  0.00    +0.000 A 
ATOM      6  C   UNL     1       2.612   3.599  19.166  0.00  0.00    +0.000 A 
ATOM      7  C   UNL     1       2.840   2.159  18.806  0.00  0.00    +0.000 C 
ATOM      8  C   UNL     1       2.322   3.942  20.488  0.00  0.00    +0.000 A 
ATOM      9  C   UNL     1       2.084   5.269  20.862  0.00  0.00    +0.000 A 
ATOM     10  C   UNL     1       2.139   6.264  19.869  0.00  0.00    +0.000 A 
ENDROOT
BRANCH   1  12
ATOM     11  C   UNL     1       0.002   8.295  21.352  0.00  0.00    +0.000 C 
ATOM     12  C   UNL     1       1.506   8.316  21.151  0.00  0.00    +0.000 C 
ENDBRANCH   1  12
BRANCH   2  13
ATOM     13  C   UNL     1       1.842   9.639  18.348  0.00  0.00    +0.000 C 
BRANCH  13  14
ATOM     14  N   UNL     1       0.503   9.810  17.844  0.00  0.00    +0.000 N 
ATOM     15  C   UNL     1      -0.394  10.635  18.495  0.00  0.00    +0.000 C 
ATOM     16  O   UNL     1      -0.116  11.238  19.529  0.00  0.00    +0.000 OA
ATOM     17  H   UNL     1       0.250   9.372  16.968  0.00  0.00    +0.000 HD
BRANCH  15  18
ATOM     18  C   UNL     1      -1.761  10.758  17.920  0.00  0.00    +0.000 A 
ATOM     19  C   UNL     1      -2.048  10.107  16.709  0.00  0.00    +0.000 A 
ATOM     20  C   UNL     1      -3.315  10.219  16.126  0.00  0.00    +0.000 A 
ATOM     21  C   UNL     1      -4.309  10.970  16.751  0.00  0.00    +0.000 A 
ATOM     22  C   UNL     1      -4.036  11.604  17.964  0.00  0.00    +0.000 A 
ATOM     23  C   UNL     1      -2.770  11.496  18.540  0.00  0.00    +0.000 A 
ATOM     24  F   UNL     1      -2.554  12.116  19.710  0.00  0.00    +0.000 F 
ENDBRANCH  15  18
ENDBRANCH  13  14
ENDBRANCH   2  13
TORSDOF 4
ENDMDL
MODEL 4
REMARK VINA RESULT:      -7.7      3.115      7.415
REMARK  Name = 
REMARK  6 active torsions:
REMARK  status: ('A' for Active; 'I' for Inactive)
REMARK    1  A    between atoms: C_1  and  C_2
REMARK    2  A    between atoms: C_2  and  N_3
REMARK    3  A    between atoms: C_4  and  C_5
REMARK    4  A    between atoms: C_5  and  N_6
REMARK    5  A    between atoms: C_7  and  C_9
REMARK    6  A    between atoms: C_19  and  C_20
REMARK                            x       y       z     vdW  Elec       q    Type
REMARK                         _______ _______ _______ _____ _____    ______ ____
ROOT
ATOM      1  N   UNL     1       6.395   5.301  17.135  0.00  0.00    +0.000 N 
ATOM      2  C   UNL     1       5.196   4.834  17.643  0.00  0.00    +0.000 A 
ATOM      3  C   UNL     1       4.560   4.168  16.609  0.00  0.00    +0.000 A 
ATOM      4  C   UNL     1       5.393   4.199  15.460  0.00  0.00    +0.000 A 
ATOM      5  C   UNL     1       5.291   3.658  14.161  0.00  0.00    +0.000 A 
ATOM      6  C   UNL     1       6.323   3.862  13.228  0.00  0.00    +0.000 A 
ATOM      7  C   UNL     1       6.241   3.279  11.847  0.00  0.00    +0.000 C 
ATOM      8  C   UNL     1       7.439   4.616  13.595  0.00  0.00    +0.000 A 
ATOM      9  C   UNL     1       7.562   5.161  14.877  0.00  0.00    +0.000 A 
ATOM     10  C   UNL     1       6.530   4.929  15.804  0.00  0.00    +0.000 A 
ENDROOT
BRANCH   1  12
ATOM     11  C   UNL     1       7.416   7.515  17.546  0.00  0.00    +0.000 C 
ATOM     12  C   UNL     1       7.422   6.031  17.864  0.00  0.00    +0.000 C 
ENDBRANCH   1  12
BRANCH   2  13
ATOM     13  C   UNL     1       4.746   4.972  19.061  0.00  0.00    +0.000 C 
BRANCH  13  14
ATOM     14  N   UNL     1       4.063   6.227  19.241  0.00  0.00    +0.000 N 
ATOM     15  C   UNL     1       2.730   6.357  18.903  0.00  0.00    +0.000 C 
ATOM     16  O   UNL     1       2.072   5.439  18.420  0.00  0.00    +0.000 OA
ATOM     17  H   UNL     1       4.554   6.993  19.683  0.00  0.00    +0.000 HD
BRANCH  15  18
ATOM     18  C   UNL     1       2.092   7.685  19.110  0.00  0.00    +0.000 A 
ATOM     19  C   UNL     1       2.064   8.598  18.043  0.00  0.00    +0.000 A 
ATOM     20  C   UNL     1       1.495   9.865  18.206  0.00  0.00    +0.000 A 
ATOM     21  C   UNL     1       0.936  10.228  19.430  0.00  0.00    +0.000 A 
ATOM     22  C   UNL     1       0.942   9.320  20.490  0.00  0.00    +0.000 A 
ATOM     23  C   UNL     1       1.517   8.060  20.325  0.00  0.00    +0.000 A 
ATOM     24  F   UNL     1       1.496   7.216  21.368  0.00  0.00    +0.000 F 
ENDBRANCH  15  18
ENDBRANCH  13  14
ENDBRANCH   2  13
TORSDOF 4
ENDMDL
MODEL 5
REMARK VINA RESULT:      -7.6      1.443      2.644
REMARK  Name = 
REMARK  6 active torsions:
REMARK  status: ('A' for Active; 'I' for Inactive)
REMARK    1  A    between atoms: C_1  and  C_2
REMARK    2  A    between atoms: C_2  and  N_3
REMARK    3  A    between atoms: C_4  and  C_5
REMARK    4  A    between atoms: C_5  and  N_6
REMARK    5  A    between atoms: C_7  and  C_9
REMARK    6  A    between atoms: C_19  and  C_20
REMARK                            x       y       z     vdW  Elec       q    Type
REMARK                         _______ _______ _______ _____ _____    ______ ____
ROOT
ATOM      1  N   UNL     1       4.356   4.007  19.200  0.00  0.00    +0.000 N 
ATOM      2  C   UNL     1       5.272   4.805  18.539  0.00  0.00    +0.000 A 
ATOM      3  C   UNL     1       4.783   6.100  18.596  0.00  0.00    +0.000 A 
ATOM      4  C   UNL     1       3.567   6.101  19.328  0.00  0.00    +0.000 A 
ATOM      5  C   UNL     1       2.670   7.111  19.736  0.00  0.00    +0.000 A 
ATOM      6  C   UNL     1       1.527   6.779  20.484  0.00  0.00    +0.000 A 
ATOM      7  C   UNL     1       0.571   7.842  20.944  0.00  0.00    +0.000 C 
ATOM      8  C   UNL     1       1.282   5.444  20.806  0.00  0.00    +0.000 A 
ATOM      9  C   UNL     1       2.158   4.426  20.413  0.00  0.00    +0.000 A 
ATOM     10  C   UNL     1       3.307   4.778  19.683  0.00  0.00    +0.000 A 
ENDROOT
BRANCH   1  12
ATOM     11  C   UNL     1       3.666   1.764  18.424  0.00  0.00    +0.000 C 
ATOM     12  C   UNL     1       4.461   2.573  19.432  0.00  0.00    +0.000 C 
ENDBRANCH   1  12
BRANCH   2  13
ATOM     13  C   UNL     1       6.568   4.337  17.961  0.00  0.00    +0.000 C 
BRANCH  13  14
ATOM     14  N   UNL     1       6.398   4.024  16.564  0.00  0.00    +0.000 N 
ATOM     15  C   UNL     1       6.836   4.898  15.589  0.00  0.00    +0.000 C 
ATOM     16  O   UNL     1       7.363   5.977  15.849  0.00  0.00    +0.000 OA
ATOM     17  H   UNL     1       6.017   3.123  16.308  0.00  0.00    +0.000 HD
BRANCH  15  18
ATOM     18  C   UNL     1       6.622   4.511  14.168  0.00  0.00    +0.000 A 
ATOM     19  C   UNL     1       5.474   3.774  13.833  0.00  0.00    +0.000 A 
ATOM     20  C   UNL     1       5.250   3.371  12.512  0.00  0.00    +0.000 A 
ATOM     21  C   UNL     1       6.161   3.710  11.513  0.00  0.00    +0.000 A 
ATOM     22  C   UNL     1       7.294   4.458  11.836  0.00  0.00    +0.000 A 
ATOM     23  C   UNL     1       7.517   4.853  13.155  0.00  0.00    +0.000 A 
ATOM     24  F   UNL     1       8.616   5.576  13.419  0.00  0.00    +0.000 F 
ENDBRANCH  15  18
ENDBRANCH  13  14
ENDBRANCH   2  13
TORSDOF 4
ENDMDL
MODEL 6
REMARK VINA RESULT:      -7.5      4.516      8.306
REMARK  Name = 
REMARK  6 active torsions:
REMARK  status: ('A' for Active; 'I' for Inactive)
REMARK    1  A    between atoms: C_1  and  C_2
REMARK    2  A    between atoms: C_2  and  N_3
REMARK    3  A    between atoms: C_4  and  C_5
REMARK    4  A    between atoms: C_5  and  N_6
REMARK    5  A    between atoms: C_7  and  C_9
REMARK    6  A    between atoms: C_19  and  C_20
REMARK                            x       y       z     vdW  Elec       q    Type
REMARK                         _______ _______ _______ _____ _____    ______ ____
ROOT
ATOM      1  N   UNL     1       2.817   5.433  19.611  0.00  0.00    +0.000 N 
ATOM      2  C   UNL     1       2.570   6.791  19.510  0.00  0.00    +0.000 A 
ATOM      3  C   UNL     1       3.214   7.226  18.364  0.00  0.00    +0.000 A 
ATOM      4  C   UNL     1       3.838   6.116  17.736  0.00  0.00    +0.000 A 
ATOM      5  C   UNL     1       4.577   5.951  16.545  0.00  0.00    +0.000 A 
ATOM      6  C   UNL     1       5.063   4.682  16.186  0.00  0.00    +0.000 A 
ATOM      7  C   UNL     1       5.835   4.482  14.914  0.00  0.00    +0.000 C 
ATOM      8  C   UNL     1       4.820   3.592  17.024  0.00  0.00    +0.000 A 
ATOM      9  C   UNL     1       4.089   3.732  18.209  0.00  0.00    +0.000 A 
ATOM     10  C   UNL     1       3.593   5.005  18.542  0.00  0.00    +0.000 A 
ENDROOT
BRANCH   1  12
ATOM     11  C   UNL     1       0.967   3.931  20.270  0.00  0.00    +0.000 C 
ATOM     12  C   UNL     1       2.311   4.532  20.637  0.00  0.00    +0.000 C 
ENDBRANCH   1  12
BRANCH   2  13
ATOM     13  C   UNL     1       1.703   7.583  20.433  0.00  0.00    +0.000 C 
BRANCH  13  14
ATOM     14  N   UNL     1       1.336   8.831  19.813  0.00  0.00    +0.000 N 
ATOM     15  C   UNL     1       0.327   9.610  20.344  0.00  0.00    +0.000 C 
ATOM     16  O   UNL     1      -0.316   9.281  21.339  0.00  0.00    +0.000 OA
ATOM     17  H   UNL     1       1.875   9.162  19.024  0.00  0.00    +0.000 HD
BRANCH  15  18
ATOM     18  C   UNL     1      -0.002  10.883  19.647  0.00  0.00    +0.000 A 
ATOM     19  C   UNL     1       0.787  12.017  19.900  0.00  0.00    +0.000 A 
ATOM     20  C   UNL     1       0.494  13.237  19.282  0.00  0.00    +0.000 A 
ATOM     21  C   UNL     1      -0.580  13.334  18.398  0.00  0.00    +0.000 A 
ATOM     22  C   UNL     1      -1.357  12.207  18.128  0.00  0.00    +0.000 A 
ATOM     23  C   UNL     1      -1.065  10.993  18.751  0.00  0.00    +0.000 A 
ATOM     24  F   UNL     1      -1.834   9.933  18.457  0.00  0.00    +0.000 F 
ENDBRANCH  15  18
ENDBRANCH  13  14
ENDBRANCH   2  13
TORSDOF 4
ENDMDL
MODEL 7
REMARK VINA RESULT:      -7.5      1.049      1.451
REMARK  Name = 
REMARK  6 active torsions:
REMARK  status: ('A' for Active; 'I' for Inactive)
REMARK    1  A    between atoms: C_1  and  C_2
REMARK    2  A    between atoms: C_2  and  N_3
REMARK    3  A    between atoms: C_4  and  C_5
REMARK    4  A    between atoms: C_5  and  N_6
REMARK    5  A    between atoms: C_7  and  C_9
REMARK    6  A    between atoms: C_19  and  C_20
REMARK                            x       y       z     vdW  Elec       q    Type
REMARK                         _______ _______ _______ _____ _____    ______ ____
ROOT
ATOM      1  N   UNL     1       3.453   6.521  18.300  0.00  0.00    +0.000 N 
ATOM      2  C   UNL     1       4.810   6.260  18.248  0.00  0.00    +0.000 A 
ATOM      3  C   UNL     1       5.040   5.188  19.094  0.00  0.00    +0.000 A 
ATOM      4  C   UNL     1       3.802   4.766  19.648  0.00  0.00    +0.000 A 
ATOM      5  C   UNL     1       3.424   3.719  20.516  0.00  0.00    +0.000 A 
ATOM      6  C   UNL     1       2.075   3.555  20.876  0.00  0.00    +0.000 A 
ATOM      7  C   UNL     1       1.649   2.436  21.782  0.00  0.00    +0.000 C 
ATOM      8  C   UNL     1       1.119   4.444  20.381  0.00  0.00    +0.000 A 
ATOM      9  C   UNL     1       1.472   5.488  19.519  0.00  0.00    +0.000 A 
ATOM     10  C   UNL     1       2.823   5.625  19.152  0.00  0.00    +0.000 A 
ENDROOT
BRANCH   1  12
ATOM     11  C   UNL     1       2.294   8.702  18.414  0.00  0.00    +0.000 C 
ATOM     12  C   UNL     1       2.735   7.539  17.545  0.00  0.00    +0.000 C 
ENDBRANCH   1  12
BRANCH   2  13
ATOM     13  C   UNL     1       5.795   6.967  17.374  0.00  0.00    +0.000 C 
BRANCH  13  14
ATOM     14  N   UNL     1       5.815   6.361  16.067  0.00  0.00    +0.000 N 
ATOM     15  C   UNL     1       6.771   5.418  15.744  0.00  0.00    +0.000 C 
ATOM     16  O   UNL     1       7.652   5.066  16.525  0.00  0.00    +0.000 OA
ATOM     17  H   UNL     1       5.077   6.584  15.412  0.00  0.00    +0.000 HD
BRANCH  15  18
ATOM     18  C   UNL     1       6.735   4.839  14.373  0.00  0.00    +0.000 A 
ATOM     19  C   UNL     1       7.737   5.201  13.458  0.00  0.00    +0.000 A 
ATOM     20  C   UNL     1       7.723   4.697  12.154  0.00  0.00    +0.000 A 
ATOM     21  C   UNL     1       6.718   3.818  11.754  0.00  0.00    +0.000 A 
ATOM     22  C   UNL     1       5.729   3.439  12.663  0.00  0.00    +0.000 A 
ATOM     23  C   UNL     1       5.743   3.949  13.961  0.00  0.00    +0.000 A 
ATOM     24  F   UNL     1       4.777   3.553  14.805  0.00  0.00    +0.000 F 
ENDBRANCH  15  18
ENDBRANCH  13  14
ENDBRANCH   2  13
TORSDOF 4
ENDMDL
MODEL 8
REMARK VINA RESULT:      -7.5      1.566      3.538
REMARK  Name = 
REMARK  6 active torsions:
REMARK  status: ('A' for Active; 'I' for Inactive)
REMARK    1  A    between atoms: C_1  and  C_2
REMARK    2  A    between atoms: C_2  and  N_3
REMARK    3  A    between atoms: C_4  and  C_5
REMARK    4  A    between atoms: C_5  and  N_6
REMARK    5  A    between atoms: C_7  and  C_9
REMARK    6  A    between atoms: C_19  and  C_20
REMARK                            x       y       z     vdW  Elec       q    Type
REMARK                         _______ _______ _______ _____ _____    ______ ____
ROOT
ATOM      1  N   UNL     1       2.687   5.438  19.543  0.00  0.00    +0.000 N 
ATOM      2  C   UNL     1       3.274   5.167  18.320  0.00  0.00    +0.000 A 
ATOM      3  C   UNL     1       3.139   6.313  17.554  0.00  0.00    +0.000 A 
ATOM      4  C   UNL     1       2.489   7.310  18.328  0.00  0.00    +0.000 A 
ATOM      5  C   UNL     1       2.135   8.656  18.094  0.00  0.00    +0.000 A 
ATOM      6  C   UNL     1       1.491   9.401  19.097  0.00  0.00    +0.000 A 
ATOM      7  C   UNL     1       1.124  10.840  18.875  0.00  0.00    +0.000 C 
ATOM      8  C   UNL     1       1.194   8.794  20.318  0.00  0.00    +0.000 A 
ATOM      9  C   UNL     1       1.536   7.461  20.572  0.00  0.00    +0.000 A 
ATOM     10  C   UNL     1       2.198   6.737  19.565  0.00  0.00    +0.000 A 
ENDROOT
BRANCH   1  12
ATOM     11  C   UNL     1       1.314   3.771  20.747  0.00  0.00    +0.000 C 
ATOM     12  C   UNL     1       2.619   4.544  20.690  0.00  0.00    +0.000 C 
ENDBRANCH   1  12
BRANCH   2  13
ATOM     13  C   UNL     1       3.979   3.900  17.960  0.00  0.00    +0.000 C 
BRANCH  13  14
ATOM     14  N   UNL     1       4.453   3.970  16.601  0.00  0.00    +0.000 N 
ATOM     15  C   UNL     1       5.793   4.168  16.333  0.00  0.00    +0.000 C 
ATOM     16  O   UNL     1       6.635   4.316  17.216  0.00  0.00    +0.000 OA
ATOM     17  H   UNL     1       3.801   3.802  15.846  0.00  0.00    +0.000 HD
BRANCH  15  18
ATOM     18  C   UNL     1       6.209   4.236  14.906  0.00  0.00    +0.000 A 
ATOM     19  C   UNL     1       5.535   3.439  13.965  0.00  0.00    +0.000 A 
ATOM     20  C   UNL     1       5.914   3.457  12.619  0.00  0.00    +0.000 A 
ATOM     21  C   UNL     1       6.958   4.279  12.197  0.00  0.00    +0.000 A 
ATOM     22  C   UNL     1       7.619   5.087  13.122  0.00  0.00    +0.000 A 
ATOM     23  C   UNL     1       7.244   5.061  14.465  0.00  0.00    +0.000 A 
ATOM     24  F   UNL     1       7.902   5.859  15.319  0.00  0.00    +0.000 F 
ENDBRANCH  15  18
ENDBRANCH  13  14
ENDBRANCH   2  13
TORSDOF 4
ENDMDL
MODEL 9
REMARK VINA RESULT:      -7.4      4.405      8.218
REMARK  Name = 
REMARK  6 active torsions:
REMARK  status: ('A' for Active; 'I' for Inactive)
REMARK    1  A    between atoms: C_1  and  C_2
REMARK    2  A    between atoms: C_2  and  N_3
REMARK    3  A    between atoms: C_4  and  C_5
REMARK    4  A    between atoms: C_5  and  N_6
REMARK    5  A    between atoms: C_7  and  C_9
REMARK    6  A    between atoms: C_19  and  C_20
REMARK                            x       y       z     vdW  Elec       q    Type
REMARK                         _______ _______ _______ _____ _____    ______ ____
ROOT
ATOM      1  N   UNL     1       2.981   5.400  19.316  0.00  0.00    +0.000 N 
ATOM      2  C   UNL     1       2.735   6.761  19.302  0.00  0.00    +0.000 A 
ATOM      3  C   UNL     1       3.396   7.272  18.197  0.00  0.00    +0.000 A 
ATOM      4  C   UNL     1       4.031   6.205  17.508  0.00  0.00    +0.000 A 
ATOM      5  C   UNL     1       4.789   6.120  16.320  0.00  0.00    +0.000 A 
ATOM      6  C   UNL     1       5.280   4.877  15.885  0.00  0.00    +0.000 A 
ATOM      7  C   UNL     1       6.072   4.762  14.614  0.00  0.00    +0.000 C 
ATOM      8  C   UNL     1       5.025   3.734  16.645  0.00  0.00    +0.000 A 
ATOM      9  C   UNL     1       4.276   3.795  17.824  0.00  0.00    +0.000 A 
ATOM     10  C   UNL     1       3.774   5.043  18.234  0.00  0.00    +0.000 A 
ENDROOT
BRANCH   1  12
ATOM     11  C   UNL     1       1.098   3.897  19.871  0.00  0.00    +0.000 C 
ATOM     12  C   UNL     1       2.460   4.434  20.273  0.00  0.00    +0.000 C 
ENDBRANCH   1  12
BRANCH   2  13
ATOM     13  C   UNL     1       1.853   7.491  20.262  0.00  0.00    +0.000 C 
BRANCH  13  14
ATOM     14  N   UNL     1       1.426   8.741  19.685  0.00  0.00    +0.000 N 
ATOM     15  C   UNL     1       0.463   9.510  20.308  0.00  0.00    +0.000 C 
ATOM     16  O   UNL     1      -0.089   9.171  21.353  0.00  0.00    +0.000 OA
ATOM     17  H   UNL     1       1.892   9.081  18.854  0.00  0.00    +0.000 HD
BRANCH  15  18
ATOM     18  C   UNL     1       0.066  10.785  19.651  0.00  0.00    +0.000 A 
ATOM     19  C   UNL     1      -0.979  10.767  18.713  0.00  0.00    +0.000 A 
ATOM     20  C   UNL     1      -1.364  11.941  18.057  0.00  0.00    +0.000 A 
ATOM     21  C   UNL     1      -0.719  13.144  18.341  0.00  0.00    +0.000 A 
ATOM     22  C   UNL     1       0.307  13.173  19.285  0.00  0.00    +0.000 A 
ATOM     23  C   UNL     1       0.693  11.999  19.932  0.00  0.00    +0.000 A 
ATOM     24  F   UNL     1       1.680  12.074  20.839  0.00  0.00    +0.000 F 
ENDBRANCH  15  18
ENDBRANCH  13  14
ENDBRANCH   2  13
TORSDOF 4
ENDMDL
