MODEL 1
REMARK VINA RESULT:      -8.9      0.000      0.000
REMARK  Name = 
REMARK  7 active torsions:
REMARK  status: ('A' for Active; 'I' for Inactive)
REMARK    1  A    between atoms: C_1  and  C_2
REMARK    2  A    between atoms: C_5  and  C_6
REMARK    3  A    between atoms: C_7  and  C_8
REMARK    4  A    between atoms: C_10  and  C_11
REMARK    5  A    between atoms: C_10  and  C_12
REMARK    6  A    between atoms: C_14  and  N_15
REMARK    7  A    between atoms: C_16  and  C_18
REMARK                            x       y       z     vdW  Elec       q    Type
REMARK                         _______ _______ _______ _____ _____    ______ ____
ROOT
ATOM      1  C   UNL     1       1.813   8.661  19.042  0.00  0.00    +0.000 A 
ATOM      2  C   UNL     1       2.563   8.059  18.006  0.00  0.00    +0.000 A 
ATOM      3  C   UNL     1       3.089   6.766  18.092  0.00  0.00    +0.000 A 
ATOM      4  C   UNL     1       2.832   6.029  19.243  0.00  0.00    +0.000 A 
ATOM      5  C   UNL     1       2.098   6.604  20.282  0.00  0.00    +0.000 A 
ATOM      6  F   UNL     1       1.853   5.880  21.386  0.00  0.00    +0.000 F 
ATOM      7  C   UNL     1       1.590   7.901  20.189  0.00  0.00    +0.000 A 
ATOM      8  F   UNL     1       0.826   8.370  21.186  0.00  0.00    +0.000 F 
ENDROOT
BRANCH   1  11
ATOM      9  C   UNL     1      -0.421  11.264  20.439  0.00  0.00    +0.000 C 
ATOM     10  C   UNL     1       0.939  10.648  20.134  0.00  0.00    +0.000 C 
ATOM     11  C   UNL     1       1.152  10.017  18.746  0.00  0.00    +0.000 C 
ATOM     12  C   UNL     1       2.005  10.951  17.863  0.00  0.00    +0.000 C 
ATOM     13  N   UNL     1      -0.088   9.767  18.000  0.00  0.00    +0.000 NA
ATOM     14  C   UNL     1      -1.125  10.504  18.041  0.00  0.00    +0.000 C 
ATOM     15  N   UNL     1      -2.230  10.171  17.329  0.00  0.00    +0.000 N 
ATOM     16  S   UNL     1      -1.243  11.948  18.986  0.00  0.00    +0.000 S 
ATOM     17  H   UNL     1      -2.061   9.490  16.594  0.00  0.00    +0.000 HD
ATOM     18  H   UNL     1      -2.882  10.914  17.108  0.00  0.00    +0.000 HD
BRANCH   9  25
ATOM     19  C   UNL     1       1.496  13.869  20.512  0.00  0.00    +0.000 C 
ATOM     20  C   UNL     1       0.551  13.414  21.559  0.00  0.00    +0.000 A 
ATOM     21  N   UNL     1       0.348  14.156  22.652  0.00  0.00    +0.000 NA
ATOM     22  O   UNL     1      -0.623  13.499  23.379  0.00  0.00    +0.000 OA
ATOM     23  C   UNL     1      -0.999  12.370  22.724  0.00  0.00    +0.000 A 
ATOM     24  C   UNL     1      -2.101  11.599  23.341  0.00  0.00    +0.000 C 
ATOM     25  C   UNL     1      -0.271  12.252  21.554  0.00  0.00    +0.000 A 
ENDBRANCH   9  25
ENDBRANCH   1  11
BRANCH   3  26
ATOM     26  N   UNL     1       3.839   6.196  17.039  0.00  0.00    +0.000 N 
ATOM     27  C   UNL     1       5.217   6.006  17.043  0.00  0.00    +0.000 C 
ATOM     28  O   UNL     1       5.995   6.275  17.949  0.00  0.00    +0.000 OA
ATOM     29  H   UNL     1       3.345   5.817  16.234  0.00  0.00    +0.000 HD
BRANCH  27  30
ATOM     30  C   UNL     1       5.779   5.367  15.812  0.00  0.00    +0.000 A 
ATOM     31  C   UNL     1       4.985   4.464  15.110  0.00  0.00    +0.000 A 
ATOM     32  C   UNL     1       5.484   3.902  13.941  0.00  0.00    +0.000 A 
ATOM     33  C   UNL     1       6.756   4.261  13.517  0.00  0.00    +0.000 A 
ATOM     34 CL   UNL     1       7.401   3.615  12.066  0.00  0.00    +0.000 Cl
ATOM     35  C   UNL     1       7.489   5.160  14.290  0.00  0.00    +0.000 A 
ATOM     36  N   UNL     1       7.034   5.732  15.434  0.00  0.00    +0.000 NA
ENDBRANCH  27  30
ENDBRANCH   3  26
TORSDOF 4
ENDMDL
MODEL 2
REMARK VINA RESULT:      -8.7      0.383      1.415
REMARK  Name = 
REMARK  7 active torsions:
REMARK  status: ('A' for Active; 'I' for Inactive)
REMARK    1  A    between atoms: C_1  and  C_2
REMARK    2  A    between atoms: C_5  and  C_6
REMARK    3  A    between atoms: C_7  and  C_8
REMARK    4  A    between atoms: C_10  and  C_11
REMARK    5  A    between atoms: C_10  and  C_12
REMARK    6  A    between atoms: C_14  and  N_15
REMARK    7  A    between atoms: C_16  and  C_18
REMARK                            x       y       z     vdW  Elec       q    Type
REMARK                         _______ _______ _______ _____ _____    ______ ____
ROOT
ATOM      1  C   UNL     1       1.790   8.801  18.965  0.00  0.00    +0.000 A 
ATOM      2  C   UNL     1       2.533   8.168  17.943  0.00  0.00    +0.000 A 
ATOM      3  C   UNL     1       3.071   6.884  18.068  0.00  0.00    +0.000 A 
ATOM      4  C   UNL     1       2.833   6.185  19.248  0.00  0.00    +0.000 A 
ATOM      5  C   UNL     1       2.106   6.792  20.274  0.00  0.00    +0.000 A 
ATOM      6  F   UNL     1       1.880   6.106  21.405  0.00  0.00    +0.000 F 
ATOM      7  C   UNL     1       1.587   8.080  20.140  0.00  0.00    +0.000 A 
ATOM      8  F   UNL     1       0.830   8.579  21.129  0.00  0.00    +0.000 F 
ENDROOT
BRANCH   1  11
ATOM      9  C   UNL     1      -0.503  11.401  20.268  0.00  0.00    +0.000 C 
ATOM     10  C   UNL     1       0.870  10.798  19.999  0.00  0.00    +0.000 C 
ATOM     11  C   UNL     1       1.114  10.140  18.629  0.00  0.00    +0.000 C 
ATOM     12  C   UNL     1       1.968  11.067  17.739  0.00  0.00    +0.000 C 
ATOM     13  N   UNL     1      -0.110   9.855  17.869  0.00  0.00    +0.000 NA
ATOM     14  C   UNL     1      -1.158  10.578  17.877  0.00  0.00    +0.000 C 
ATOM     15  N   UNL     1      -2.246  10.212  17.155  0.00  0.00    +0.000 N 
ATOM     16  S   UNL     1      -1.312  12.040  18.788  0.00  0.00    +0.000 S 
ATOM     17  H   UNL     1      -2.056   9.518  16.439  0.00  0.00    +0.000 HD
ATOM     18  H   UNL     1      -2.906  10.941  16.908  0.00  0.00    +0.000 HD
BRANCH   9  25
ATOM     19  C   UNL     1      -1.848  11.284  23.208  0.00  0.00    +0.000 C 
ATOM     20  C   UNL     1      -0.955  12.334  22.665  0.00  0.00    +0.000 A 
ATOM     21  N   UNL     1      -0.543  13.339  23.446  0.00  0.00    +0.000 NA
ATOM     22  O   UNL     1       0.316  14.090  22.671  0.00  0.00    +0.000 OA
ATOM     23  C   UNL     1       0.419  13.539  21.434  0.00  0.00    +0.000 A 
ATOM     24  C   UNL     1       1.377  14.187  20.513  0.00  0.00    +0.000 C 
ATOM     25  C   UNL     1      -0.385  12.415  21.363  0.00  0.00    +0.000 A 
ENDBRANCH   9  25
ENDBRANCH   1  11
BRANCH   3  26
ATOM     26  N   UNL     1       3.814   6.283  17.027  0.00  0.00    +0.000 N 
ATOM     27  C   UNL     1       5.187   6.060  17.043  0.00  0.00    +0.000 C 
ATOM     28  O   UNL     1       5.966   6.323  17.950  0.00  0.00    +0.000 OA
ATOM     29  H   UNL     1       3.317   5.905  16.225  0.00  0.00    +0.000 HD
BRANCH  27  30
ATOM     30  C   UNL     1       5.741   5.393  15.824  0.00  0.00    +0.000 A 
ATOM     31  C   UNL     1       4.942   4.476  15.146  0.00  0.00    +0.000 A 
ATOM     32  C   UNL     1       5.434   3.886  13.987  0.00  0.00    +0.000 A 
ATOM     33  C   UNL     1       6.705   4.232  13.550  0.00  0.00    +0.000 A 
ATOM     34 CL   UNL     1       7.342   3.552  12.111  0.00  0.00    +0.000 Cl
ATOM     35  C   UNL     1       7.444   5.147  14.299  0.00  0.00    +0.000 A 
ATOM     36  N   UNL     1       6.996   5.745  15.432  0.00  0.00    +0.000 NA
ENDBRANCH  27  30
ENDBRANCH   3  26
TORSDOF 4
ENDMDL
MODEL 3
REMARK VINA RESULT:      -8.5      4.652      6.443
REMARK  Name = 
REMARK  7 active torsions:
REMARK  status: ('A' for Active; 'I' for Inactive)
REMARK    1  A    between atoms: C_1  and  C_2
REMARK    2  A    between atoms: C_5  and  C_6
REMARK    3  A    between atoms: C_7  and  C_8
REMARK    4  A    between atoms: C_10  and  C_11
REMARK    5  A    between atoms: C_10  and  C_12
REMARK    6  A    between atoms: C_14  and  N_15
REMARK    7  A    between atoms: C_16  and  C_18
REMARK                            x       y       z     vdW  Elec       q    Type
REMARK                         _______ _______ _______ _____ _____    ______ ____
ROOT
ATOM      1  C   UNL     1       4.595   5.586  17.819  0.00  0.00    +0.000 A 
ATOM      2  C   UNL     1       5.253   6.833  17.899  0.00  0.00    +0.000 A 
ATOM      3  C   UNL     1       6.477   7.096  17.276  0.00  0.00    +0.000 A 
ATOM      4  C   UNL     1       7.055   6.085  16.514  0.00  0.00    +0.000 A 
ATOM      5  C   UNL     1       6.426   4.842  16.425  0.00  0.00    +0.000 A 
ATOM      6  F   UNL     1       6.992   3.878  15.683  0.00  0.00    +0.000 F 
ATOM      7  C   UNL     1       5.211   4.590  17.064  0.00  0.00    +0.000 A 
ATOM      8  F   UNL     1       4.616   3.403  16.876  0.00  0.00    +0.000 F 
ENDROOT
BRANCH   1  11
ATOM      9  C   UNL     1       2.202   7.214  20.131  0.00  0.00    +0.000 C 
ATOM     10  C   UNL     1       2.813   6.943  18.761  0.00  0.00    +0.000 C 
ATOM     11  C   UNL     1       3.178   5.490  18.407  0.00  0.00    +0.000 C 
ATOM     12  C   UNL     1       2.134   4.902  17.435  0.00  0.00    +0.000 C 
ATOM     13  N   UNL     1       3.222   4.581  19.560  0.00  0.00    +0.000 NA
ATOM     14  C   UNL     1       2.458   4.652  20.576  0.00  0.00    +0.000 C 
ATOM     15  N   UNL     1       2.597   3.774  21.600  0.00  0.00    +0.000 N 
ATOM     16  S   UNL     1       1.216   5.842  20.764  0.00  0.00    +0.000 S 
ATOM     17  H   UNL     1       3.133   2.944  21.366  0.00  0.00    +0.000 HD
ATOM     18  H   UNL     1       1.795   3.634  22.203  0.00  0.00    +0.000 HD
BRANCH   9  25
ATOM     19  C   UNL     1       1.253   9.026  22.637  0.00  0.00    +0.000 C 
ATOM     20  C   UNL     1       1.071   9.313  21.195  0.00  0.00    +0.000 A 
ATOM     21  N   UNL     1       0.538  10.475  20.801  0.00  0.00    +0.000 NA
ATOM     22  O   UNL     1       0.572  10.457  19.422  0.00  0.00    +0.000 OA
ATOM     23  C   UNL     1       1.124   9.292  18.993  0.00  0.00    +0.000 A 
ATOM     24  C   UNL     1       1.308   9.163  17.532  0.00  0.00    +0.000 C 
ATOM     25  C   UNL     1       1.452   8.509  20.085  0.00  0.00    +0.000 A 
ENDBRANCH   9  25
ENDBRANCH   1  11
BRANCH   3  26
ATOM     26  N   UNL     1       7.111   8.354  17.381  0.00  0.00    +0.000 N 
ATOM     27  C   UNL     1       8.172   8.653  18.230  0.00  0.00    +0.000 C 
ATOM     28  O   UNL     1       8.738   7.888  18.999  0.00  0.00    +0.000 OA
ATOM     29  H   UNL     1       6.839   9.096  16.740  0.00  0.00    +0.000 HD
BRANCH  27  30
ATOM     30  C   UNL     1       8.682  10.057  18.147  0.00  0.00    +0.000 A 
ATOM     31  C   UNL     1       9.934  10.343  18.686  0.00  0.00    +0.000 A 
ATOM     32  C   UNL     1      10.433  11.635  18.573  0.00  0.00    +0.000 A 
ATOM     33  C   UNL     1       9.664  12.594  17.927  0.00  0.00    +0.000 A 
ATOM     34 CL   UNL     1      10.251  14.193  17.738  0.00  0.00    +0.000 Cl
ATOM     35  C   UNL     1       8.414  12.225  17.432  0.00  0.00    +0.000 A 
ATOM     36  N   UNL     1       7.896  10.974  17.520  0.00  0.00    +0.000 NA
ENDBRANCH  27  30
ENDBRANCH   3  26
TORSDOF 4
ENDMDL
MODEL 4
REMARK VINA RESULT:      -8.4      3.034      4.166
REMARK  Name = 
REMARK  7 active torsions:
REMARK  status: ('A' for Active; 'I' for Inactive)
REMARK    1  A    between atoms: C_1  and  C_2
REMARK    2  A    between atoms: C_5  and  C_6
REMARK    3  A    between atoms: C_7  and  C_8
REMARK    4  A    between atoms: C_10  and  C_11
REMARK    5  A    between atoms: C_10  and  C_12
REMARK    6  A    between atoms: C_14  and  N_15
REMARK    7  A    between atoms: C_16  and  C_18
REMARK                            x       y       z     vdW  Elec       q    Type
REMARK                         _______ _______ _______ _____ _____    ______ ____
ROOT
ATOM      1  C   UNL     1      -0.360  10.574  19.153  0.00  0.00    +0.000 A 
ATOM      2  C   UNL     1       0.540   9.730  18.464  0.00  0.00    +0.000 A 
ATOM      3  C   UNL     1       1.407   8.843  19.110  0.00  0.00    +0.000 A 
ATOM      4  C   UNL     1       1.354   8.768  20.498  0.00  0.00    +0.000 A 
ATOM      5  C   UNL     1       0.476   9.595  21.201  0.00  0.00    +0.000 A 
ATOM      6  F   UNL     1       0.431   9.510  22.540  0.00  0.00    +0.000 F 
ATOM      7  C   UNL     1      -0.374  10.487  20.544  0.00  0.00    +0.000 A 
ATOM      8  F   UNL     1      -1.250  11.198  21.268  0.00  0.00    +0.000 F 
ENDROOT
BRANCH   1  11
ATOM      9  C   UNL     1      -3.973  11.169  18.599  0.00  0.00    +0.000 C 
ATOM     10  C   UNL     1      -2.614  11.477  19.216  0.00  0.00    +0.000 C 
ATOM     11  C   UNL     1      -1.371  11.372  18.314  0.00  0.00    +0.000 C 
ATOM     12  C   UNL     1      -0.883  12.780  17.916  0.00  0.00    +0.000 C 
ATOM     13  N   UNL     1      -1.597  10.645  17.058  0.00  0.00    +0.000 NA
ATOM     14  C   UNL     1      -2.678  10.666  16.386  0.00  0.00    +0.000 C 
ATOM     15  N   UNL     1      -2.790   9.939  15.248  0.00  0.00    +0.000 N 
ATOM     16  S   UNL     1      -4.077  11.574  16.845  0.00  0.00    +0.000 S 
ATOM     17  H   UNL     1      -1.903   9.632  14.861  0.00  0.00    +0.000 HD
ATOM     18  H   UNL     1      -3.494  10.230  14.579  0.00  0.00    +0.000 HD
BRANCH   9  25
ATOM     19  C   UNL     1      -7.003  10.132  19.057  0.00  0.00    +0.000 C 
ATOM     20  C   UNL     1      -6.362  11.333  19.642  0.00  0.00    +0.000 A 
ATOM     21  N   UNL     1      -7.018  12.079  20.537  0.00  0.00    +0.000 NA
ATOM     22  O   UNL     1      -6.133  13.062  20.929  0.00  0.00    +0.000 OA
ATOM     23  C   UNL     1      -4.953  12.905  20.273  0.00  0.00    +0.000 A 
ATOM     24  C   UNL     1      -3.871  13.837  20.655  0.00  0.00    +0.000 C 
ATOM     25  C   UNL     1      -5.043  11.819  19.421  0.00  0.00    +0.000 A 
ENDBRANCH   9  25
ENDBRANCH   1  11
BRANCH   3  26
ATOM     26  N   UNL     1       2.299   8.017  18.390  0.00  0.00    +0.000 N 
ATOM     27  C   UNL     1       2.622   6.704  18.717  0.00  0.00    +0.000 C 
ATOM     28  O   UNL     1       2.183   6.048  19.652  0.00  0.00    +0.000 OA
ATOM     29  H   UNL     1       2.690   8.361  17.516  0.00  0.00    +0.000 HD
BRANCH  27  30
ATOM     30  C   UNL     1       3.584   6.032  17.789  0.00  0.00    +0.000 A 
ATOM     31  C   UNL     1       3.504   4.650  17.635  0.00  0.00    +0.000 A 
ATOM     32  C   UNL     1       4.365   4.024  16.740  0.00  0.00    +0.000 A 
ATOM     33  C   UNL     1       5.273   4.801  16.034  0.00  0.00    +0.000 A 
ATOM     34 CL   UNL     1       6.334   4.077  14.899  0.00  0.00    +0.000 Cl
ATOM     35  C   UNL     1       5.296   6.176  16.262  0.00  0.00    +0.000 A 
ATOM     36  N   UNL     1       4.469   6.821  17.123  0.00  0.00    +0.000 NA
ENDBRANCH  27  30
ENDBRANCH   3  26
TORSDOF 4
ENDMDL
MODEL 5
REMARK VINA RESULT:      -8.3      4.576      6.319
REMARK  Name = 
REMARK  7 active torsions:
REMARK  status: ('A' for Active; 'I' for Inactive)
REMARK    1  A    between atoms: C_1  and  C_2
REMARK    2  A    between atoms: C_5  and  C_6
REMARK    3  A    between atoms: C_7  and  C_8
REMARK    4  A    between atoms: C_10  and  C_11
REMARK    5  A    between atoms: C_10  and  C_12
REMARK    6  A    between atoms: C_14  and  N_15
REMARK    7  A    between atoms: C_16  and  C_18
REMARK                            x       y       z     vdW  Elec       q    Type
REMARK                         _______ _______ _______ _____ _____    ______ ____
ROOT
ATOM      1  C   UNL     1       4.457   5.527  17.747  0.00  0.00    +0.000 A 
ATOM      2  C   UNL     1       5.147   6.754  17.870  0.00  0.00    +0.000 A 
ATOM      3  C   UNL     1       6.356   7.023  17.222  0.00  0.00    +0.000 A 
ATOM      4  C   UNL     1       6.886   6.042  16.390  0.00  0.00    +0.000 A 
ATOM      5  C   UNL     1       6.225   4.819  16.256  0.00  0.00    +0.000 A 
ATOM      6  F   UNL     1       6.744   3.884  15.446  0.00  0.00    +0.000 F 
ATOM      7  C   UNL     1       5.025   4.560  16.920  0.00  0.00    +0.000 A 
ATOM      8  F   UNL     1       4.397   3.398  16.690  0.00  0.00    +0.000 F 
ENDROOT
BRANCH   1  11
ATOM      9  C   UNL     1       2.110   7.183  20.085  0.00  0.00    +0.000 C 
ATOM     10  C   UNL     1       2.687   6.887  18.706  0.00  0.00    +0.000 C 
ATOM     11  C   UNL     1       3.057   5.430  18.376  0.00  0.00    +0.000 C 
ATOM     12  C   UNL     1       1.994   4.809  17.446  0.00  0.00    +0.000 C 
ATOM     13  N   UNL     1       3.143   4.548  19.547  0.00  0.00    +0.000 NA
ATOM     14  C   UNL     1       2.405   4.635  20.581  0.00  0.00    +0.000 C 
ATOM     15  N   UNL     1       2.582   3.783  21.621  0.00  0.00    +0.000 N 
ATOM     16  S   UNL     1       1.157   5.817  20.776  0.00  0.00    +0.000 S 
ATOM     17  H   UNL     1       3.120   2.953  21.392  0.00  0.00    +0.000 HD
ATOM     18  H   UNL     1       1.798   3.648  22.249  0.00  0.00    +0.000 HD
BRANCH   9  25
ATOM     19  C   UNL     1       1.944   9.266  17.616  0.00  0.00    +0.000 C 
ATOM     20  C   UNL     1       1.254   9.359  18.923  0.00  0.00    +0.000 A 
ATOM     21  N   UNL     1       0.379  10.344  19.154  0.00  0.00    +0.000 NA
ATOM     22  O   UNL     1      -0.129  10.108  20.415  0.00  0.00    +0.000 OA
ATOM     23  C   UNL     1       0.438   8.989  20.936  0.00  0.00    +0.000 A 
ATOM     24  C   UNL     1      -0.072   8.557  22.255  0.00  0.00    +0.000 C 
ATOM     25  C   UNL     1       1.345   8.469  20.030  0.00  0.00    +0.000 A 
ENDBRANCH   9  25
ENDBRANCH   1  11
BRANCH   3  26
ATOM     26  N   UNL     1       7.022   8.260  17.372  0.00  0.00    +0.000 N 
ATOM     27  C   UNL     1       8.099   8.496  18.220  0.00  0.00    +0.000 C 
ATOM     28  O   UNL     1       8.655   7.685  18.949  0.00  0.00    +0.000 OA
ATOM     29  H   UNL     1       6.761   9.034  16.767  0.00  0.00    +0.000 HD
BRANCH  27  30
ATOM     30  C   UNL     1       8.643   9.889  18.191  0.00  0.00    +0.000 A 
ATOM     31  C   UNL     1       9.846  10.149  18.844  0.00  0.00    +0.000 A 
ATOM     32  C   UNL     1      10.379  11.430  18.783  0.00  0.00    +0.000 A 
ATOM     33  C   UNL     1       9.693  12.406  18.073  0.00  0.00    +0.000 A 
ATOM     34 CL   UNL     1      10.327  13.993  17.946  0.00  0.00    +0.000 Cl
ATOM     35  C   UNL     1       8.487  12.064  17.463  0.00  0.00    +0.000 A 
ATOM     36  N   UNL     1       7.938  10.824  17.498  0.00  0.00    +0.000 NA
ENDBRANCH  27  30
ENDBRANCH   3  26
TORSDOF 4
ENDMDL
MODEL 6
REMARK VINA RESULT:      -8.3      2.222      3.224
REMARK  Name = 
REMARK  7 active torsions:
REMARK  status: ('A' for Active; 'I' for Inactive)
REMARK    1  A    between atoms: C_1  and  C_2
REMARK    2  A    between atoms: C_5  and  C_6
REMARK    3  A    between atoms: C_7  and  C_8
REMARK    4  A    between atoms: C_10  and  C_11
REMARK    5  A    between atoms: C_10  and  C_12
REMARK    6  A    between atoms: C_14  and  N_15
REMARK    7  A    between atoms: C_16  and  C_18
REMARK                            x       y       z     vdW  Elec       q    Type
REMARK                         _______ _______ _______ _____ _____    ______ ____
ROOT
ATOM      1  C   UNL     1       1.637   8.368  19.770  0.00  0.00    +0.000 A 
ATOM      2  C   UNL     1       2.447   7.939  18.695  0.00  0.00    +0.000 A 
ATOM      3  C   UNL     1       2.837   6.609  18.511  0.00  0.00    +0.000 A 
ATOM      4  C   UNL     1       2.375   5.659  19.417  0.00  0.00    +0.000 A 
ATOM      5  C   UNL     1       1.577   6.060  20.491  0.00  0.00    +0.000 A 
ATOM      6  F   UNL     1       1.134   5.133  21.354  0.00  0.00    +0.000 F 
ATOM      7  C   UNL     1       1.208   7.394  20.669  0.00  0.00    +0.000 A 
ATOM      8  F   UNL     1       0.375   7.705  21.674  0.00  0.00    +0.000 F 
ENDROOT
BRANCH   1  11
ATOM      9  C   UNL     1      -0.649  10.732  18.066  0.00  0.00    +0.000 C 
ATOM     10  C   UNL     1      -0.272   9.741  19.161  0.00  0.00    +0.000 C 
ATOM     11  C   UNL     1       1.146   9.825  19.754  0.00  0.00    +0.000 C 
ATOM     12  C   UNL     1       1.101  10.486  21.147  0.00  0.00    +0.000 C 
ATOM     13  N   UNL     1       2.089  10.617  18.954  0.00  0.00    +0.000 NA
ATOM     14  C   UNL     1       1.785  11.656  18.285  0.00  0.00    +0.000 C 
ATOM     15  N   UNL     1       2.731  12.303  17.559  0.00  0.00    +0.000 N 
ATOM     16  S   UNL     1       0.190  12.322  18.214  0.00  0.00    +0.000 S 
ATOM     17  H   UNL     1       3.685  12.066  17.814  0.00  0.00    +0.000 HD
ATOM     18  H   UNL     1       2.556  13.275  17.331  0.00  0.00    +0.000 HD
BRANCH   9  25
ATOM     19  C   UNL     1      -2.566  12.385  20.080  0.00  0.00    +0.000 C 
ATOM     20  C   UNL     1      -2.968  11.613  18.881  0.00  0.00    +0.000 A 
ATOM     21  N   UNL     1      -4.240  11.621  18.470  0.00  0.00    +0.000 NA
ATOM     22  O   UNL     1      -4.266  10.875  17.309  0.00  0.00    +0.000 OA
ATOM     23  C   UNL     1      -3.016  10.424  17.027  0.00  0.00    +0.000 A 
ATOM     24  C   UNL     1      -2.867   9.678  15.759  0.00  0.00    +0.000 C 
ATOM     25  C   UNL     1      -2.140  10.853  18.008  0.00  0.00    +0.000 A 
ENDBRANCH   9  25
ENDBRANCH   1  11
BRANCH   3  26
ATOM     26  N   UNL     1       3.653   6.215  17.427  0.00  0.00    +0.000 N 
ATOM     27  C   UNL     1       4.950   5.725  17.532  0.00  0.00    +0.000 C 
ATOM     28  O   UNL     1       5.585   5.535  18.561  0.00  0.00    +0.000 OA
ATOM     29  H   UNL     1       3.255   6.208  16.491  0.00  0.00    +0.000 HD
BRANCH  27  30
ATOM     30  C   UNL     1       5.604   5.361  16.237  0.00  0.00    +0.000 A 
ATOM     31  C   UNL     1       4.955   4.464  15.392  0.00  0.00    +0.000 A 
ATOM     32  C   UNL     1       5.535   4.157  14.167  0.00  0.00    +0.000 A 
ATOM     33  C   UNL     1       6.742   4.756  13.831  0.00  0.00    +0.000 A 
ATOM     34 CL   UNL     1       7.480   4.429  12.319  0.00  0.00    +0.000 Cl
ATOM     35  C   UNL     1       7.331   5.629  14.743  0.00  0.00    +0.000 A 
ATOM     36  N   UNL     1       6.792   5.956  15.945  0.00  0.00    +0.000 NA
ENDBRANCH  27  30
ENDBRANCH   3  26
TORSDOF 4
ENDMDL
MODEL 7
REMARK VINA RESULT:      -8.2      3.297      4.628
REMARK  Name = 
REMARK  7 active torsions:
REMARK  status: ('A' for Active; 'I' for Inactive)
REMARK    1  A    between atoms: C_1  and  C_2
REMARK    2  A    between atoms: C_5  and  C_6
REMARK    3  A    between atoms: C_7  and  C_8
REMARK    4  A    between atoms: C_10  and  C_11
REMARK    5  A    between atoms: C_10  and  C_12
REMARK    6  A    between atoms: C_14  and  N_15
REMARK    7  A    between atoms: C_16  and  C_18
REMARK                            x       y       z     vdW  Elec       q    Type
REMARK                         _______ _______ _______ _____ _____    ______ ____
ROOT
ATOM      1  C   UNL     1      -0.544  10.755  19.623  0.00  0.00    +0.000 A 
ATOM      2  C   UNL     1       0.425   9.887  19.072  0.00  0.00    +0.000 A 
ATOM      3  C   UNL     1       1.245   9.062  19.847  0.00  0.00    +0.000 A 
ATOM      4  C   UNL     1       1.072   9.076  21.228  0.00  0.00    +0.000 A 
ATOM      5  C   UNL     1       0.124   9.929  21.796  0.00  0.00    +0.000 A 
ATOM      6  F   UNL     1      -0.036   9.929  23.129  0.00  0.00    +0.000 F 
ATOM      7  C   UNL     1      -0.678  10.758  21.010  0.00  0.00    +0.000 A 
ATOM      8  F   UNL     1      -1.625  11.496  21.608  0.00  0.00    +0.000 F 
ENDROOT
BRANCH   1  11
ATOM      9  C   UNL     1      -4.104  11.231  18.718  0.00  0.00    +0.000 C 
ATOM     10  C   UNL     1      -2.811  11.608  19.430  0.00  0.00    +0.000 C 
ATOM     11  C   UNL     1      -1.491  11.476  18.650  0.00  0.00    +0.000 C 
ATOM     12  C   UNL     1      -0.994  12.867  18.206  0.00  0.00    +0.000 C 
ATOM     13  N   UNL     1      -1.591  10.667  17.428  0.00  0.00    +0.000 NA
ATOM     14  C   UNL     1      -2.609  10.621  16.664  0.00  0.00    +0.000 C 
ATOM     15  N   UNL     1      -2.606   9.822  15.569  0.00  0.00    +0.000 N 
ATOM     16  S   UNL     1      -4.058  11.524  16.939  0.00  0.00    +0.000 S 
ATOM     17  H   UNL     1      -1.683   9.512  15.282  0.00  0.00    +0.000 HD
ATOM     18  H   UNL     1      -3.252  10.055  14.823  0.00  0.00    +0.000 HD
BRANCH   9  25
ATOM     19  C   UNL     1      -7.107  10.091  19.100  0.00  0.00    +0.000 C 
ATOM     20  C   UNL     1      -6.561  11.378  19.590  0.00  0.00    +0.000 A 
ATOM     21  N   UNL     1      -7.308  12.178  20.359  0.00  0.00    +0.000 NA
ATOM     22  O   UNL     1      -6.496  13.241  20.697  0.00  0.00    +0.000 OA
ATOM     23  C   UNL     1      -5.270  13.078  20.134  0.00  0.00    +0.000 A 
ATOM     24  C   UNL     1      -4.258  14.099  20.479  0.00  0.00    +0.000 C 
ATOM     25  C   UNL     1      -5.254  11.906  19.399  0.00  0.00    +0.000 A 
ENDBRANCH   9  25
ENDBRANCH   1  11
BRANCH   3  26
ATOM     26  N   UNL     1       2.209   8.210  19.263  0.00  0.00    +0.000 N 
ATOM     27  C   UNL     1       2.415   6.877  19.602  0.00  0.00    +0.000 C 
ATOM     28  O   UNL     1       1.797   6.222  20.431  0.00  0.00    +0.000 OA
ATOM     29  H   UNL     1       2.756   8.554  18.477  0.00  0.00    +0.000 HD
BRANCH  27  30
ATOM     30  C   UNL     1       3.489   6.179  18.828  0.00  0.00    +0.000 A 
ATOM     31  C   UNL     1       3.745   6.591  17.523  0.00  0.00    +0.000 A 
ATOM     32  C   UNL     1       4.771   5.978  16.815  0.00  0.00    +0.000 A 
ATOM     33  C   UNL     1       5.504   4.975  17.435  0.00  0.00    +0.000 A 
ATOM     34 CL   UNL     1       6.798   4.210  16.611  0.00  0.00    +0.000 Cl
ATOM     35  C   UNL     1       5.170   4.613  18.739  0.00  0.00    +0.000 A 
ATOM     36  N   UNL     1       4.178   5.191  19.463  0.00  0.00    +0.000 NA
ENDBRANCH  27  30
ENDBRANCH   3  26
TORSDOF 4
ENDMDL
MODEL 8
REMARK VINA RESULT:      -8.2      5.059      7.439
REMARK  Name = 
REMARK  7 active torsions:
REMARK  status: ('A' for Active; 'I' for Inactive)
REMARK    1  A    between atoms: C_1  and  C_2
REMARK    2  A    between atoms: C_5  and  C_6
REMARK    3  A    between atoms: C_7  and  C_8
REMARK    4  A    between atoms: C_10  and  C_11
REMARK    5  A    between atoms: C_10  and  C_12
REMARK    6  A    between atoms: C_14  and  N_15
REMARK    7  A    between atoms: C_16  and  C_18
REMARK                            x       y       z     vdW  Elec       q    Type
REMARK                         _______ _______ _______ _____ _____    ______ ____
ROOT
ATOM      1  C   UNL     1       0.852  14.163  18.670  0.00  0.00    +0.000 A 
ATOM      2  C   UNL     1       2.202  13.783  18.495  0.00  0.00    +0.000 A 
ATOM      3  C   UNL     1       3.229  14.696  18.238  0.00  0.00    +0.000 A 
ATOM      4  C   UNL     1       2.906  16.048  18.185  0.00  0.00    +0.000 A 
ATOM      5  C   UNL     1       1.578  16.448  18.350  0.00  0.00    +0.000 A 
ATOM      6  F   UNL     1       1.281  17.756  18.302  0.00  0.00    +0.000 F 
ATOM      7  C   UNL     1       0.561  15.523  18.592  0.00  0.00    +0.000 A 
ATOM      8  F   UNL     1      -0.681  15.974  18.821  0.00  0.00    +0.000 F 
ENDROOT
BRANCH   1  11
ATOM      9  C   UNL     1       0.255  10.508  18.745  0.00  0.00    +0.000 C 
ATOM     10  C   UNL     1       0.732  11.829  19.336  0.00  0.00    +0.000 C 
ATOM     11  C   UNL     1      -0.141  13.077  19.115  0.00  0.00    +0.000 C 
ATOM     12  C   UNL     1      -0.909  13.423  20.407  0.00  0.00    +0.000 C 
ATOM     13  N   UNL     1      -1.155  12.926  18.063  0.00  0.00    +0.000 NA
ATOM     14  C   UNL     1      -1.780  11.849  17.801  0.00  0.00    +0.000 C 
ATOM     15  N   UNL     1      -2.683  11.810  16.791  0.00  0.00    +0.000 N 
ATOM     16  S   UNL     1      -1.541  10.366  18.659  0.00  0.00    +0.000 S 
ATOM     17  H   UNL     1      -2.998  12.724  16.479  0.00  0.00    +0.000 HD
ATOM     18  H   UNL     1      -3.387  11.082  16.825  0.00  0.00    +0.000 HD
BRANCH   9  25
ATOM     19  C   UNL     1       2.437   8.410  17.605  0.00  0.00    +0.000 C 
ATOM     20  C   UNL     1       1.888   8.484  18.979  0.00  0.00    +0.000 A 
ATOM     21  N   UNL     1       2.361   7.681  19.938  0.00  0.00    +0.000 NA
ATOM     22  O   UNL     1       1.700   8.044  21.094  0.00  0.00    +0.000 OA
ATOM     23  C   UNL     1       0.838   9.060  20.829  0.00  0.00    +0.000 A 
ATOM     24  C   UNL     1       0.118   9.619  21.992  0.00  0.00    +0.000 C 
ATOM     25  C   UNL     1       0.903   9.379  19.484  0.00  0.00    +0.000 A 
ENDBRANCH   9  25
ENDBRANCH   1  11
BRANCH   3  26
ATOM     26  N   UNL     1       4.568  14.281  18.063  0.00  0.00    +0.000 N 
ATOM     27  C   UNL     1       5.690  14.977  18.500  0.00  0.00    +0.000 C 
ATOM     28  O   UNL     1       5.709  16.034  19.117  0.00  0.00    +0.000 OA
ATOM     29  H   UNL     1       4.749  13.367  17.654  0.00  0.00    +0.000 HD
BRANCH  27  30
ATOM     30  C   UNL     1       7.004  14.323  18.206  0.00  0.00    +0.000 A 
ATOM     31  C   UNL     1       8.161  14.882  18.742  0.00  0.00    +0.000 A 
ATOM     32  C   UNL     1       9.379  14.255  18.510  0.00  0.00    +0.000 A 
ATOM     33  C   UNL     1       9.397  13.092  17.751  0.00  0.00    +0.000 A 
ATOM     34 CL   UNL     1      10.872  12.267  17.463  0.00  0.00    +0.000 Cl
ATOM     35  C   UNL     1       8.193  12.610  17.239  0.00  0.00    +0.000 A 
ATOM     36  N   UNL     1       6.986  13.193  17.448  0.00  0.00    +0.000 NA
ENDBRANCH  27  30
ENDBRANCH   3  26
TORSDOF 4
ENDMDL
MODEL 9
REMARK VINA RESULT:      -8.2      2.071      3.146
REMARK  Name = 
REMARK  7 active torsions:
REMARK  status: ('A' for Active; 'I' for Inactive)
REMARK    1  A    between atoms: C_1  and  C_2
REMARK    2  A    between atoms: C_5  and  C_6
REMARK    3  A    between atoms: C_7  and  C_8
REMARK    4  A    between atoms: C_10  and  C_11
REMARK    5  A    between atoms: C_10  and  C_12
REMARK    6  A    between atoms: C_14  and  N_15
REMARK    7  A    between atoms: C_16  and  C_18
REMARK                            x       y       z     vdW  Elec       q    Type
REMARK                         _______ _______ _______ _____ _____    ______ ____
ROOT
ATOM      1  C   UNL     1       1.576   8.582  19.788  0.00  0.00    +0.000 A 
ATOM      2  C   UNL     1       2.408   8.145  18.733  0.00  0.00    +0.000 A 
ATOM      3  C   UNL     1       2.776   6.809  18.549  0.00  0.00    +0.000 A 
ATOM      4  C   UNL     1       2.269   5.862  19.432  0.00  0.00    +0.000 A 
ATOM      5  C   UNL     1       1.448   6.270  20.486  0.00  0.00    +0.000 A 
ATOM      6  F   UNL     1       0.962   5.345  21.328  0.00  0.00    +0.000 F 
ATOM      7  C   UNL     1       1.100   7.609  20.665  0.00  0.00    +0.000 A 
ATOM      8  F   UNL     1       0.245   7.930  21.648  0.00  0.00    +0.000 F 
ENDROOT
BRANCH   1  11
ATOM      9  C   UNL     1      -0.685  10.983  18.101  0.00  0.00    +0.000 C 
ATOM     10  C   UNL     1      -0.313   9.991  19.197  0.00  0.00    +0.000 C 
ATOM     11  C   UNL     1       1.114  10.048  19.770  0.00  0.00    +0.000 C 
ATOM     12  C   UNL     1       1.102  10.718  21.160  0.00  0.00    +0.000 C 
ATOM     13  N   UNL     1       2.062  10.816  18.953  0.00  0.00    +0.000 NA
ATOM     14  C   UNL     1       1.771  11.858  18.282  0.00  0.00    +0.000 C 
ATOM     15  N   UNL     1       2.719  12.481  17.539  0.00  0.00    +0.000 N 
ATOM     16  S   UNL     1       0.189  12.556  18.228  0.00  0.00    +0.000 S 
ATOM     17  H   UNL     1       3.672  12.226  17.783  0.00  0.00    +0.000 HD
ATOM     18  H   UNL     1       2.562  13.455  17.308  0.00  0.00    +0.000 HD
BRANCH   9  25
ATOM     19  C   UNL     1      -2.743   9.639  16.000  0.00  0.00    +0.000 C 
ATOM     20  C   UNL     1      -3.071  10.509  17.152  0.00  0.00    +0.000 A 
ATOM     21  N   UNL     1      -4.346  10.745  17.478  0.00  0.00    +0.000 NA
ATOM     22  O   UNL     1      -4.307  11.520  18.619  0.00  0.00    +0.000 OA
ATOM     23  C   UNL     1      -3.015  11.747  18.974  0.00  0.00    +0.000 A 
ATOM     24  C   UNL     1      -2.812  12.496  20.233  0.00  0.00    +0.000 C 
ATOM     25  C   UNL     1      -2.174  11.135  18.063  0.00  0.00    +0.000 A 
ENDBRANCH   9  25
ENDBRANCH   1  11
BRANCH   3  26
ATOM     26  N   UNL     1       3.615   6.407  17.485  0.00  0.00    +0.000 N 
ATOM     27  C   UNL     1       4.812   5.713  17.623  0.00  0.00    +0.000 C 
ATOM     28  O   UNL     1       5.322   5.322  18.664  0.00  0.00    +0.000 OA
ATOM     29  H   UNL     1       3.302   6.559  16.529  0.00  0.00    +0.000 HD
BRANCH  27  30
ATOM     30  C   UNL     1       5.515   5.388  16.342  0.00  0.00    +0.000 A 
ATOM     31  C   UNL     1       4.916   4.489  15.464  0.00  0.00    +0.000 A 
ATOM     32  C   UNL     1       5.541   4.217  14.253  0.00  0.00    +0.000 A 
ATOM     33  C   UNL     1       6.741   4.853  13.964  0.00  0.00    +0.000 A 
ATOM     34 CL   UNL     1       7.533   4.571  12.470  0.00  0.00    +0.000 Cl
ATOM     35  C   UNL     1       7.278   5.727  14.907  0.00  0.00    +0.000 A 
ATOM     36  N   UNL     1       6.695   6.019  16.097  0.00  0.00    +0.000 NA
ENDBRANCH  27  30
ENDBRANCH   3  26
TORSDOF 4
ENDMDL
