MODEL 1
REMARK VINA RESULT:      -8.2      0.000      0.000
REMARK  Name = 
REMARK  6 active torsions:
REMARK  status: ('A' for Active; 'I' for Inactive)
REMARK    1  A    between atoms: C_1  and  C_2
REMARK    2  A    between atoms: C_2  and  C_3
REMARK    3  A    between atoms: C_8  and  C_9
REMARK    4  A    between atoms: C_10  and  O_11
REMARK    5  A    between atoms: O_11  and  C_12
REMARK    6  A    between atoms: C_18  and  O_19
REMARK                            x       y       z     vdW  Elec       q    Type
REMARK                         _______ _______ _______ _____ _____    ______ ____
ROOT
ATOM      1  C   UNL     1       2.807   4.852  19.772  0.00  0.00    +0.000 C 
ATOM      2  O   UNL     1       2.147   5.386  18.885  0.00  0.00    +0.000 OA
ATOM      3  N   UNL     1       4.140   4.524  19.708  0.00  0.00    +0.000 N 
ATOM      4  C   UNL     1       4.970   4.839  18.649  0.00  0.00    +0.000 A 
ATOM      5  N   UNL     1       4.557   5.662  17.685  0.00  0.00    +0.000 NA
ATOM      6  C   UNL     1       5.384   5.914  16.652  0.00  0.00    +0.000 A 
ATOM      7  C   UNL     1       4.883   6.908  15.649  0.00  0.00    +0.000 C 
ATOM      8  C   UNL     1       6.627   5.323  16.542  0.00  0.00    +0.000 A 
ATOM      9  C   UNL     1       6.996   4.566  17.646  0.00  0.00    +0.000 A 
ATOM     10  N   UNL     1       6.190   4.299  18.690  0.00  0.00    +0.000 NA
ATOM     11  H   UNL     1       4.577   3.954  20.417  0.00  0.00    +0.000 HD
ENDROOT
BRANCH   1  13
ATOM     12  C   UNL     1       1.227   3.315  20.955  0.00  0.00    +0.000 C 
ATOM     13  C   UNL     1       2.181   4.490  21.104  0.00  0.00    +0.000 C 
ENDBRANCH   1  13
BRANCH   9  14
ATOM     14  O   UNL     1       8.243   4.037  17.811  0.00  0.00    +0.000 OA
ATOM     15  H   UNL     1       8.411   3.933  18.760  0.00  0.00    +0.000 HD
ENDBRANCH   9  14
BRANCH   8  16
ATOM     16  O   UNL     1       7.366   5.612  15.429  0.00  0.00    +0.000 OA
BRANCH  16  17
ATOM     17  C   UNL     1       7.087   5.004  14.229  0.00  0.00    +0.000 A 
ATOM     18  C   UNL     1       6.216   3.924  14.067  0.00  0.00    +0.000 A 
ATOM     19  C   UNL     1       6.162   3.261  12.840  0.00  0.00    +0.000 A 
ATOM     20  C   UNL     1       6.919   3.721  11.763  0.00  0.00    +0.000 A 
ATOM     21  C   UNL     1       7.700   4.867  11.896  0.00  0.00    +0.000 A 
ATOM     22  C   UNL     1       7.780   5.513  13.129  0.00  0.00    +0.000 A 
ENDBRANCH  16  17
ENDBRANCH   8  16
TORSDOF 4
ENDMDL
MODEL 2
REMARK VINA RESULT:      -8.1      0.192      1.093
REMARK  Name = 
REMARK  6 active torsions:
REMARK  status: ('A' for Active; 'I' for Inactive)
REMARK    1  A    between atoms: C_1  and  C_2
REMARK    2  A    between atoms: C_2  and  C_3
REMARK    3  A    between atoms: C_8  and  C_9
REMARK    4  A    between atoms: C_10  and  O_11
REMARK    5  A    between atoms: O_11  and  C_12
REMARK    6  A    between atoms: C_18  and  O_19
REMARK                            x       y       z     vdW  Elec       q    Type
REMARK                         _______ _______ _______ _____ _____    ______ ____
ROOT
ATOM      1  C   UNL     1       2.776   4.726  19.620  0.00  0.00    +0.000 C 
ATOM      2  O   UNL     1       2.133   5.297  18.744  0.00  0.00    +0.000 OA
ATOM      3  N   UNL     1       4.113   4.407  19.570  0.00  0.00    +0.000 N 
ATOM      4  C   UNL     1       4.963   4.774  18.545  0.00  0.00    +0.000 A 
ATOM      5  N   UNL     1       4.567   5.639  17.612  0.00  0.00    +0.000 NA
ATOM      6  C   UNL     1       5.414   5.941  16.609  0.00  0.00    +0.000 A 
ATOM      7  C   UNL     1       4.930   6.979  15.642  0.00  0.00    +0.000 C 
ATOM      8  C   UNL     1       6.662   5.362  16.500  0.00  0.00    +0.000 A 
ATOM      9  C   UNL     1       7.012   4.556  17.575  0.00  0.00    +0.000 A 
ATOM     10  N   UNL     1       6.185   4.238  18.587  0.00  0.00    +0.000 NA
ATOM     11  H   UNL     1       4.537   3.807  20.261  0.00  0.00    +0.000 HD
ENDROOT
BRANCH   1  13
ATOM     12  C   UNL     1       1.288   3.045  20.724  0.00  0.00    +0.000 C 
ATOM     13  C   UNL     1       2.123   4.300  20.920  0.00  0.00    +0.000 C 
ENDBRANCH   1  13
BRANCH   9  14
ATOM     14  O   UNL     1       8.258   4.026  17.743  0.00  0.00    +0.000 OA
ATOM     15  H   UNL     1       8.695   3.985  16.878  0.00  0.00    +0.000 HD
ENDBRANCH   9  14
BRANCH   8  16
ATOM     16  O   UNL     1       7.424   5.705  15.417  0.00  0.00    +0.000 OA
BRANCH  16  17
ATOM     17  C   UNL     1       7.287   5.033  14.226  0.00  0.00    +0.000 A 
ATOM     18  C   UNL     1       7.959   5.359  13.046  0.00  0.00    +0.000 A 
ATOM     19  C   UNL     1       7.595   4.737  11.852  0.00  0.00    +0.000 A 
ATOM     20  C   UNL     1       6.616   3.743  11.851  0.00  0.00    +0.000 A 
ATOM     21  C   UNL     1       6.028   3.341  13.048  0.00  0.00    +0.000 A 
ATOM     22  C   UNL     1       6.368   3.982  14.238  0.00  0.00    +0.000 A 
ENDBRANCH  16  17
ENDBRANCH   8  16
TORSDOF 4
ENDMDL
MODEL 3
REMARK VINA RESULT:      -7.5      3.087      5.949
REMARK  Name = 
REMARK  6 active torsions:
REMARK  status: ('A' for Active; 'I' for Inactive)
REMARK    1  A    between atoms: C_1  and  C_2
REMARK    2  A    between atoms: C_2  and  C_3
REMARK    3  A    between atoms: C_8  and  C_9
REMARK    4  A    between atoms: C_10  and  O_11
REMARK    5  A    between atoms: O_11  and  C_12
REMARK    6  A    between atoms: C_18  and  O_19
REMARK                            x       y       z     vdW  Elec       q    Type
REMARK                         _______ _______ _______ _____ _____    ______ ____
ROOT
ATOM      1  C   UNL     1       8.189   8.466  18.133  0.00  0.00    +0.000 C 
ATOM      2  O   UNL     1       7.735   8.834  17.053  0.00  0.00    +0.000 OA
ATOM      3  N   UNL     1       7.877   7.301  18.791  0.00  0.00    +0.000 N 
ATOM      4  C   UNL     1       7.061   6.310  18.278  0.00  0.00    +0.000 A 
ATOM      5  N   UNL     1       6.668   6.348  17.005  0.00  0.00    +0.000 NA
ATOM      6  C   UNL     1       5.842   5.382  16.555  0.00  0.00    +0.000 A 
ATOM      7  C   UNL     1       5.507   5.446  15.096  0.00  0.00    +0.000 C 
ATOM      8  C   UNL     1       5.366   4.380  17.375  0.00  0.00    +0.000 A 
ATOM      9  C   UNL     1       5.916   4.377  18.650  0.00  0.00    +0.000 A 
ATOM     10  N   UNL     1       6.741   5.329  19.124  0.00  0.00    +0.000 NA
ATOM     11  H   UNL     1       8.174   7.137  19.741  0.00  0.00    +0.000 HD
ENDROOT
BRANCH   1  13
ATOM     12  C   UNL     1       9.169  10.751  18.412  0.00  0.00    +0.000 C 
ATOM     13  C   UNL     1       9.203   9.306  18.883  0.00  0.00    +0.000 C 
ENDBRANCH   1  13
BRANCH   9  14
ATOM     14  O   UNL     1       5.708   3.379  19.557  0.00  0.00    +0.000 OA
ATOM     15  H   UNL     1       6.559   2.958  19.753  0.00  0.00    +0.000 HD
ENDBRANCH   9  14
BRANCH   8  16
ATOM     16  O   UNL     1       4.497   3.477  16.828  0.00  0.00    +0.000 OA
BRANCH  16  17
ATOM     17  C   UNL     1       3.270   3.253  17.404  0.00  0.00    +0.000 A 
ATOM     18  C   UNL     1       2.262   4.213  17.531  0.00  0.00    +0.000 A 
ATOM     19  C   UNL     1       1.138   3.932  18.308  0.00  0.00    +0.000 A 
ATOM     20  C   UNL     1       0.989   2.675  18.894  0.00  0.00    +0.000 A 
ATOM     21  C   UNL     1       1.942   1.683  18.672  0.00  0.00    +0.000 A 
ATOM     22  C   UNL     1       3.080   1.970  17.921  0.00  0.00    +0.000 A 
ENDBRANCH  16  17
ENDBRANCH   8  16
TORSDOF 4
ENDMDL
MODEL 4
REMARK VINA RESULT:      -7.3      3.269      5.911
REMARK  Name = 
REMARK  6 active torsions:
REMARK  status: ('A' for Active; 'I' for Inactive)
REMARK    1  A    between atoms: C_1  and  C_2
REMARK    2  A    between atoms: C_2  and  C_3
REMARK    3  A    between atoms: C_8  and  C_9
REMARK    4  A    between atoms: C_10  and  O_11
REMARK    5  A    between atoms: O_11  and  C_12
REMARK    6  A    between atoms: C_18  and  O_19
REMARK                            x       y       z     vdW  Elec       q    Type
REMARK                         _______ _______ _______ _____ _____    ______ ____
ROOT
ATOM      1  C   UNL     1       8.393   9.169  18.285  0.00  0.00    +0.000 C 
ATOM      2  O   UNL     1       7.676   9.750  17.475  0.00  0.00    +0.000 OA
ATOM      3  N   UNL     1       8.289   7.852  18.666  0.00  0.00    +0.000 N 
ATOM      4  C   UNL     1       7.403   6.949  18.110  0.00  0.00    +0.000 A 
ATOM      5  N   UNL     1       6.708   7.264  17.018  0.00  0.00    +0.000 NA
ATOM      6  C   UNL     1       5.828   6.368  16.530  0.00  0.00    +0.000 A 
ATOM      7  C   UNL     1       5.143   6.761  15.257  0.00  0.00    +0.000 C 
ATOM      8  C   UNL     1       5.600   5.153  17.142  0.00  0.00    +0.000 A 
ATOM      9  C   UNL     1       6.447   4.885  18.209  0.00  0.00    +0.000 A 
ATOM     10  N   UNL     1       7.333   5.762  18.716  0.00  0.00    +0.000 NA
ATOM     11  H   UNL     1       8.816   7.486  19.444  0.00  0.00    +0.000 HD
ENDROOT
BRANCH   1  13
ATOM     12  C   UNL     1       9.478  11.383  18.710  0.00  0.00    +0.000 C 
ATOM     13  C   UNL     1       9.533   9.888  18.978  0.00  0.00    +0.000 C 
ENDBRANCH   1  13
BRANCH   9  14
ATOM     14  O   UNL     1       6.499   3.677  18.842  0.00  0.00    +0.000 OA
ATOM     15  H   UNL     1       6.420   2.976  18.177  0.00  0.00    +0.000 HD
ENDBRANCH   9  14
BRANCH   8  16
ATOM     16  O   UNL     1       4.651   4.337  16.590  0.00  0.00    +0.000 OA
BRANCH  16  17
ATOM     17  C   UNL     1       3.615   3.856  17.353  0.00  0.00    +0.000 A 
ATOM     18  C   UNL     1       3.426   2.512  17.682  0.00  0.00    +0.000 A 
ATOM     19  C   UNL     1       2.235   2.113  18.290  0.00  0.00    +0.000 A 
ATOM     20  C   UNL     1       1.273   3.063  18.634  0.00  0.00    +0.000 A 
ATOM     21  C   UNL     1       1.515   4.416  18.407  0.00  0.00    +0.000 A 
ATOM     22  C   UNL     1       2.689   4.814  17.771  0.00  0.00    +0.000 A 
ENDBRANCH  16  17
ENDBRANCH   8  16
TORSDOF 4
ENDMDL
MODEL 5
REMARK VINA RESULT:      -7.0      1.546      6.937
REMARK  Name = 
REMARK  6 active torsions:
REMARK  status: ('A' for Active; 'I' for Inactive)
REMARK    1  A    between atoms: C_1  and  C_2
REMARK    2  A    between atoms: C_2  and  C_3
REMARK    3  A    between atoms: C_8  and  C_9
REMARK    4  A    between atoms: C_10  and  O_11
REMARK    5  A    between atoms: O_11  and  C_12
REMARK    6  A    between atoms: C_18  and  O_19
REMARK                            x       y       z     vdW  Elec       q    Type
REMARK                         _______ _______ _______ _____ _____    ______ ____
ROOT
ATOM      1  C   UNL     1       6.711   4.771  14.474  0.00  0.00    +0.000 C 
ATOM      2  O   UNL     1       6.849   3.683  15.027  0.00  0.00    +0.000 OA
ATOM      3  N   UNL     1       5.971   5.832  14.940  0.00  0.00    +0.000 N 
ATOM      4  C   UNL     1       5.341   5.862  16.169  0.00  0.00    +0.000 A 
ATOM      5  N   UNL     1       5.573   4.910  17.074  0.00  0.00    +0.000 NA
ATOM      6  C   UNL     1       4.910   4.957  18.246  0.00  0.00    +0.000 A 
ATOM      7  C   UNL     1       5.280   3.900  19.242  0.00  0.00    +0.000 C 
ATOM      8  C   UNL     1       3.977   5.935  18.525  0.00  0.00    +0.000 A 
ATOM      9  C   UNL     1       3.887   6.929  17.560  0.00  0.00    +0.000 A 
ATOM     10  N   UNL     1       4.538   6.906  16.382  0.00  0.00    +0.000 NA
ATOM     11  H   UNL     1       5.782   6.636  14.362  0.00  0.00    +0.000 HD
ENDROOT
BRANCH   1  13
ATOM     12  C   UNL     1       6.999   4.041  12.098  0.00  0.00    +0.000 C 
ATOM     13  C   UNL     1       7.387   5.068  13.150  0.00  0.00    +0.000 C 
ENDBRANCH   1  13
BRANCH   9  14
ATOM     14  O   UNL     1       3.152   8.067  17.719  0.00  0.00    +0.000 OA
ATOM     15  H   UNL     1       3.753   8.793  17.949  0.00  0.00    +0.000 HD
ENDBRANCH   9  14
BRANCH   8  16
ATOM     16  O   UNL     1       3.328   5.862  19.726  0.00  0.00    +0.000 OA
BRANCH  16  17
ATOM     17  C   UNL     1       2.429   4.852  19.974  0.00  0.00    +0.000 A 
ATOM     18  C   UNL     1       2.247   4.235  21.214  0.00  0.00    +0.000 A 
ATOM     19  C   UNL     1       1.454   3.090  21.302  0.00  0.00    +0.000 A 
ATOM     20  C   UNL     1       0.790   2.609  20.173  0.00  0.00    +0.000 A 
ATOM     21  C   UNL     1       0.885   3.293  18.964  0.00  0.00    +0.000 A 
ATOM     22  C   UNL     1       1.700   4.419  18.865  0.00  0.00    +0.000 A 
ENDBRANCH  16  17
ENDBRANCH   8  16
TORSDOF 4
ENDMDL
MODEL 6
REMARK VINA RESULT:      -7.0      2.182      6.740
REMARK  Name = 
REMARK  6 active torsions:
REMARK  status: ('A' for Active; 'I' for Inactive)
REMARK    1  A    between atoms: C_1  and  C_2
REMARK    2  A    between atoms: C_2  and  C_3
REMARK    3  A    between atoms: C_8  and  C_9
REMARK    4  A    between atoms: C_10  and  O_11
REMARK    5  A    between atoms: O_11  and  C_12
REMARK    6  A    between atoms: C_18  and  O_19
REMARK                            x       y       z     vdW  Elec       q    Type
REMARK                         _______ _______ _______ _____ _____    ______ ____
ROOT
ATOM      1  C   UNL     1       6.172   3.850  13.069  0.00  0.00    +0.000 C 
ATOM      2  O   UNL     1       4.958   3.674  13.022  0.00  0.00    +0.000 OA
ATOM      3  N   UNL     1       6.913   4.110  14.197  0.00  0.00    +0.000 N 
ATOM      4  C   UNL     1       6.401   4.119  15.481  0.00  0.00    +0.000 A 
ATOM      5  N   UNL     1       5.165   3.683  15.721  0.00  0.00    +0.000 NA
ATOM      6  C   UNL     1       4.692   3.743  16.981  0.00  0.00    +0.000 A 
ATOM      7  C   UNL     1       3.325   3.163  17.188  0.00  0.00    +0.000 C 
ATOM      8  C   UNL     1       5.430   4.270  18.020  0.00  0.00    +0.000 A 
ATOM      9  C   UNL     1       6.736   4.600  17.681  0.00  0.00    +0.000 A 
ATOM     10  N   UNL     1       7.233   4.550  16.432  0.00  0.00    +0.000 NA
ATOM     11  H   UNL     1       7.880   4.390  14.138  0.00  0.00    +0.000 HD
ENDROOT
BRANCH   1  13
ATOM     12  C   UNL     1       7.203   2.348  11.354  0.00  0.00    +0.000 C 
ATOM     13  C   UNL     1       7.021   3.785  11.815  0.00  0.00    +0.000 C 
ENDBRANCH   1  13
BRANCH   9  14
ATOM     14  O   UNL     1       7.677   4.979  18.594  0.00  0.00    +0.000 OA
ATOM     15  H   UNL     1       7.341   4.784  19.482  0.00  0.00    +0.000 HD
ENDBRANCH   9  14
BRANCH   8  16
ATOM     16  O   UNL     1       4.837   4.327  19.251  0.00  0.00    +0.000 OA
BRANCH  16  17
ATOM     17  C   UNL     1       3.755   5.146  19.467  0.00  0.00    +0.000 A 
ATOM     18  C   UNL     1       3.593   6.415  18.905  0.00  0.00    +0.000 A 
ATOM     19  C   UNL     1       2.557   7.237  19.350  0.00  0.00    +0.000 A 
ATOM     20  C   UNL     1       1.647   6.766  20.297  0.00  0.00    +0.000 A 
ATOM     21  C   UNL     1       1.746   5.460  20.771  0.00  0.00    +0.000 A 
ATOM     22  C   UNL     1       2.797   4.647  20.352  0.00  0.00    +0.000 A 
ENDBRANCH  16  17
ENDBRANCH   8  16
TORSDOF 4
ENDMDL
MODEL 7
REMARK VINA RESULT:      -7.0      1.996      6.819
REMARK  Name = 
REMARK  6 active torsions:
REMARK  status: ('A' for Active; 'I' for Inactive)
REMARK    1  A    between atoms: C_1  and  C_2
REMARK    2  A    between atoms: C_2  and  C_3
REMARK    3  A    between atoms: C_8  and  C_9
REMARK    4  A    between atoms: C_10  and  O_11
REMARK    5  A    between atoms: O_11  and  C_12
REMARK    6  A    between atoms: C_18  and  O_19
REMARK                            x       y       z     vdW  Elec       q    Type
REMARK                         _______ _______ _______ _____ _____    ______ ____
ROOT
ATOM      1  C   UNL     1       6.629   4.417  13.442  0.00  0.00    +0.000 C 
ATOM      2  O   UNL     1       5.484   3.993  13.307  0.00  0.00    +0.000 OA
ATOM      3  N   UNL     1       7.253   4.709  14.631  0.00  0.00    +0.000 N 
ATOM      4  C   UNL     1       6.704   4.474  15.878  0.00  0.00    +0.000 A 
ATOM      5  N   UNL     1       5.584   3.762  16.002  0.00  0.00    +0.000 NA
ATOM      6  C   UNL     1       5.062   3.587  17.231  0.00  0.00    +0.000 A 
ATOM      7  C   UNL     1       3.848   2.711  17.301  0.00  0.00    +0.000 C 
ATOM      8  C   UNL     1       5.629   4.147  18.358  0.00  0.00    +0.000 A 
ATOM      9  C   UNL     1       6.842   4.781  18.129  0.00  0.00    +0.000 A 
ATOM     10  N   UNL     1       7.385   4.970  16.912  0.00  0.00    +0.000 NA
ATOM     11  H   UNL     1       8.137   5.194  14.657  0.00  0.00    +0.000 HD
ENDROOT
BRANCH   1  13
ATOM     12  C   UNL     1       8.419   5.870  12.470  0.00  0.00    +0.000 C 
ATOM     13  C   UNL     1       7.518   4.667  12.240  0.00  0.00    +0.000 C 
ENDBRANCH   1  13
BRANCH   9  14
ATOM     14  O   UNL     1       7.644   5.253  19.128  0.00  0.00    +0.000 OA
ATOM     15  H   UNL     1       7.676   4.592  19.837  0.00  0.00    +0.000 HD
ENDBRANCH   9  14
BRANCH   8  16
ATOM     16  O   UNL     1       4.991   3.946  19.551  0.00  0.00    +0.000 OA
BRANCH  16  17
ATOM     17  C   UNL     1       3.777   4.536  19.802  0.00  0.00    +0.000 A 
ATOM     18  C   UNL     1       3.444   5.850  19.460  0.00  0.00    +0.000 A 
ATOM     19  C   UNL     1       2.258   6.406  19.939  0.00  0.00    +0.000 A 
ATOM     20  C   UNL     1       1.377   5.632  20.694  0.00  0.00    +0.000 A 
ATOM     21  C   UNL     1       1.659   4.290  20.937  0.00  0.00    +0.000 A 
ATOM     22  C   UNL     1       2.857   3.740  20.486  0.00  0.00    +0.000 A 
ENDBRANCH  16  17
ENDBRANCH   8  16
TORSDOF 4
ENDMDL
MODEL 8
REMARK VINA RESULT:      -6.9      2.605      6.694
REMARK  Name = 
REMARK  6 active torsions:
REMARK  status: ('A' for Active; 'I' for Inactive)
REMARK    1  A    between atoms: C_1  and  C_2
REMARK    2  A    between atoms: C_2  and  C_3
REMARK    3  A    between atoms: C_8  and  C_9
REMARK    4  A    between atoms: C_10  and  O_11
REMARK    5  A    between atoms: O_11  and  C_12
REMARK    6  A    between atoms: C_18  and  O_19
REMARK                            x       y       z     vdW  Elec       q    Type
REMARK                         _______ _______ _______ _____ _____    ______ ____
ROOT
ATOM      1  C   UNL     1       6.242   3.624  12.687  0.00  0.00    +0.000 C 
ATOM      2  O   UNL     1       5.096   3.192  12.779  0.00  0.00    +0.000 OA
ATOM      3  N   UNL     1       6.911   4.364  13.633  0.00  0.00    +0.000 N 
ATOM      4  C   UNL     1       6.413   4.656  14.888  0.00  0.00    +0.000 A 
ATOM      5  N   UNL     1       5.304   4.064  15.333  0.00  0.00    +0.000 NA
ATOM      6  C   UNL     1       4.833   4.404  16.548  0.00  0.00    +0.000 A 
ATOM      7  C   UNL     1       3.629   3.642  17.012  0.00  0.00    +0.000 C 
ATOM      8  C   UNL     1       5.440   5.365  17.331  0.00  0.00    +0.000 A 
ATOM      9  C   UNL     1       6.639   5.842  16.819  0.00  0.00    +0.000 A 
ATOM     10  N   UNL     1       7.132   5.519  15.609  0.00  0.00    +0.000 NA
ATOM     11  H   UNL     1       7.792   4.809  13.426  0.00  0.00    +0.000 HD
ENDROOT
BRANCH   1  13
ATOM     12  C   UNL     1       7.074   1.883  11.094  0.00  0.00    +0.000 C 
ATOM     13  C   UNL     1       7.081   3.361  11.452  0.00  0.00    +0.000 C 
ENDBRANCH   1  13
BRANCH   9  14
ATOM     14  O   UNL     1       7.477   6.668  17.511  0.00  0.00    +0.000 OA
ATOM     15  H   UNL     1       6.943   7.344  17.957  0.00  0.00    +0.000 HD
ENDBRANCH   9  14
BRANCH   8  16
ATOM     16  O   UNL     1       4.852   5.667  18.528  0.00  0.00    +0.000 OA
BRANCH  16  17
ATOM     17  C   UNL     1       3.779   6.523  18.582  0.00  0.00    +0.000 A 
ATOM     18  C   UNL     1       3.513   7.526  17.647  0.00  0.00    +0.000 A 
ATOM     19  C   UNL     1       2.512   8.462  17.908  0.00  0.00    +0.000 A 
ATOM     20  C   UNL     1       1.734   8.352  19.061  0.00  0.00    +0.000 A 
ATOM     21  C   UNL     1       1.928   7.284  19.934  0.00  0.00    +0.000 A 
ATOM     22  C   UNL     1       2.947   6.365  19.692  0.00  0.00    +0.000 A 
ENDBRANCH  16  17
ENDBRANCH   8  16
TORSDOF 4
ENDMDL
MODEL 9
REMARK VINA RESULT:      -6.9      3.107      6.148
REMARK  Name = 
REMARK  6 active torsions:
REMARK  status: ('A' for Active; 'I' for Inactive)
REMARK    1  A    between atoms: C_1  and  C_2
REMARK    2  A    between atoms: C_2  and  C_3
REMARK    3  A    between atoms: C_8  and  C_9
REMARK    4  A    between atoms: C_10  and  O_11
REMARK    5  A    between atoms: O_11  and  C_12
REMARK    6  A    between atoms: C_18  and  O_19
REMARK                            x       y       z     vdW  Elec       q    Type
REMARK                         _______ _______ _______ _____ _____    ______ ____
ROOT
ATOM      1  C   UNL     1       8.219   8.440  18.124  0.00  0.00    +0.000 C 
ATOM      2  O   UNL     1       8.451   7.817  19.156  0.00  0.00    +0.000 OA
ATOM      3  N   UNL     1       7.450   8.008  17.069  0.00  0.00    +0.000 N 
ATOM      4  C   UNL     1       6.736   6.825  17.059  0.00  0.00    +0.000 A 
ATOM      5  N   UNL     1       6.601   6.104  18.172  0.00  0.00    +0.000 NA
ATOM      6  C   UNL     1       5.929   4.939  18.110  0.00  0.00    +0.000 A 
ATOM      7  C   UNL     1       5.751   4.223  19.415  0.00  0.00    +0.000 C 
ATOM      8  C   UNL     1       5.405   4.453  16.929  0.00  0.00    +0.000 A 
ATOM      9  C   UNL     1       5.513   5.327  15.856  0.00  0.00    +0.000 A 
ATOM     10  N   UNL     1       6.180   6.496  15.891  0.00  0.00    +0.000 NA
ATOM     11  H   UNL     1       7.426   8.510  16.195  0.00  0.00    +0.000 HD
ENDROOT
BRANCH   1  13
ATOM     12  C   UNL     1       9.323  10.410  19.200  0.00  0.00    +0.000 C 
ATOM     13  C   UNL     1       8.784   9.829  17.903  0.00  0.00    +0.000 C 
ENDBRANCH   1  13
BRANCH   9  14
ATOM     14  O   UNL     1       4.916   5.112  14.648  0.00  0.00    +0.000 OA
ATOM     15  H   UNL     1       4.332   4.343  14.725  0.00  0.00    +0.000 HD
ENDBRANCH   9  14
BRANCH   8  16
ATOM     16  O   UNL     1       4.781   3.237  16.969  0.00  0.00    +0.000 OA
BRANCH  16  17
ATOM     17  C   UNL     1       3.509   3.121  17.474  0.00  0.00    +0.000 A 
ATOM     18  C   UNL     1       2.513   4.095  17.355  0.00  0.00    +0.000 A 
ATOM     19  C   UNL     1       1.327   3.957  18.077  0.00  0.00    +0.000 A 
ATOM     20  C   UNL     1       1.108   2.819  18.853  0.00  0.00    +0.000 A 
ATOM     21  C   UNL     1       2.056   1.798  18.879  0.00  0.00    +0.000 A 
ATOM     22  C   UNL     1       3.254   1.947  18.185  0.00  0.00    +0.000 A 
ENDBRANCH  16  17
ENDBRANCH   8  16
TORSDOF 4
ENDMDL
