MODEL 1
REMARK VINA RESULT:      -8.2      0.000      0.000
REMARK  Name = 
REMARK  7 active torsions:
REMARK  status: ('A' for Active; 'I' for Inactive)
REMARK    1  A    between atoms: C_1  and  C_2
REMARK    2  A    between atoms: C_2  and  N_3
REMARK    3  A    between atoms: C_7  and  C_9
REMARK    4  A    between atoms: N_11  and  C_12
REMARK    5  A    between atoms: C_12  and  C_13
REMARK    6  A    between atoms: C_22  and  O_23
REMARK    7  A    between atoms: O_23  and  C_24
REMARK                            x       y       z     vdW  Elec       q    Type
REMARK                         _______ _______ _______ _____ _____    ______ ____
ROOT
ATOM      1  C   UNL     1       2.840   6.803  17.828  0.00  0.00    +0.000 A 
ATOM      2  C   UNL     1       2.216   5.539  17.865  0.00  0.00    +0.000 A 
ATOM      3  N   UNL     1       3.112   4.561  17.594  0.00  0.00    +0.000 N 
ATOM      4  C   UNL     1       4.304   5.194  17.433  0.00  0.00    +0.000 A 
ATOM      5  C   UNL     1       5.547   4.624  17.159  0.00  0.00    +0.000 A 
ATOM      6  C   UNL     1       6.665   5.473  17.040  0.00  0.00    +0.000 A 
ATOM      7  C   UNL     1       6.551   6.871  17.196  0.00  0.00    +0.000 A 
ATOM      8  C   UNL     1       5.279   7.429  17.470  0.00  0.00    +0.000 A 
ATOM      9  C   UNL     1       4.177   6.556  17.585  0.00  0.00    +0.000 A 
ENDROOT
BRANCH   1  14
ATOM     10  N   UNL     1      -0.230   9.160  21.194  0.00  0.00    +0.000 NA
ATOM     11  C   UNL     1      -0.171   9.927  19.927  0.00  0.00    +0.000 C 
ATOM     12  C   UNL     1       1.267   9.987  19.369  0.00  0.00    +0.000 C 
ATOM     13  N   UNL     1       1.789   8.619  19.244  0.00  0.00    +0.000 N 
ATOM     14  C   UNL     1       2.237   8.156  18.032  0.00  0.00    +0.000 C 
ATOM     15  O   UNL     1       2.125   8.865  17.039  0.00  0.00    +0.000 OA
ATOM     16  C   UNL     1       1.698   7.788  20.441  0.00  0.00    +0.000 C 
ATOM     17  C   UNL     1       0.253   7.788  20.944  0.00  0.00    +0.000 C 
BRANCH  10  19
ATOM     18  C   UNL     1      -0.158   9.638  23.668  0.00  0.00    +0.000 C 
ATOM     19  C   UNL     1       0.471   9.871  22.295  0.00  0.00    +0.000 C 
ENDBRANCH  10  19
ENDBRANCH   1  14
BRANCH   7  20
ATOM     20  O   UNL     1       7.686   7.614  17.070  0.00  0.00    +0.000 OA
ATOM     21  C   UNL     1       8.094   8.676  17.856  0.00  0.00    +0.000 C 
ENDBRANCH   7  20
BRANCH   3  22
ATOM     22  C   UNL     1       2.900   3.094  17.524  0.00  0.00    +0.000 C 
BRANCH  22  23
ATOM     23  C   UNL     1       2.997   2.274  18.865  0.00  0.00    +0.000 C 
ATOM     24  C   UNL     1       3.650   2.995  20.083  0.00  0.00    +0.000 C 
ATOM     25  C   UNL     1       2.782   4.149  20.633  0.00  0.00    +0.000 C 
ATOM     26  C   UNL     1       1.362   3.670  20.986  0.00  0.00    +0.000 C 
ATOM     27  C   UNL     1       0.707   2.978  19.786  0.00  0.00    +0.000 C 
ATOM     28  C   UNL     1       1.585   1.806  19.315  0.00  0.00    +0.000 C 
ENDBRANCH  22  23
ENDBRANCH   3  22
TORSDOF 5
ENDMDL
MODEL 2
REMARK VINA RESULT:      -7.6      1.629      2.322
REMARK  Name = 
REMARK  7 active torsions:
REMARK  status: ('A' for Active; 'I' for Inactive)
REMARK    1  A    between atoms: C_1  and  C_2
REMARK    2  A    between atoms: C_2  and  N_3
REMARK    3  A    between atoms: C_7  and  C_9
REMARK    4  A    between atoms: N_11  and  C_12
REMARK    5  A    between atoms: C_12  and  C_13
REMARK    6  A    between atoms: C_22  and  O_23
REMARK    7  A    between atoms: O_23  and  C_24
REMARK                            x       y       z     vdW  Elec       q    Type
REMARK                         _______ _______ _______ _____ _____    ______ ____
ROOT
ATOM      1  C   UNL     1       2.476   7.445  18.900  0.00  0.00    +0.000 A 
ATOM      2  C   UNL     1       2.060   6.703  20.024  0.00  0.00    +0.000 A 
ATOM      3  N   UNL     1       2.762   5.549  20.116  0.00  0.00    +0.000 N 
ATOM      4  C   UNL     1       3.649   5.580  19.086  0.00  0.00    +0.000 A 
ATOM      5  C   UNL     1       4.613   4.628  18.756  0.00  0.00    +0.000 A 
ATOM      6  C   UNL     1       5.442   4.867  17.642  0.00  0.00    +0.000 A 
ATOM      7  C   UNL     1       5.316   6.039  16.866  0.00  0.00    +0.000 A 
ATOM      8  C   UNL     1       4.327   6.990  17.215  0.00  0.00    +0.000 A 
ATOM      9  C   UNL     1       3.512   6.726  18.337  0.00  0.00    +0.000 A 
ENDROOT
BRANCH   1  14
ATOM     10  N   UNL     1      -0.904  11.034  20.314  0.00  0.00    +0.000 NA
ATOM     11  C   UNL     1      -0.573  11.177  18.876  0.00  0.00    +0.000 C 
ATOM     12  C   UNL     1       0.937  10.986  18.622  0.00  0.00    +0.000 C 
ATOM     13  N   UNL     1       1.358   9.697  19.188  0.00  0.00    +0.000 N 
ATOM     14  C   UNL     1       1.960   8.754  18.394  0.00  0.00    +0.000 C 
ATOM     15  O   UNL     1       2.073   8.963  17.193  0.00  0.00    +0.000 OA
ATOM     16  C   UNL     1       1.003   9.467  20.585  0.00  0.00    +0.000 C 
ATOM     17  C   UNL     1      -0.500   9.687  20.765  0.00  0.00    +0.000 C 
BRANCH  10  19
ATOM     18  C   UNL     1      -0.847  12.183  22.557  0.00  0.00    +0.000 C 
ATOM     19  C   UNL     1      -0.338  12.149  21.117  0.00  0.00    +0.000 C 
ENDBRANCH  10  19
ENDBRANCH   1  14
BRANCH   7  20
ATOM     20  O   UNL     1       6.163   6.190  15.810  0.00  0.00    +0.000 OA
ATOM     21  C   UNL     1       6.653   5.207  14.971  0.00  0.00    +0.000 C 
ENDBRANCH   7  20
BRANCH   3  22
ATOM     22  C   UNL     1       2.660   4.471  21.130  0.00  0.00    +0.000 C 
BRANCH  22  23
ATOM     23  C   UNL     1       1.527   3.394  20.944  0.00  0.00    +0.000 C 
ATOM     24  C   UNL     1       0.525   3.624  19.772  0.00  0.00    +0.000 C 
ATOM     25  C   UNL     1       1.178   3.449  18.382  0.00  0.00    +0.000 C 
ATOM     26  C   UNL     1       1.863   2.077  18.247  0.00  0.00    +0.000 C 
ATOM     27  C   UNL     1       2.863   1.853  19.385  0.00  0.00    +0.000 C 
ATOM     28  C   UNL     1       2.150   1.984  20.742  0.00  0.00    +0.000 C 
ENDBRANCH  22  23
ENDBRANCH   3  22
TORSDOF 5
ENDMDL
MODEL 3
REMARK VINA RESULT:      -7.5      2.245      4.892
REMARK  Name = 
REMARK  7 active torsions:
REMARK  status: ('A' for Active; 'I' for Inactive)
REMARK    1  A    between atoms: C_1  and  C_2
REMARK    2  A    between atoms: C_2  and  N_3
REMARK    3  A    between atoms: C_7  and  C_9
REMARK    4  A    between atoms: N_11  and  C_12
REMARK    5  A    between atoms: C_12  and  C_13
REMARK    6  A    between atoms: C_22  and  O_23
REMARK    7  A    between atoms: O_23  and  C_24
REMARK                            x       y       z     vdW  Elec       q    Type
REMARK                         _______ _______ _______ _____ _____    ______ ____
ROOT
ATOM      1  C   UNL     1       2.536   7.196  18.980  0.00  0.00    +0.000 A 
ATOM      2  C   UNL     1       3.348   7.561  17.886  0.00  0.00    +0.000 A 
ATOM      3  N   UNL     1       3.884   6.461  17.307  0.00  0.00    +0.000 N 
ATOM      4  C   UNL     1       3.381   5.404  17.999  0.00  0.00    +0.000 A 
ATOM      5  C   UNL     1       3.614   4.047  17.780  0.00  0.00    +0.000 A 
ATOM      6  C   UNL     1       2.977   3.110  18.617  0.00  0.00    +0.000 A 
ATOM      7  C   UNL     1       2.115   3.517  19.658  0.00  0.00    +0.000 A 
ATOM      8  C   UNL     1       1.896   4.900  19.867  0.00  0.00    +0.000 A 
ATOM      9  C   UNL     1       2.545   5.816  19.012  0.00  0.00    +0.000 A 
ENDROOT
BRANCH   1  14
ATOM     10  N   UNL     1       0.931  12.062  19.228  0.00  0.00    +0.000 NA
ATOM     11  C   UNL     1       0.907  11.443  20.574  0.00  0.00    +0.000 C 
ATOM     12  C   UNL     1       0.360  10.001  20.524  0.00  0.00    +0.000 C 
ATOM     13  N   UNL     1       1.136   9.228  19.545  0.00  0.00    +0.000 N 
ATOM     14  C   UNL     1       1.778   8.076  19.923  0.00  0.00    +0.000 C 
ATOM     15  O   UNL     1       1.764   7.738  21.100  0.00  0.00    +0.000 OA
ATOM     16  C   UNL     1       1.254   9.817  18.214  0.00  0.00    +0.000 C 
ATOM     17  C   UNL     1       1.787  11.246  18.343  0.00  0.00    +0.000 C 
BRANCH  10  19
ATOM     18  C   UNL     1      -1.311  13.134  19.650  0.00  0.00    +0.000 C 
ATOM     19  C   UNL     1      -0.442  12.298  18.711  0.00  0.00    +0.000 C 
ENDBRANCH  10  19
ENDBRANCH   1  14
BRANCH   7  20
ATOM     20  O   UNL     1       1.537   2.543  20.415  0.00  0.00    +0.000 OA
ATOM     21  C   UNL     1       1.404   2.506  21.790  0.00  0.00    +0.000 C 
ENDBRANCH   7  20
BRANCH   3  22
ATOM     22  C   UNL     1       4.793   6.369  16.139  0.00  0.00    +0.000 C 
BRANCH  22  23
ATOM     23  C   UNL     1       6.304   6.758  16.352  0.00  0.00    +0.000 C 
ATOM     24  C   UNL     1       6.774   6.967  17.823  0.00  0.00    +0.000 C 
ATOM     25  C   UNL     1       6.804   5.653  18.636  0.00  0.00    +0.000 C 
ATOM     26  C   UNL     1       7.660   4.578  17.942  0.00  0.00    +0.000 C 
ATOM     27  C   UNL     1       7.190   4.353  16.502  0.00  0.00    +0.000 C 
ATOM     28  C   UNL     1       7.232   5.681  15.724  0.00  0.00    +0.000 C 
ENDBRANCH  22  23
ENDBRANCH   3  22
TORSDOF 5
ENDMDL
MODEL 4
REMARK VINA RESULT:      -7.0      2.119      6.382
REMARK  Name = 
REMARK  7 active torsions:
REMARK  status: ('A' for Active; 'I' for Inactive)
REMARK    1  A    between atoms: C_1  and  C_2
REMARK    2  A    between atoms: C_2  and  N_3
REMARK    3  A    between atoms: C_7  and  C_9
REMARK    4  A    between atoms: N_11  and  C_12
REMARK    5  A    between atoms: C_12  and  C_13
REMARK    6  A    between atoms: C_22  and  O_23
REMARK    7  A    between atoms: O_23  and  C_24
REMARK                            x       y       z     vdW  Elec       q    Type
REMARK                         _______ _______ _______ _____ _____    ______ ____
ROOT
ATOM      1  C   UNL     1       4.103   6.366  18.307  0.00  0.00    +0.000 A 
ATOM      2  C   UNL     1       4.004   5.276  19.195  0.00  0.00    +0.000 A 
ATOM      3  N   UNL     1       3.013   5.486  20.094  0.00  0.00    +0.000 N 
ATOM      4  C   UNL     1       2.458   6.678  19.751  0.00  0.00    +0.000 A 
ATOM      5  C   UNL     1       1.385   7.331  20.358  0.00  0.00    +0.000 A 
ATOM      6  C   UNL     1       0.962   8.566  19.829  0.00  0.00    +0.000 A 
ATOM      7  C   UNL     1       1.594   9.145  18.708  0.00  0.00    +0.000 A 
ATOM      8  C   UNL     1       2.685   8.468  18.110  0.00  0.00    +0.000 A 
ATOM      9  C   UNL     1       3.086   7.232  18.659  0.00  0.00    +0.000 A 
ENDROOT
BRANCH   1  14
ATOM     10  N   UNL     1       6.358   3.606  14.619  0.00  0.00    +0.000 NA
ATOM     11  C   UNL     1       7.082   4.883  14.820  0.00  0.00    +0.000 C 
ATOM     12  C   UNL     1       6.105   6.063  15.008  0.00  0.00    +0.000 C 
ATOM     13  N   UNL     1       5.175   5.746  16.100  0.00  0.00    +0.000 N 
ATOM     14  C   UNL     1       5.067   6.579  17.184  0.00  0.00    +0.000 C 
ATOM     15  O   UNL     1       5.810   7.549  17.272  0.00  0.00    +0.000 OA
ATOM     16  C   UNL     1       4.477   4.467  15.994  0.00  0.00    +0.000 C 
ATOM     17  C   UNL     1       5.504   3.350  15.796  0.00  0.00    +0.000 C 
BRANCH  10  19
ATOM     18  C   UNL     1       6.566   3.485  12.110  0.00  0.00    +0.000 C 
ATOM     19  C   UNL     1       5.638   3.586  13.319  0.00  0.00    +0.000 C 
ENDBRANCH  10  19
ENDBRANCH   1  14
BRANCH   7  20
ATOM     20  O   UNL     1       1.114  10.339  18.260  0.00  0.00    +0.000 OA
ATOM     21  C   UNL     1       0.700  11.421  19.014  0.00  0.00    +0.000 C 
ENDBRANCH   7  20
BRANCH   3  22
ATOM     22  C   UNL     1       2.559   4.614  21.205  0.00  0.00    +0.000 C 
BRANCH  22  23
ATOM     23  C   UNL     1       1.453   3.539  20.887  0.00  0.00    +0.000 C 
ATOM     24  C   UNL     1       0.587   3.777  19.614  0.00  0.00    +0.000 C 
ATOM     25  C   UNL     1       1.389   3.611  18.303  0.00  0.00    +0.000 C 
ATOM     26  C   UNL     1       2.084   2.239  18.236  0.00  0.00    +0.000 C 
ATOM     27  C   UNL     1       2.953   2.007  19.475  0.00  0.00    +0.000 C 
ATOM     28  C   UNL     1       2.094   2.130  20.746  0.00  0.00    +0.000 C 
ENDBRANCH  22  23
ENDBRANCH   3  22
TORSDOF 5
ENDMDL
MODEL 5
REMARK VINA RESULT:      -6.8      1.478      1.941
REMARK  Name = 
REMARK  7 active torsions:
REMARK  status: ('A' for Active; 'I' for Inactive)
REMARK    1  A    between atoms: C_1  and  C_2
REMARK    2  A    between atoms: C_2  and  N_3
REMARK    3  A    between atoms: C_7  and  C_9
REMARK    4  A    between atoms: N_11  and  C_12
REMARK    5  A    between atoms: C_12  and  C_13
REMARK    6  A    between atoms: C_22  and  O_23
REMARK    7  A    between atoms: O_23  and  C_24
REMARK                            x       y       z     vdW  Elec       q    Type
REMARK                         _______ _______ _______ _____ _____    ______ ____
ROOT
ATOM      1  C   UNL     1       3.042   6.661  18.722  0.00  0.00    +0.000 A 
ATOM      2  C   UNL     1       2.896   5.814  19.839  0.00  0.00    +0.000 A 
ATOM      3  N   UNL     1       3.682   4.719  19.709  0.00  0.00    +0.000 N 
ATOM      4  C   UNL     1       4.355   4.892  18.540  0.00  0.00    +0.000 A 
ATOM      5  C   UNL     1       5.305   4.048  17.966  0.00  0.00    +0.000 A 
ATOM      6  C   UNL     1       5.892   4.429  16.743  0.00  0.00    +0.000 A 
ATOM      7  C   UNL     1       5.542   5.635  16.100  0.00  0.00    +0.000 A 
ATOM      8  C   UNL     1       4.572   6.475  16.698  0.00  0.00    +0.000 A 
ATOM      9  C   UNL     1       4.002   6.071  17.924  0.00  0.00    +0.000 A 
ENDROOT
BRANCH   1  14
ATOM     10  N   UNL     1      -0.446   9.727  20.900  0.00  0.00    +0.000 NA
ATOM     11  C   UNL     1      -0.311  10.044  19.458  0.00  0.00    +0.000 C 
ATOM     12  C   UNL     1       1.166  10.035  19.013  0.00  0.00    +0.000 C 
ATOM     13  N   UNL     1       1.769   8.748  19.382  0.00  0.00    +0.000 N 
ATOM     14  C   UNL     1       2.351   7.954  18.426  0.00  0.00    +0.000 C 
ATOM     15  O   UNL     1       2.293   8.291  17.249  0.00  0.00    +0.000 OA
ATOM     16  C   UNL     1       1.614   8.346  20.777  0.00  0.00    +0.000 C 
ATOM     17  C   UNL     1       0.131   8.391  21.151  0.00  0.00    +0.000 C 
BRANCH  10  19
ATOM     18  C   UNL     1      -0.957  11.682  22.406  0.00  0.00    +0.000 C 
ATOM     19  C   UNL     1       0.113  10.810  21.751  0.00  0.00    +0.000 C 
ENDBRANCH  10  19
ENDBRANCH   1  14
BRANCH   7  20
ATOM     20  O   UNL     1       6.164   5.926  14.923  0.00  0.00    +0.000 OA
ATOM     21  C   UNL     1       6.989   5.106  14.177  0.00  0.00    +0.000 C 
ENDBRANCH   7  20
BRANCH   3  22
ATOM     22  C   UNL     1       3.846   3.571  20.634  0.00  0.00    +0.000 C 
BRANCH  22  23
ATOM     23  C   UNL     1       2.738   2.453  20.619  0.00  0.00    +0.000 C 
ATOM     24  C   UNL     1       1.295   2.888  21.018  0.00  0.00    +0.000 C 
ATOM     25  C   UNL     1       0.638   3.815  19.970  0.00  0.00    +0.000 C 
ATOM     26  C   UNL     1       0.643   3.178  18.569  0.00  0.00    +0.000 C 
ATOM     27  C   UNL     1       2.061   2.765  18.163  0.00  0.00    +0.000 C 
ATOM     28  C   UNL     1       2.646   1.802  19.211  0.00  0.00    +0.000 C 
ENDBRANCH  22  23
ENDBRANCH   3  22
TORSDOF 5
ENDMDL
MODEL 6
REMARK VINA RESULT:      -6.7      0.878      1.265
REMARK  Name = 
REMARK  7 active torsions:
REMARK  status: ('A' for Active; 'I' for Inactive)
REMARK    1  A    between atoms: C_1  and  C_2
REMARK    2  A    between atoms: C_2  and  N_3
REMARK    3  A    between atoms: C_7  and  C_9
REMARK    4  A    between atoms: N_11  and  C_12
REMARK    5  A    between atoms: C_12  and  C_13
REMARK    6  A    between atoms: C_22  and  O_23
REMARK    7  A    between atoms: O_23  and  C_24
REMARK                            x       y       z     vdW  Elec       q    Type
REMARK                         _______ _______ _______ _____ _____    ______ ____
ROOT
ATOM      1  C   UNL     1       2.487   7.304  17.972  0.00  0.00    +0.000 A 
ATOM      2  C   UNL     1       1.698   6.143  18.112  0.00  0.00    +0.000 A 
ATOM      3  N   UNL     1       2.442   5.036  17.880  0.00  0.00    +0.000 N 
ATOM      4  C   UNL     1       3.702   5.487  17.642  0.00  0.00    +0.000 A 
ATOM      5  C   UNL     1       4.844   4.735  17.369  0.00  0.00    +0.000 A 
ATOM      6  C   UNL     1       6.062   5.412  17.161  0.00  0.00    +0.000 A 
ATOM      7  C   UNL     1       6.145   6.819  17.226  0.00  0.00    +0.000 A 
ATOM      8  C   UNL     1       4.972   7.564  17.500  0.00  0.00    +0.000 A 
ATOM      9  C   UNL     1       3.767   6.860  17.707  0.00  0.00    +0.000 A 
ENDROOT
BRANCH   1  14
ATOM     10  N   UNL     1      -0.634  10.151  20.883  0.00  0.00    +0.000 NA
ATOM     11  C   UNL     1      -0.269  10.886  19.648  0.00  0.00    +0.000 C 
ATOM     12  C   UNL     1       1.227  10.712  19.308  0.00  0.00    +0.000 C 
ATOM     13  N   UNL     1       1.539   9.278  19.242  0.00  0.00    +0.000 N 
ATOM     14  C   UNL     1       2.081   8.737  18.103  0.00  0.00    +0.000 C 
ATOM     15  O   UNL     1       2.230   9.445  17.114  0.00  0.00    +0.000 OA
ATOM     16  C   UNL     1       1.144   8.484  20.402  0.00  0.00    +0.000 C 
ATOM     17  C   UNL     1      -0.341   8.717  20.688  0.00  0.00    +0.000 C 
BRANCH  10  19
ATOM     18  C   UNL     1      -0.277   9.980  23.372  0.00  0.00    +0.000 C 
ATOM     19  C   UNL     1       0.002  10.753  22.084  0.00  0.00    +0.000 C 
ENDBRANCH  10  19
ENDBRANCH   1  14
BRANCH   7  20
ATOM     20  O   UNL     1       7.365   7.389  17.018  0.00  0.00    +0.000 OA
ATOM     21  C   UNL     1       7.974   8.381  17.764  0.00  0.00    +0.000 C 
ENDBRANCH   7  20
BRANCH   3  22
ATOM     22  C   UNL     1       2.031   3.611  17.914  0.00  0.00    +0.000 C 
BRANCH  22  23
ATOM     23  C   UNL     1       1.007   3.169  19.026  0.00  0.00    +0.000 C 
ATOM     24  C   UNL     1       1.272   1.799  19.720  0.00  0.00    +0.000 C 
ATOM     25  C   UNL     1       2.528   1.815  20.620  0.00  0.00    +0.000 C 
ATOM     26  C   UNL     1       2.462   2.945  21.663  0.00  0.00    +0.000 C 
ATOM     27  C   UNL     1       2.221   4.298  20.986  0.00  0.00    +0.000 C 
ATOM     28  C   UNL     1       0.932   4.242  20.148  0.00  0.00    +0.000 C 
ENDBRANCH  22  23
ENDBRANCH   3  22
TORSDOF 5
ENDMDL
MODEL 7
REMARK VINA RESULT:      -6.4      3.800      6.844
REMARK  Name = 
REMARK  7 active torsions:
REMARK  status: ('A' for Active; 'I' for Inactive)
REMARK    1  A    between atoms: C_1  and  C_2
REMARK    2  A    between atoms: C_2  and  N_3
REMARK    3  A    between atoms: C_7  and  C_9
REMARK    4  A    between atoms: N_11  and  C_12
REMARK    5  A    between atoms: C_12  and  C_13
REMARK    6  A    between atoms: C_22  and  O_23
REMARK    7  A    between atoms: O_23  and  C_24
REMARK                            x       y       z     vdW  Elec       q    Type
REMARK                         _______ _______ _______ _____ _____    ______ ____
ROOT
ATOM      1  C   UNL     1       0.901  11.125  19.360  0.00  0.00    +0.000 A 
ATOM      2  C   UNL     1       1.630  10.042  18.828  0.00  0.00    +0.000 A 
ATOM      3  N   UNL     1       1.556   8.971  19.653  0.00  0.00    +0.000 N 
ATOM      4  C   UNL     1       0.748   9.356  20.677  0.00  0.00    +0.000 A 
ATOM      5  C   UNL     1       0.342   8.602  21.778  0.00  0.00    +0.000 A 
ATOM      6  C   UNL     1      -0.513   9.200  22.724  0.00  0.00    +0.000 A 
ATOM      7  C   UNL     1      -0.963  10.530  22.577  0.00  0.00    +0.000 A 
ATOM      8  C   UNL     1      -0.536  11.279  21.454  0.00  0.00    +0.000 A 
ATOM      9  C   UNL     1       0.319  10.654  20.521  0.00  0.00    +0.000 A 
ENDROOT
BRANCH   1  14
ATOM     10  N   UNL     1       2.253  15.922  20.572  0.00  0.00    +0.000 NA
ATOM     11  C   UNL     1       1.146  15.933  19.586  0.00  0.00    +0.000 C 
ATOM     12  C   UNL     1       1.357  14.869  18.488  0.00  0.00    +0.000 C 
ATOM     13  N   UNL     1       1.554  13.559  19.123  0.00  0.00    +0.000 N 
ATOM     14  C   UNL     1       0.733  12.506  18.810  0.00  0.00    +0.000 C 
ATOM     15  O   UNL     1      -0.215  12.686  18.056  0.00  0.00    +0.000 OA
ATOM     16  C   UNL     1       2.587  13.497  20.153  0.00  0.00    +0.000 C 
ATOM     17  C   UNL     1       2.323  14.585  21.196  0.00  0.00    +0.000 C 
BRANCH  10  19
ATOM     18  C   UNL     1       4.622  16.672  20.995  0.00  0.00    +0.000 C 
ATOM     19  C   UNL     1       3.528  16.388  19.967  0.00  0.00    +0.000 C 
ENDBRANCH  10  19
ENDBRANCH   1  14
BRANCH   7  20
ATOM     20  O   UNL     1      -1.793  11.025  23.537  0.00  0.00    +0.000 OA
ATOM     21  C   UNL     1      -2.666  12.092  23.433  0.00  0.00    +0.000 C 
ENDBRANCH   7  20
BRANCH   3  22
ATOM     22  C   UNL     1       2.165   7.627  19.497  0.00  0.00    +0.000 C 
BRANCH  22  23
ATOM     23  C   UNL     1       2.394   7.091  18.035  0.00  0.00    +0.000 C 
ATOM     24  C   UNL     1       3.859   7.108  17.502  0.00  0.00    +0.000 C 
ATOM     25  C   UNL     1       4.770   6.086  18.219  0.00  0.00    +0.000 C 
ATOM     26  C   UNL     1       4.186   4.663  18.152  0.00  0.00    +0.000 C 
ATOM     27  C   UNL     1       2.754   4.636  18.693  0.00  0.00    +0.000 C 
ATOM     28  C   UNL     1       1.879   5.630  17.909  0.00  0.00    +0.000 C 
ENDBRANCH  22  23
ENDBRANCH   3  22
TORSDOF 5
ENDMDL
MODEL 8
REMARK VINA RESULT:      -6.4      8.345     10.320
REMARK  Name = 
REMARK  7 active torsions:
REMARK  status: ('A' for Active; 'I' for Inactive)
REMARK    1  A    between atoms: C_1  and  C_2
REMARK    2  A    between atoms: C_2  and  N_3
REMARK    3  A    between atoms: C_7  and  C_9
REMARK    4  A    between atoms: N_11  and  C_12
REMARK    5  A    between atoms: C_12  and  C_13
REMARK    6  A    between atoms: C_22  and  O_23
REMARK    7  A    between atoms: O_23  and  C_24
REMARK                            x       y       z     vdW  Elec       q    Type
REMARK                         _______ _______ _______ _____ _____    ______ ____
ROOT
ATOM      1  C   UNL     1       8.308  15.422  21.292  0.00  0.00    +0.000 A 
ATOM      2  C   UNL     1       9.658  15.089  21.056  0.00  0.00    +0.000 A 
ATOM      3  N   UNL     1       9.806  14.566  19.816  0.00  0.00    +0.000 N 
ATOM      4  C   UNL     1       8.569  14.611  19.253  0.00  0.00    +0.000 A 
ATOM      5  C   UNL     1       8.196  14.206  17.971  0.00  0.00    +0.000 A 
ATOM      6  C   UNL     1       6.849  14.351  17.585  0.00  0.00    +0.000 A 
ATOM      7  C   UNL     1       5.884  14.895  18.459  0.00  0.00    +0.000 A 
ATOM      8  C   UNL     1       6.283  15.296  19.758  0.00  0.00    +0.000 A 
ATOM      9  C   UNL     1       7.639  15.141  20.117  0.00  0.00    +0.000 A 
ENDROOT
BRANCH   1  14
ATOM     10  N   UNL     1       5.119  13.916  25.017  0.00  0.00    +0.000 NA
ATOM     11  C   UNL     1       5.203  15.395  24.979  0.00  0.00    +0.000 C 
ATOM     12  C   UNL     1       6.655  15.873  24.764  0.00  0.00    +0.000 C 
ATOM     13  N   UNL     1       7.196  15.231  23.558  0.00  0.00    +0.000 N 
ATOM     14  C   UNL     1       7.683  15.992  22.525  0.00  0.00    +0.000 C 
ATOM     15  O   UNL     1       7.589  17.212  22.582  0.00  0.00    +0.000 OA
ATOM     16  C   UNL     1       7.084  13.776  23.504  0.00  0.00    +0.000 C 
ATOM     17  C   UNL     1       5.626  13.376  23.739  0.00  0.00    +0.000 C 
BRANCH  10  19
ATOM     18  C   UNL     1       5.762  11.836  26.288  0.00  0.00    +0.000 C 
ATOM     19  C   UNL     1       5.782  13.362  26.226  0.00  0.00    +0.000 C 
ENDBRANCH  10  19
ENDBRANCH   1  14
BRANCH   7  20
ATOM     20  O   UNL     1       4.607  15.004  18.000  0.00  0.00    +0.000 OA
ATOM     21  C   UNL     1       3.686  15.994  18.287  0.00  0.00    +0.000 C 
ENDBRANCH   7  20
BRANCH   3  22
ATOM     22  C   UNL     1      11.038  14.079  19.148  0.00  0.00    +0.000 C 
BRANCH  22  23
ATOM     23  C   UNL     1      11.596  12.670  19.576  0.00  0.00    +0.000 C 
ATOM     24  C   UNL     1      10.806  11.909  20.683  0.00  0.00    +0.000 C 
ATOM     25  C   UNL     1       9.420  11.421  20.203  0.00  0.00    +0.000 C 
ATOM     26  C   UNL     1       9.532  10.563  18.931  0.00  0.00    +0.000 C 
ATOM     27  C   UNL     1      10.291  11.313  17.832  0.00  0.00    +0.000 C 
ATOM     28  C   UNL     1      11.681  11.726  18.344  0.00  0.00    +0.000 C 
ENDBRANCH  22  23
ENDBRANCH   3  22
TORSDOF 5
ENDMDL
MODEL 9
REMARK VINA RESULT:      -6.4      2.626      6.619
REMARK  Name = 
REMARK  7 active torsions:
REMARK  status: ('A' for Active; 'I' for Inactive)
REMARK    1  A    between atoms: C_1  and  C_2
REMARK    2  A    between atoms: C_2  and  N_3
REMARK    3  A    between atoms: C_7  and  C_9
REMARK    4  A    between atoms: N_11  and  C_12
REMARK    5  A    between atoms: C_12  and  C_13
REMARK    6  A    between atoms: C_22  and  O_23
REMARK    7  A    between atoms: O_23  and  C_24
REMARK                            x       y       z     vdW  Elec       q    Type
REMARK                         _______ _______ _______ _____ _____    ______ ____
ROOT
ATOM      1  C   UNL     1       5.491   5.427  17.419  0.00  0.00    +0.000 A 
ATOM      2  C   UNL     1       5.495   4.349  18.328  0.00  0.00    +0.000 A 
ATOM      3  N   UNL     1       4.537   4.519  19.269  0.00  0.00    +0.000 N 
ATOM      4  C   UNL     1       3.900   5.672  18.934  0.00  0.00    +0.000 A 
ATOM      5  C   UNL     1       2.820   6.274  19.580  0.00  0.00    +0.000 A 
ATOM      6  C   UNL     1       2.303   7.473  19.053  0.00  0.00    +0.000 A 
ATOM      7  C   UNL     1       2.849   8.067  17.895  0.00  0.00    +0.000 A 
ATOM      8  C   UNL     1       3.948   7.442  17.256  0.00  0.00    +0.000 A 
ATOM      9  C   UNL     1       4.444   6.240  17.805  0.00  0.00    +0.000 A 
ENDROOT
BRANCH   1  14
ATOM     10  N   UNL     1       6.409   3.394  12.800  0.00  0.00    +0.000 NA
ATOM     11  C   UNL     1       7.536   4.264  13.212  0.00  0.00    +0.000 C 
ATOM     12  C   UNL     1       7.034   5.566  13.871  0.00  0.00    +0.000 C 
ATOM     13  N   UNL     1       6.130   5.224  14.978  0.00  0.00    +0.000 N 
ATOM     14  C   UNL     1       6.389   5.674  16.249  0.00  0.00    +0.000 C 
ATOM     15  O   UNL     1       7.421   6.296  16.468  0.00  0.00    +0.000 OA
ATOM     16  C   UNL     1       5.034   4.316  14.652  0.00  0.00    +0.000 C 
ATOM     17  C   UNL     1       5.604   3.059  13.992  0.00  0.00    +0.000 C 
BRANCH  10  19
ATOM     18  C   UNL     1       4.382   3.205  11.313  0.00  0.00    +0.000 C 
ATOM     19  C   UNL     1       5.635   3.996  11.683  0.00  0.00    +0.000 C 
ENDBRANCH  10  19
ENDBRANCH   1  14
BRANCH   7  20
ATOM     20  O   UNL     1       2.282   9.224  17.452  0.00  0.00    +0.000 OA
ATOM     21  C   UNL     1       1.230   9.921  18.016  0.00  0.00    +0.000 C 
ENDBRANCH   7  20
BRANCH   3  22
ATOM     22  C   UNL     1       4.185   3.643  20.413  0.00  0.00    +0.000 C 
BRANCH  22  23
ATOM     23  C   UNL     1       3.394   2.316  20.104  0.00  0.00    +0.000 C 
ATOM     24  C   UNL     1       2.009   2.147  20.799  0.00  0.00    +0.000 C 
ATOM     25  C   UNL     1       0.944   3.128  20.260  0.00  0.00    +0.000 C 
ATOM     26  C   UNL     1       0.798   3.022  18.732  0.00  0.00    +0.000 C 
ATOM     27  C   UNL     1       2.153   3.207  18.041  0.00  0.00    +0.000 C 
ATOM     28  C   UNL     1       3.158   2.172  18.575  0.00  0.00    +0.000 C 
ENDBRANCH  22  23
ENDBRANCH   3  22
TORSDOF 5
ENDMDL
