MODEL 1
REMARK VINA RESULT:      -7.4      0.000      0.000
REMARK  Name = 
REMARK  7 active torsions:
REMARK  status: ('A' for Active; 'I' for Inactive)
REMARK    1  A    between atoms: C_2  and  C_3
REMARK    2  A    between atoms: C_3  and  N_4
REMARK    3  A    between atoms: C_5  and  C_7
REMARK    4  A    between atoms: N_16  and  C_17
REMARK    5  A    between atoms: C_17  and  C_18
REMARK    6  A    between atoms: C_18  and  O_19
REMARK    7  A    between atoms: O_19  and  C_20
REMARK                            x       y       z     vdW  Elec       q    Type
REMARK                         _______ _______ _______ _____ _____    ______ ____
ROOT
ATOM      1  O   UNL     1       1.164   2.010  18.505  0.00  0.00    +0.000 OA
ATOM      2  C   UNL     1       2.218   1.974  19.135  0.00  0.00    +0.000 C 
ATOM      3  N   UNL     1       2.339   2.402  20.441  0.00  0.00    +0.000 N 
ATOM      4  H   UNL     1       3.275   2.656  20.746  0.00  0.00    +0.000 HD
ENDROOT
BRANCH   2   5
ATOM      5  C   UNL     1       3.533   1.524  18.496  0.00  0.00    +0.000 C 
BRANCH   5   6
ATOM      6  N   UNL     1       4.417   2.658  18.288  0.00  0.00    +0.000 N 
ATOM      7  C   UNL     1       4.149   3.612  17.332  0.00  0.00    +0.000 C 
ATOM      8  O   UNL     1       3.183   3.548  16.579  0.00  0.00    +0.000 OA
ATOM      9  H   UNL     1       5.179   2.775  18.943  0.00  0.00    +0.000 HD
BRANCH   7  10
ATOM     10  C   UNL     1       5.085   4.767  17.239  0.00  0.00    +0.000 A 
ATOM     11  C   UNL     1       4.988   5.727  16.208  0.00  0.00    +0.000 A 
ATOM     12  C   UNL     1       5.859   6.825  16.177  0.00  0.00    +0.000 A 
ATOM     13  C   UNL     1       6.802   6.932  17.176  0.00  0.00    +0.000 A 
ATOM     14  C   UNL     1       6.897   6.000  18.183  0.00  0.00    +0.000 A 
ATOM     15  C   UNL     1       6.054   4.911  18.246  0.00  0.00    +0.000 A 
ATOM     16  O   UNL     1       7.890   6.294  19.066  0.00  0.00    +0.000 OA
ATOM     17  C   UNL     1       8.422   7.504  18.489  0.00  0.00    +0.000 C 
ATOM     18  O   UNL     1       7.715   7.932  17.305  0.00  0.00    +0.000 OA
ENDBRANCH   7  10
ENDBRANCH   5   6
ENDBRANCH   2   5
BRANCH   3  19
ATOM     19  C   UNL     1       1.202   2.922  21.187  0.00  0.00    +0.000 C 
BRANCH  19  20
ATOM     20  C   UNL     1       0.818   4.327  20.720  0.00  0.00    +0.000 C 
BRANCH  20  21
ATOM     21  O   UNL     1       1.878   5.247  20.990  0.00  0.00    +0.000 OA
BRANCH  21  22
ATOM     22  C   UNL     1       1.944   6.349  20.177  0.00  0.00    +0.000 A 
ATOM     23  C   UNL     1       2.424   6.367  18.864  0.00  0.00    +0.000 A 
ATOM     24  C   UNL     1       2.434   7.558  18.130  0.00  0.00    +0.000 A 
ATOM     25  C   UNL     1       1.965   8.736  18.707  0.00  0.00    +0.000 A 
ATOM     26 CL   UNL     1       1.973  10.195  17.799  0.00  0.00    +0.000 Cl
ATOM     27  C   UNL     1       1.489   8.732  20.016  0.00  0.00    +0.000 A 
ATOM     28  C   UNL     1       1.481   7.539  20.747  0.00  0.00    +0.000 A 
ENDBRANCH  21  22
ENDBRANCH  20  21
ENDBRANCH  19  20
ENDBRANCH   3  19
TORSDOF 7
ENDMDL
MODEL 2
REMARK VINA RESULT:      -7.3      4.619      8.206
REMARK  Name = 
REMARK  7 active torsions:
REMARK  status: ('A' for Active; 'I' for Inactive)
REMARK    1  A    between atoms: C_2  and  C_3
REMARK    2  A    between atoms: C_3  and  N_4
REMARK    3  A    between atoms: C_5  and  C_7
REMARK    4  A    between atoms: N_16  and  C_17
REMARK    5  A    between atoms: C_17  and  C_18
REMARK    6  A    between atoms: C_18  and  O_19
REMARK    7  A    between atoms: O_19  and  C_20
REMARK                            x       y       z     vdW  Elec       q    Type
REMARK                         _______ _______ _______ _____ _____    ______ ____
ROOT
ATOM      1  O   UNL     1       7.327   7.906  16.903  0.00  0.00    +0.000 OA
ATOM      2  C   UNL     1       7.828   7.490  17.944  0.00  0.00    +0.000 C 
ATOM      3  N   UNL     1       8.560   8.280  18.807  0.00  0.00    +0.000 N 
ATOM      4  H   UNL     1       9.203   7.794  19.426  0.00  0.00    +0.000 HD
ENDROOT
BRANCH   2   5
ATOM      5  C   UNL     1       7.760   6.016  18.348  0.00  0.00    +0.000 C 
BRANCH   5   6
ATOM      6  N   UNL     1       6.403   5.646  18.712  0.00  0.00    +0.000 N 
ATOM      7  C   UNL     1       5.644   4.819  17.915  0.00  0.00    +0.000 C 
ATOM      8  O   UNL     1       6.044   4.378  16.842  0.00  0.00    +0.000 OA
ATOM      9  H   UNL     1       6.076   5.935  19.625  0.00  0.00    +0.000 HD
BRANCH   7  10
ATOM     10  C   UNL     1       4.288   4.452  18.408  0.00  0.00    +0.000 A 
ATOM     11  C   UNL     1       3.128   4.652  17.626  0.00  0.00    +0.000 A 
ATOM     12  C   UNL     1       1.873   4.254  18.105  0.00  0.00    +0.000 A 
ATOM     13  C   UNL     1       1.811   3.668  19.351  0.00  0.00    +0.000 A 
ATOM     14  C   UNL     1       2.938   3.470  20.113  0.00  0.00    +0.000 A 
ATOM     15  C   UNL     1       4.189   3.845  19.671  0.00  0.00    +0.000 A 
ATOM     16  O   UNL     1       2.658   2.876  21.305  0.00  0.00    +0.000 OA
ATOM     17  C   UNL     1       1.224   2.744  21.216  0.00  0.00    +0.000 C 
ATOM     18  O   UNL     1       0.683   3.217  19.963  0.00  0.00    +0.000 OA
ENDBRANCH   7  10
ENDBRANCH   5   6
ENDBRANCH   2   5
BRANCH   3  19
ATOM     19  C   UNL     1       8.782   9.696  18.549  0.00  0.00    +0.000 C 
BRANCH  19  20
ATOM     20  C   UNL     1       9.552  10.361  19.690  0.00  0.00    +0.000 C 
BRANCH  20  21
ATOM     21  O   UNL     1       9.141  11.722  19.840  0.00  0.00    +0.000 OA
BRANCH  21  22
ATOM     22  C   UNL     1       9.958  12.666  19.273  0.00  0.00    +0.000 A 
ATOM     23  C   UNL     1      11.313  12.854  19.563  0.00  0.00    +0.000 A 
ATOM     24  C   UNL     1      12.045  13.852  18.910  0.00  0.00    +0.000 A 
ATOM     25  C   UNL     1      11.424  14.666  17.966  0.00  0.00    +0.000 A 
ATOM     26 CL   UNL     1      12.330  15.885  17.163  0.00  0.00    +0.000 Cl
ATOM     27  C   UNL     1      10.073  14.493  17.673  0.00  0.00    +0.000 A 
ATOM     28  C   UNL     1       9.344  13.495  18.328  0.00  0.00    +0.000 A 
ENDBRANCH  21  22
ENDBRANCH  20  21
ENDBRANCH  19  20
ENDBRANCH   3  19
TORSDOF 7
ENDMDL
MODEL 3
REMARK VINA RESULT:      -7.2      3.925      7.702
REMARK  Name = 
REMARK  7 active torsions:
REMARK  status: ('A' for Active; 'I' for Inactive)
REMARK    1  A    between atoms: C_2  and  C_3
REMARK    2  A    between atoms: C_3  and  N_4
REMARK    3  A    between atoms: C_5  and  C_7
REMARK    4  A    between atoms: N_16  and  C_17
REMARK    5  A    between atoms: C_17  and  C_18
REMARK    6  A    between atoms: C_18  and  O_19
REMARK    7  A    between atoms: O_19  and  C_20
REMARK                            x       y       z     vdW  Elec       q    Type
REMARK                         _______ _______ _______ _____ _____    ______ ____
ROOT
ATOM      1  O   UNL     1       7.479   5.795  16.070  0.00  0.00    +0.000 OA
ATOM      2  C   UNL     1       6.567   6.388  16.641  0.00  0.00    +0.000 C 
ATOM      3  N   UNL     1       6.772   7.318  17.641  0.00  0.00    +0.000 N 
ATOM      4  H   UNL     1       5.990   7.482  18.269  0.00  0.00    +0.000 HD
ENDROOT
BRANCH   2   5
ATOM      5  C   UNL     1       5.095   6.088  16.355  0.00  0.00    +0.000 C 
BRANCH   5   6
ATOM      6  N   UNL     1       4.235   7.046  17.029  0.00  0.00    +0.000 N 
ATOM      7  C   UNL     1       3.180   6.638  17.814  0.00  0.00    +0.000 C 
ATOM      8  O   UNL     1       2.878   5.458  17.962  0.00  0.00    +0.000 OA
ATOM      9  H   UNL     1       4.506   8.019  16.984  0.00  0.00    +0.000 HD
BRANCH   7  10
ATOM     10  C   UNL     1       2.398   7.696  18.510  0.00  0.00    +0.000 A 
ATOM     11  C   UNL     1       1.892   8.824  17.826  0.00  0.00    +0.000 A 
ATOM     12  C   UNL     1       1.122   9.778  18.505  0.00  0.00    +0.000 A 
ATOM     13  C   UNL     1       0.882   9.580  19.847  0.00  0.00    +0.000 A 
ATOM     14  C   UNL     1       1.371   8.483  20.516  0.00  0.00    +0.000 A 
ATOM     15  C   UNL     1       2.127   7.522  19.878  0.00  0.00    +0.000 A 
ATOM     16  O   UNL     1       1.017   8.478  21.830  0.00  0.00    +0.000 OA
ATOM     17  C   UNL     1       0.268   9.707  21.918  0.00  0.00    +0.000 C 
ATOM     18  O   UNL     1       0.152  10.397  20.654  0.00  0.00    +0.000 OA
ENDBRANCH   7  10
ENDBRANCH   5   6
ENDBRANCH   2   5
BRANCH   3  19
ATOM     19  C   UNL     1       8.109   7.681  18.088  0.00  0.00    +0.000 C 
BRANCH  19  20
ATOM     20  C   UNL     1       8.295   9.199  18.128  0.00  0.00    +0.000 C 
BRANCH  20  21
ATOM     21  O   UNL     1       9.084   9.572  19.260  0.00  0.00    +0.000 OA
BRANCH  21  22
ATOM     22  C   UNL     1       9.677  10.807  19.203  0.00  0.00    +0.000 A 
ATOM     23  C   UNL     1      10.330  11.450  20.259  0.00  0.00    +0.000 A 
ATOM     24  C   UNL     1      10.904  12.712  20.074  0.00  0.00    +0.000 A 
ATOM     25  C   UNL     1      10.826  13.337  18.832  0.00  0.00    +0.000 A 
ATOM     26 CL   UNL     1      11.539  14.885  18.608  0.00  0.00    +0.000 Cl
ATOM     27  C   UNL     1      10.174  12.710  17.773  0.00  0.00    +0.000 A 
ATOM     28  C   UNL     1       9.600  11.448  17.962  0.00  0.00    +0.000 A 
ENDBRANCH  21  22
ENDBRANCH  20  21
ENDBRANCH  19  20
ENDBRANCH   3  19
TORSDOF 7
ENDMDL
MODEL 4
REMARK VINA RESULT:      -7.1      4.794      8.550
REMARK  Name = 
REMARK  7 active torsions:
REMARK  status: ('A' for Active; 'I' for Inactive)
REMARK    1  A    between atoms: C_2  and  C_3
REMARK    2  A    between atoms: C_3  and  N_4
REMARK    3  A    between atoms: C_5  and  C_7
REMARK    4  A    between atoms: N_16  and  C_17
REMARK    5  A    between atoms: C_17  and  C_18
REMARK    6  A    between atoms: C_18  and  O_19
REMARK    7  A    between atoms: O_19  and  C_20
REMARK                            x       y       z     vdW  Elec       q    Type
REMARK                         _______ _______ _______ _____ _____    ______ ____
ROOT
ATOM      1  O   UNL     1       8.276   6.934  18.905  0.00  0.00    +0.000 OA
ATOM      2  C   UNL     1       7.871   7.663  18.003  0.00  0.00    +0.000 C 
ATOM      3  N   UNL     1       8.175   9.007  17.914  0.00  0.00    +0.000 N 
ATOM      4  H   UNL     1       7.538   9.577  17.365  0.00  0.00    +0.000 HD
ENDROOT
BRANCH   2   5
ATOM      5  C   UNL     1       6.909   7.165  16.922  0.00  0.00    +0.000 C 
BRANCH   5   6
ATOM      6  N   UNL     1       5.876   6.326  17.502  0.00  0.00    +0.000 N 
ATOM      7  C   UNL     1       5.890   4.957  17.350  0.00  0.00    +0.000 C 
ATOM      8  O   UNL     1       6.743   4.370  16.692  0.00  0.00    +0.000 OA
ATOM      9  H   UNL     1       5.204   6.776  18.110  0.00  0.00    +0.000 HD
BRANCH   7  10
ATOM     10  C   UNL     1       4.819   4.183  18.035  0.00  0.00    +0.000 A 
ATOM     11  C   UNL     1       5.039   3.534  19.270  0.00  0.00    +0.000 A 
ATOM     12  C   UNL     1       3.995   2.851  19.908  0.00  0.00    +0.000 A 
ATOM     13  C   UNL     1       2.762   2.834  19.294  0.00  0.00    +0.000 A 
ATOM     14  C   UNL     1       2.543   3.466  18.092  0.00  0.00    +0.000 A 
ATOM     15  C   UNL     1       3.547   4.152  17.440  0.00  0.00    +0.000 A 
ATOM     16  O   UNL     1       1.260   3.330  17.662  0.00  0.00    +0.000 OA
ATOM     17  C   UNL     1       0.700   2.522  18.718  0.00  0.00    +0.000 C 
ATOM     18  O   UNL     1       1.642   2.229  19.774  0.00  0.00    +0.000 OA
ENDBRANCH   7  10
ENDBRANCH   5   6
ENDBRANCH   2   5
BRANCH   3  19
ATOM     19  C   UNL     1       9.027   9.666  18.894  0.00  0.00    +0.000 C 
BRANCH  19  20
ATOM     20  C   UNL     1       9.170  11.160  18.601  0.00  0.00    +0.000 C 
BRANCH  20  21
ATOM     21  O   UNL     1      10.219  11.382  17.655  0.00  0.00    +0.000 OA
BRANCH  21  22
ATOM     22  C   UNL     1      10.645  12.679  17.519  0.00  0.00    +0.000 A 
ATOM     23  C   UNL     1      11.907  13.081  17.071  0.00  0.00    +0.000 A 
ATOM     24  C   UNL     1      12.222  14.440  16.967  0.00  0.00    +0.000 A 
ATOM     25  C   UNL     1      11.276  15.402  17.312  0.00  0.00    +0.000 A 
ATOM     26 CL   UNL     1      11.666  17.070  17.177  0.00  0.00    +0.000 Cl
ATOM     27  C   UNL     1      10.016  15.014  17.765  0.00  0.00    +0.000 A 
ATOM     28  C   UNL     1       9.705  13.654  17.868  0.00  0.00    +0.000 A 
ENDBRANCH  21  22
ENDBRANCH  20  21
ENDBRANCH  19  20
ENDBRANCH   3  19
TORSDOF 7
ENDMDL
MODEL 5
REMARK VINA RESULT:      -7.1      4.237      8.012
REMARK  Name = 
REMARK  7 active torsions:
REMARK  status: ('A' for Active; 'I' for Inactive)
REMARK    1  A    between atoms: C_2  and  C_3
REMARK    2  A    between atoms: C_3  and  N_4
REMARK    3  A    between atoms: C_5  and  C_7
REMARK    4  A    between atoms: N_16  and  C_17
REMARK    5  A    between atoms: C_17  and  C_18
REMARK    6  A    between atoms: C_18  and  O_19
REMARK    7  A    between atoms: O_19  and  C_20
REMARK                            x       y       z     vdW  Elec       q    Type
REMARK                         _______ _______ _______ _____ _____    ______ ____
ROOT
ATOM      1  O   UNL     1       7.789   6.017  17.676  0.00  0.00    +0.000 OA
ATOM      2  C   UNL     1       7.095   6.903  17.182  0.00  0.00    +0.000 C 
ATOM      3  N   UNL     1       7.328   8.250  17.372  0.00  0.00    +0.000 N 
ATOM      4  H   UNL     1       6.535   8.868  17.229  0.00  0.00    +0.000 HD
ENDROOT
BRANCH   2   5
ATOM      5  C   UNL     1       5.839   6.593  16.366  0.00  0.00    +0.000 C 
BRANCH   5   6
ATOM      6  N   UNL     1       4.856   5.899  17.181  0.00  0.00    +0.000 N 
ATOM      7  C   UNL     1       4.453   4.616  16.886  0.00  0.00    +0.000 C 
ATOM      8  O   UNL     1       4.863   3.998  15.910  0.00  0.00    +0.000 OA
ATOM      9  H   UNL     1       4.558   6.357  18.032  0.00  0.00    +0.000 HD
BRANCH   7  10
ATOM     10  C   UNL     1       3.487   3.973  17.819  0.00  0.00    +0.000 A 
ATOM     11  C   UNL     1       2.570   2.990  17.385  0.00  0.00    +0.000 A 
ATOM     12  C   UNL     1       1.705   2.374  18.299  0.00  0.00    +0.000 A 
ATOM     13  C   UNL     1       1.779   2.758  19.620  0.00  0.00    +0.000 A 
ATOM     14  C   UNL     1       2.671   3.714  20.047  0.00  0.00    +0.000 A 
ATOM     15  C   UNL     1       3.540   4.336  19.175  0.00  0.00    +0.000 A 
ATOM     16  O   UNL     1       2.583   3.943  21.385  0.00  0.00    +0.000 OA
ATOM     17  C   UNL     1       1.519   3.040  21.749  0.00  0.00    +0.000 C 
ATOM     18  O   UNL     1       1.024   2.261  20.637  0.00  0.00    +0.000 OA
ENDBRANCH   7  10
ENDBRANCH   5   6
ENDBRANCH   2   5
BRANCH   3  19
ATOM     19  C   UNL     1       8.445   8.728  18.174  0.00  0.00    +0.000 C 
BRANCH  19  20
ATOM     20  C   UNL     1       8.567  10.252  18.116  0.00  0.00    +0.000 C 
BRANCH  20  21
ATOM     21  O   UNL     1       9.801  10.673  18.700  0.00  0.00    +0.000 OA
BRANCH  21  22
ATOM     22  C   UNL     1      10.303  11.870  18.257  0.00  0.00    +0.000 A 
ATOM     23  C   UNL     1      11.583  12.076  17.733  0.00  0.00    +0.000 A 
ATOM     24  C   UNL     1      11.977  13.348  17.305  0.00  0.00    +0.000 A 
ATOM     25  C   UNL     1      11.093  14.420  17.402  0.00  0.00    +0.000 A 
ATOM     26 CL   UNL     1      11.581  15.980  16.869  0.00  0.00    +0.000 Cl
ATOM     27  C   UNL     1       9.817  14.229  17.927  0.00  0.00    +0.000 A 
ATOM     28  C   UNL     1       9.427  12.956  18.354  0.00  0.00    +0.000 A 
ENDBRANCH  21  22
ENDBRANCH  20  21
ENDBRANCH  19  20
ENDBRANCH   3  19
TORSDOF 7
ENDMDL
MODEL 6
REMARK VINA RESULT:      -7.0      2.495      5.602
REMARK  Name = 
REMARK  7 active torsions:
REMARK  status: ('A' for Active; 'I' for Inactive)
REMARK    1  A    between atoms: C_2  and  C_3
REMARK    2  A    between atoms: C_3  and  N_4
REMARK    3  A    between atoms: C_5  and  C_7
REMARK    4  A    between atoms: N_16  and  C_17
REMARK    5  A    between atoms: C_17  and  C_18
REMARK    6  A    between atoms: C_18  and  O_19
REMARK    7  A    between atoms: O_19  and  C_20
REMARK                            x       y       z     vdW  Elec       q    Type
REMARK                         _______ _______ _______ _____ _____    ______ ____
ROOT
ATOM      1  O   UNL     1       2.214   1.764  18.952  0.00  0.00    +0.000 OA
ATOM      2  C   UNL     1       2.413   2.968  19.100  0.00  0.00    +0.000 C 
ATOM      3  N   UNL     1       3.085   3.748  18.181  0.00  0.00    +0.000 N 
ATOM      4  H   UNL     1       3.494   4.608  18.535  0.00  0.00    +0.000 HD
ENDROOT
BRANCH   2   5
ATOM      5  C   UNL     1       2.003   3.710  20.373  0.00  0.00    +0.000 C 
BRANCH   5   6
ATOM      6  N   UNL     1       1.653   5.088  20.073  0.00  0.00    +0.000 N 
ATOM      7  C   UNL     1       2.618   6.045  19.853  0.00  0.00    +0.000 C 
ATOM      8  O   UNL     1       3.819   5.809  19.933  0.00  0.00    +0.000 OA
ATOM      9  H   UNL     1       0.673   5.293  19.929  0.00  0.00    +0.000 HD
BRANCH   7  10
ATOM     10  C   UNL     1       2.154   7.413  19.493  0.00  0.00    +0.000 A 
ATOM     11  C   UNL     1       2.319   7.940  18.193  0.00  0.00    +0.000 A 
ATOM     12  C   UNL     1       1.830   9.215  17.878  0.00  0.00    +0.000 A 
ATOM     13  C   UNL     1       1.192   9.927  18.870  0.00  0.00    +0.000 A 
ATOM     14  C   UNL     1       1.028   9.416  20.136  0.00  0.00    +0.000 A 
ATOM     15  C   UNL     1       1.492   8.164  20.479  0.00  0.00    +0.000 A 
ATOM     16  O   UNL     1       0.371  10.277  20.960  0.00  0.00    +0.000 OA
ATOM     17  C   UNL     1       0.160  11.397  20.076  0.00  0.00    +0.000 C 
ATOM     18  O   UNL     1       0.652  11.169  18.737  0.00  0.00    +0.000 OA
ENDBRANCH   7  10
ENDBRANCH   5   6
ENDBRANCH   2   5
BRANCH   3  19
ATOM     19  C   UNL     1       3.603   3.194  16.938  0.00  0.00    +0.000 C 
BRANCH  19  20
ATOM     20  C   UNL     1       4.772   4.019  16.398  0.00  0.00    +0.000 C 
BRANCH  20  21
ATOM     21  O   UNL     1       5.885   3.948  17.291  0.00  0.00    +0.000 OA
BRANCH  21  22
ATOM     22  C   UNL     1       6.518   5.133  17.565  0.00  0.00    +0.000 A 
ATOM     23  C   UNL     1       7.533   5.318  18.508  0.00  0.00    +0.000 A 
ATOM     24  C   UNL     1       8.108   6.580  18.692  0.00  0.00    +0.000 A 
ATOM     25  C   UNL     1       7.667   7.663  17.934  0.00  0.00    +0.000 A 
ATOM     26 CL   UNL     1       8.381   9.210  18.160  0.00  0.00    +0.000 Cl
ATOM     27  C   UNL     1       6.652   7.493  16.996  0.00  0.00    +0.000 A 
ATOM     28  C   UNL     1       6.080   6.230  16.815  0.00  0.00    +0.000 A 
ENDBRANCH  21  22
ENDBRANCH  20  21
ENDBRANCH  19  20
ENDBRANCH   3  19
TORSDOF 7
ENDMDL
MODEL 7
REMARK VINA RESULT:      -6.9      3.663      5.922
REMARK  Name = 
REMARK  7 active torsions:
REMARK  status: ('A' for Active; 'I' for Inactive)
REMARK    1  A    between atoms: C_2  and  C_3
REMARK    2  A    between atoms: C_3  and  N_4
REMARK    3  A    between atoms: C_5  and  C_7
REMARK    4  A    between atoms: N_16  and  C_17
REMARK    5  A    between atoms: C_17  and  C_18
REMARK    6  A    between atoms: C_18  and  O_19
REMARK    7  A    between atoms: O_19  and  C_20
REMARK                            x       y       z     vdW  Elec       q    Type
REMARK                         _______ _______ _______ _____ _____    ______ ____
ROOT
ATOM      1  O   UNL     1       5.847   5.653  19.707  0.00  0.00    +0.000 OA
ATOM      2  C   UNL     1       6.570   5.770  18.720  0.00  0.00    +0.000 C 
ATOM      3  N   UNL     1       6.102   5.714  17.422  0.00  0.00    +0.000 N 
ATOM      4  H   UNL     1       6.785   5.475  16.708  0.00  0.00    +0.000 HD
ENDROOT
BRANCH   2   5
ATOM      5  C   UNL     1       8.089   5.909  18.834  0.00  0.00    +0.000 C 
BRANCH   5   6
ATOM      6  N   UNL     1       8.465   7.298  19.032  0.00  0.00    +0.000 N 
ATOM      7  C   UNL     1       8.269   8.243  18.050  0.00  0.00    +0.000 C 
ATOM      8  O   UNL     1       7.808   7.970  16.947  0.00  0.00    +0.000 OA
ATOM      9  H   UNL     1       8.778   7.563  19.957  0.00  0.00    +0.000 HD
BRANCH   7  10
ATOM     10  C   UNL     1       8.632   9.650  18.375  0.00  0.00    +0.000 A 
ATOM     11  C   UNL     1       8.287  10.726  17.527  0.00  0.00    +0.000 A 
ATOM     12  C   UNL     1       8.606  12.042  17.887  0.00  0.00    +0.000 A 
ATOM     13  C   UNL     1       9.262  12.246  19.081  0.00  0.00    +0.000 A 
ATOM     14  C   UNL     1       9.597  11.202  19.910  0.00  0.00    +0.000 A 
ATOM     15  C   UNL     1       9.294   9.895  19.589  0.00  0.00    +0.000 A 
ATOM     16  O   UNL     1      10.235  11.620  21.036  0.00  0.00    +0.000 OA
ATOM     17  C   UNL     1      10.283  13.044  20.813  0.00  0.00    +0.000 C 
ATOM     18  O   UNL     1       9.638  13.452  19.586  0.00  0.00    +0.000 OA
ENDBRANCH   7  10
ENDBRANCH   5   6
ENDBRANCH   2   5
BRANCH   3  19
ATOM     19  C   UNL     1       4.690   5.524  17.124  0.00  0.00    +0.000 C 
BRANCH  19  20
ATOM     20  C   UNL     1       4.441   4.195  16.408  0.00  0.00    +0.000 C 
BRANCH  20  21
ATOM     21  O   UNL     1       3.096   3.762  16.620  0.00  0.00    +0.000 OA
BRANCH  21  22
ATOM     22  C   UNL     1       2.761   3.439  17.910  0.00  0.00    +0.000 A 
ATOM     23  C   UNL     1       3.493   2.602  18.759  0.00  0.00    +0.000 A 
ATOM     24  C   UNL     1       3.050   2.354  20.063  0.00  0.00    +0.000 A 
ATOM     25  C   UNL     1       1.873   2.939  20.522  0.00  0.00    +0.000 A 
ATOM     26 CL   UNL     1       1.337   2.636  22.126  0.00  0.00    +0.000 Cl
ATOM     27  C   UNL     1       1.132   3.770  19.684  0.00  0.00    +0.000 A 
ATOM     28  C   UNL     1       1.577   4.016  18.381  0.00  0.00    +0.000 A 
ENDBRANCH  21  22
ENDBRANCH  20  21
ENDBRANCH  19  20
ENDBRANCH   3  19
TORSDOF 7
ENDMDL
MODEL 8
REMARK VINA RESULT:      -6.9      4.631      8.203
REMARK  Name = 
REMARK  7 active torsions:
REMARK  status: ('A' for Active; 'I' for Inactive)
REMARK    1  A    between atoms: C_2  and  C_3
REMARK    2  A    between atoms: C_3  and  N_4
REMARK    3  A    between atoms: C_5  and  C_7
REMARK    4  A    between atoms: N_16  and  C_17
REMARK    5  A    between atoms: C_17  and  C_18
REMARK    6  A    between atoms: C_18  and  O_19
REMARK    7  A    between atoms: O_19  and  C_20
REMARK                            x       y       z     vdW  Elec       q    Type
REMARK                         _______ _______ _______ _____ _____    ______ ____
ROOT
ATOM      1  O   UNL     1       7.371   8.027  16.966  0.00  0.00    +0.000 OA
ATOM      2  C   UNL     1       7.917   7.708  18.019  0.00  0.00    +0.000 C 
ATOM      3  N   UNL     1       8.642   8.587  18.798  0.00  0.00    +0.000 N 
ATOM      4  H   UNL     1       9.321   8.172  19.431  0.00  0.00    +0.000 HD
ENDROOT
BRANCH   2   5
ATOM      5  C   UNL     1       7.914   6.268  18.534  0.00  0.00    +0.000 C 
BRANCH   5   6
ATOM      6  N   UNL     1       6.572   5.859  18.910  0.00  0.00    +0.000 N 
ATOM      7  C   UNL     1       5.850   4.969  18.147  0.00  0.00    +0.000 C 
ATOM      8  O   UNL     1       6.273   4.499  17.096  0.00  0.00    +0.000 OA
ATOM      9  H   UNL     1       6.230   6.173  19.809  0.00  0.00    +0.000 HD
BRANCH   7  10
ATOM     10  C   UNL     1       4.508   4.568  18.653  0.00  0.00    +0.000 A 
ATOM     11  C   UNL     1       3.910   5.199  19.766  0.00  0.00    +0.000 A 
ATOM     12  C   UNL     1       2.626   4.826  20.186  0.00  0.00    +0.000 A 
ATOM     13  C   UNL     1       1.977   3.833  19.485  0.00  0.00    +0.000 A 
ATOM     14  C   UNL     1       2.556   3.219  18.399  0.00  0.00    +0.000 A 
ATOM     15  C   UNL     1       3.815   3.564  17.956  0.00  0.00    +0.000 A 
ATOM     16  O   UNL     1       1.749   2.271  17.850  0.00  0.00    +0.000 OA
ATOM     17  C   UNL     1       0.605   2.343  18.726  0.00  0.00    +0.000 C 
ATOM     18  O   UNL     1       0.731   3.356  19.749  0.00  0.00    +0.000 OA
ENDBRANCH   7  10
ENDBRANCH   5   6
ENDBRANCH   2   5
BRANCH   3  19
ATOM     19  C   UNL     1       8.804   9.985  18.428  0.00  0.00    +0.000 C 
BRANCH  19  20
ATOM     20  C   UNL     1       9.756  10.712  19.379  0.00  0.00    +0.000 C 
BRANCH  20  21
ATOM     21  O   UNL     1       9.149  11.909  19.871  0.00  0.00    +0.000 OA
BRANCH  21  22
ATOM     22  C   UNL     1       9.410  13.054  19.164  0.00  0.00    +0.000 A 
ATOM     23  C   UNL     1       8.465  14.010  18.779  0.00  0.00    +0.000 A 
ATOM     24  C   UNL     1       8.857  15.146  18.062  0.00  0.00    +0.000 A 
ATOM     25  C   UNL     1      10.197  15.329  17.728  0.00  0.00    +0.000 A 
ATOM     26 CL   UNL     1      10.674  16.730  16.853  0.00  0.00    +0.000 Cl
ATOM     27  C   UNL     1      11.147  14.382  18.101  0.00  0.00    +0.000 A 
ATOM     28  C   UNL     1      10.751  13.247  18.816  0.00  0.00    +0.000 A 
ENDBRANCH  21  22
ENDBRANCH  20  21
ENDBRANCH  19  20
ENDBRANCH   3  19
TORSDOF 7
ENDMDL
MODEL 9
REMARK VINA RESULT:      -6.8      3.891      7.787
REMARK  Name = 
REMARK  7 active torsions:
REMARK  status: ('A' for Active; 'I' for Inactive)
REMARK    1  A    between atoms: C_2  and  C_3
REMARK    2  A    between atoms: C_3  and  N_4
REMARK    3  A    between atoms: C_5  and  C_7
REMARK    4  A    between atoms: N_16  and  C_17
REMARK    5  A    between atoms: C_17  and  C_18
REMARK    6  A    between atoms: C_18  and  O_19
REMARK    7  A    between atoms: O_19  and  C_20
REMARK                            x       y       z     vdW  Elec       q    Type
REMARK                         _______ _______ _______ _____ _____    ______ ____
ROOT
ATOM      1  O   UNL     1       7.469   6.435  15.838  0.00  0.00    +0.000 OA
ATOM      2  C   UNL     1       7.586   6.189  17.036  0.00  0.00    +0.000 C 
ATOM      3  N   UNL     1       7.811   7.156  17.995  0.00  0.00    +0.000 N 
ATOM      4  H   UNL     1       8.230   6.839  18.864  0.00  0.00    +0.000 HD
ENDROOT
BRANCH   2   5
ATOM      5  C   UNL     1       7.577   4.758  17.578  0.00  0.00    +0.000 C 
BRANCH   5   6
ATOM      6  N   UNL     1       6.229   4.354  17.937  0.00  0.00    +0.000 N 
ATOM      7  C   UNL     1       5.609   4.839  19.067  0.00  0.00    +0.000 C 
ATOM      8  O   UNL     1       6.161   5.602  19.853  0.00  0.00    +0.000 OA
ATOM      9  H   UNL     1       5.725   3.785  17.269  0.00  0.00    +0.000 HD
BRANCH   7  10
ATOM     10  C   UNL     1       4.205   4.410  19.313  0.00  0.00    +0.000 A 
ATOM     11  C   UNL     1       3.332   5.148  20.142  0.00  0.00    +0.000 A 
ATOM     12  C   UNL     1       2.003   4.738  20.315  0.00  0.00    +0.000 A 
ATOM     13  C   UNL     1       1.584   3.602  19.657  0.00  0.00    +0.000 A 
ATOM     14  C   UNL     1       2.431   2.882  18.848  0.00  0.00    +0.000 A 
ATOM     15  C   UNL     1       3.743   3.260  18.651  0.00  0.00    +0.000 A 
ATOM     16  O   UNL     1       1.820   1.801  18.293  0.00  0.00    +0.000 OA
ATOM     17  C   UNL     1       0.499   1.909  18.862  0.00  0.00    +0.000 C 
ATOM     18  O   UNL     1       0.334   3.070  19.706  0.00  0.00    +0.000 OA
ENDBRANCH   7  10
ENDBRANCH   5   6
ENDBRANCH   2   5
BRANCH   3  19
ATOM     19  C   UNL     1       7.912   8.567  17.651  0.00  0.00    +0.000 C 
BRANCH  19  20
ATOM     20  C   UNL     1       8.709   9.346  18.699  0.00  0.00    +0.000 C 
BRANCH  20  21
ATOM     21  O   UNL     1       9.507  10.351  18.071  0.00  0.00    +0.000 OA
BRANCH  21  22
ATOM     22  C   UNL     1       9.816  11.445  18.838  0.00  0.00    +0.000 A 
ATOM     23  C   UNL     1      10.463  11.418  20.076  0.00  0.00    +0.000 A 
ATOM     24  C   UNL     1      10.730  12.608  20.762  0.00  0.00    +0.000 A 
ATOM     25  C   UNL     1      10.349  13.829  20.212  0.00  0.00    +0.000 A 
ATOM     26 CL   UNL     1      10.685  15.288  21.055  0.00  0.00    +0.000 Cl
ATOM     27  C   UNL     1       9.698  13.869  18.980  0.00  0.00    +0.000 A 
ATOM     28  C   UNL     1       9.433  12.678  18.298  0.00  0.00    +0.000 A 
ENDBRANCH  21  22
ENDBRANCH  20  21
ENDBRANCH  19  20
ENDBRANCH   3  19
TORSDOF 7
ENDMDL
