MODEL 1
REMARK VINA RESULT:      -8.2      0.000      0.000
REMARK  Name = 
REMARK  10 active torsions:
REMARK  status: ('A' for Active; 'I' for Inactive)
REMARK    1  A    between atoms: C_1  and  O_2
REMARK    2  A    between atoms: O_2  and  C_3
REMARK    3  A    between atoms: C_5  and  C_6
REMARK    4  A    between atoms: N_11  and  C_12
REMARK    5  A    between atoms: C_12  and  C_13
REMARK    6  A    between atoms: C_23  and  O_24
REMARK    7  A    between atoms: O_24  and  C_25
REMARK    8  A    between atoms: C_25  and  C_26
REMARK    9  A    between atoms: C_29  and  C_30
REMARK   10  A    between atoms: C_30  and  O_32
REMARK                            x       y       z     vdW  Elec       q    Type
REMARK                         _______ _______ _______ _____ _____    ______ ____
ROOT
ATOM      1  C   UNL     1       1.498   5.447  20.063  0.00  0.00    +0.000 A 
ATOM      2  C   UNL     1       1.246   6.377  21.080  0.00  0.00    +0.000 A 
ATOM      3  C   UNL     1       1.465   7.738  20.859  0.00  0.00    +0.000 A 
ATOM      4  C   UNL     1       2.035   8.169  19.665  0.00  0.00    +0.000 A 
ATOM      5  C   UNL     1       2.369   7.241  18.689  0.00  0.00    +0.000 A 
ATOM      6  C   UNL     1       2.139   5.868  18.884  0.00  0.00    +0.000 A 
ENDROOT
BRANCH   3   7
ATOM      7  C   UNL     1       0.870   8.721  21.759  0.00  0.00    +0.000 C 
ATOM      8  C   UNL     1       0.018   9.647  21.292  0.00  0.00    +0.000 C 
ATOM      9  S   UNL     1      -0.523   9.860  19.667  0.00  0.00    +0.000 S 
ATOM     10  C   UNL     1      -1.260  11.406  20.029  0.00  0.00    +0.000 C 
ATOM     11  O   UNL     1      -1.683  12.155  19.165  0.00  0.00    +0.000 OA
ATOM     12  N   UNL     1      -1.217  11.633  21.377  0.00  0.00    +0.000 N 
ATOM     13  C   UNL     1      -0.526  10.731  22.151  0.00  0.00    +0.000 C 
ATOM     14  O   UNL     1      -0.327  10.814  23.351  0.00  0.00    +0.000 OA
BRANCH  12  15
ATOM     15  C   UNL     1      -1.695  12.871  21.938  0.00  0.00    +0.000 C 
BRANCH  15  16
ATOM     16  C   UNL     1      -3.118  12.802  22.417  0.00  0.00    +0.000 A 
ATOM     17  C   UNL     1      -4.188  13.135  21.580  0.00  0.00    +0.000 A 
ATOM     18  C   UNL     1      -5.482  13.154  22.090  0.00  0.00    +0.000 A 
ATOM     19  C   UNL     1      -5.668  12.817  23.420  0.00  0.00    +0.000 A 
ATOM     20  N   UNL     1      -4.666  12.448  24.246  0.00  0.00    +0.000 NA
ATOM     21  C   UNL     1      -3.418  12.445  23.729  0.00  0.00    +0.000 A 
ENDBRANCH  15  16
ENDBRANCH  12  15
ENDBRANCH   3   7
BRANCH   1  23
ATOM     22  C   UNL     1       1.834   3.373  21.142  0.00  0.00    +0.000 C 
ATOM     23  O   UNL     1       1.098   4.136  20.176  0.00  0.00    +0.000 OA
ENDBRANCH   1  23
BRANCH   6  24
ATOM     24  O   UNL     1       2.508   4.923  17.945  0.00  0.00    +0.000 OA
BRANCH  24  25
ATOM     25  C   UNL     1       3.833   4.411  18.151  0.00  0.00    +0.000 C 
BRANCH  25  26
ATOM     26  C   UNL     1       4.786   4.626  17.002  0.00  0.00    +0.000 A 
ATOM     27  C   UNL     1       5.437   3.505  16.456  0.00  0.00    +0.000 A 
ATOM     28  C   UNL     1       6.240   3.631  15.324  0.00  0.00    +0.000 A 
ATOM     29  C   UNL     1       6.398   4.883  14.722  0.00  0.00    +0.000 A 
ATOM     30  C   UNL     1       5.716   5.995  15.234  0.00  0.00    +0.000 A 
ATOM     31  C   UNL     1       4.920   5.866  16.374  0.00  0.00    +0.000 A 
BRANCH  29  32
ATOM     32  C   UNL     1       7.258   4.967  13.515  0.00  0.00    +0.000 C 
ATOM     33  O   UNL     1       8.194   5.743  13.421  0.00  0.00    +0.000 OA
BRANCH  32  34
ATOM     34  O   UNL     1       6.874   4.146  12.516  0.00  0.00    +0.000 OA
ATOM     35  H   UNL     1       5.994   4.338  12.144  0.00  0.00    +0.000 HD
ENDBRANCH  32  34
ENDBRANCH  29  32
ENDBRANCH  25  26
ENDBRANCH  24  25
ENDBRANCH   6  24
TORSDOF 9
ENDMDL
MODEL 2
REMARK VINA RESULT:      -8.1      1.896      2.649
REMARK  Name = 
REMARK  10 active torsions:
REMARK  status: ('A' for Active; 'I' for Inactive)
REMARK    1  A    between atoms: C_1  and  O_2
REMARK    2  A    between atoms: O_2  and  C_3
REMARK    3  A    between atoms: C_5  and  C_6
REMARK    4  A    between atoms: N_11  and  C_12
REMARK    5  A    between atoms: C_12  and  C_13
REMARK    6  A    between atoms: C_23  and  O_24
REMARK    7  A    between atoms: O_24  and  C_25
REMARK    8  A    between atoms: C_25  and  C_26
REMARK    9  A    between atoms: C_29  and  C_30
REMARK   10  A    between atoms: C_30  and  O_32
REMARK                            x       y       z     vdW  Elec       q    Type
REMARK                         _______ _______ _______ _____ _____    ______ ____
ROOT
ATOM      1  C   UNL     1       2.739   5.575  19.691  0.00  0.00    +0.000 A 
ATOM      2  C   UNL     1       2.061   6.785  19.886  0.00  0.00    +0.000 A 
ATOM      3  C   UNL     1       2.257   7.851  19.007  0.00  0.00    +0.000 A 
ATOM      4  C   UNL     1       3.208   7.757  17.995  0.00  0.00    +0.000 A 
ATOM      5  C   UNL     1       3.947   6.591  17.854  0.00  0.00    +0.000 A 
ATOM      6  C   UNL     1       3.751   5.498  18.717  0.00  0.00    +0.000 A 
ENDROOT
BRANCH   3   7
ATOM      7  C   UNL     1       1.303   8.956  18.985  0.00  0.00    +0.000 C 
ATOM      8  C   UNL     1       0.892   9.527  20.128  0.00  0.00    +0.000 C 
ATOM      9  S   UNL     1       1.363   9.122  21.738  0.00  0.00    +0.000 S 
ATOM     10  C   UNL     1       0.112  10.123  22.443  0.00  0.00    +0.000 C 
ATOM     11  O   UNL     1      -0.163  10.100  23.629  0.00  0.00    +0.000 OA
ATOM     12  N   UNL     1      -0.507  10.846  21.460  0.00  0.00    +0.000 N 
ATOM     13  C   UNL     1      -0.157  10.578  20.158  0.00  0.00    +0.000 C 
ATOM     14  O   UNL     1      -0.654  11.073  19.161  0.00  0.00    +0.000 OA
BRANCH  12  15
ATOM     15  C   UNL     1      -1.628  11.702  21.761  0.00  0.00    +0.000 C 
BRANCH  15  16
ATOM     16  C   UNL     1      -1.239  12.976  22.455  0.00  0.00    +0.000 A 
ATOM     17  C   UNL     1      -2.023  13.520  23.478  0.00  0.00    +0.000 A 
ATOM     18  C   UNL     1      -1.682  14.751  24.027  0.00  0.00    +0.000 A 
ATOM     19  C   UNL     1      -0.552  15.393  23.550  0.00  0.00    +0.000 A 
ATOM     20  N   UNL     1       0.253  14.879  22.596  0.00  0.00    +0.000 NA
ATOM     21  C   UNL     1      -0.104  13.685  22.072  0.00  0.00    +0.000 A 
ENDBRANCH  15  16
ENDBRANCH  12  15
ENDBRANCH   3   7
BRANCH   1  23
ATOM     22  C   UNL     1       1.005   4.249  20.593  0.00  0.00    +0.000 C 
ATOM     23  O   UNL     1       2.414   4.448  20.408  0.00  0.00    +0.000 OA
ENDBRANCH   1  23
BRANCH   6  24
ATOM     24  O   UNL     1       4.510   4.346  18.624  0.00  0.00    +0.000 OA
BRANCH  24  25
ATOM     25  C   UNL     1       4.331   3.652  17.381  0.00  0.00    +0.000 C 
BRANCH  25  26
ATOM     26  C   UNL     1       5.337   3.990  16.310  0.00  0.00    +0.000 A 
ATOM     27  C   UNL     1       4.954   3.843  14.964  0.00  0.00    +0.000 A 
ATOM     28  C   UNL     1       5.804   4.247  13.936  0.00  0.00    +0.000 A 
ATOM     29  C   UNL     1       7.047   4.809  14.244  0.00  0.00    +0.000 A 
ATOM     30  C   UNL     1       7.415   4.999  15.583  0.00  0.00    +0.000 A 
ATOM     31  C   UNL     1       6.565   4.584  16.610  0.00  0.00    +0.000 A 
BRANCH  29  32
ATOM     32  C   UNL     1       7.914   5.229  13.116  0.00  0.00    +0.000 C 
ATOM     33  O   UNL     1       8.907   5.922  13.265  0.00  0.00    +0.000 OA
BRANCH  32  34
ATOM     34  O   UNL     1       7.473   4.819  11.909  0.00  0.00    +0.000 OA
ATOM     35  H   UNL     1       7.125   3.909  11.888  0.00  0.00    +0.000 HD
ENDBRANCH  32  34
ENDBRANCH  29  32
ENDBRANCH  25  26
ENDBRANCH  24  25
ENDBRANCH   6  24
TORSDOF 9
ENDMDL
MODEL 3
REMARK VINA RESULT:      -8.1      1.947      2.419
REMARK  Name = 
REMARK  10 active torsions:
REMARK  status: ('A' for Active; 'I' for Inactive)
REMARK    1  A    between atoms: C_1  and  O_2
REMARK    2  A    between atoms: O_2  and  C_3
REMARK    3  A    between atoms: C_5  and  C_6
REMARK    4  A    between atoms: N_11  and  C_12
REMARK    5  A    between atoms: C_12  and  C_13
REMARK    6  A    between atoms: C_23  and  O_24
REMARK    7  A    between atoms: O_24  and  C_25
REMARK    8  A    between atoms: C_25  and  C_26
REMARK    9  A    between atoms: C_29  and  C_30
REMARK   10  A    between atoms: C_30  and  O_32
REMARK                            x       y       z     vdW  Elec       q    Type
REMARK                         _______ _______ _______ _____ _____    ______ ____
ROOT
ATOM      1  C   UNL     1       2.093   4.271  19.742  0.00  0.00    +0.000 A 
ATOM      2  C   UNL     1       1.969   5.281  20.705  0.00  0.00    +0.000 A 
ATOM      3  C   UNL     1       1.938   6.622  20.318  0.00  0.00    +0.000 A 
ATOM      4  C   UNL     1       2.138   6.969  18.985  0.00  0.00    +0.000 A 
ATOM      5  C   UNL     1       2.351   5.975  18.041  0.00  0.00    +0.000 A 
ATOM      6  C   UNL     1       2.366   4.618  18.407  0.00  0.00    +0.000 A 
ENDROOT
BRANCH   3   7
ATOM      7  C   UNL     1       1.449   7.633  21.250  0.00  0.00    +0.000 C 
ATOM      8  C   UNL     1       0.890   8.766  20.799  0.00  0.00    +0.000 C 
ATOM      9  S   UNL     1       0.642   9.239  19.157  0.00  0.00    +0.000 S 
ATOM     10  C   UNL     1       0.212  10.875  19.608  0.00  0.00    +0.000 C 
ATOM     11  O   UNL     1       0.086  11.773  18.794  0.00  0.00    +0.000 OA
ATOM     12  N   UNL     1       0.112  10.966  20.969  0.00  0.00    +0.000 N 
ATOM     13  C   UNL     1       0.477   9.866  21.708  0.00  0.00    +0.000 C 
ATOM     14  O   UNL     1       0.519   9.796  22.924  0.00  0.00    +0.000 OA
BRANCH  12  15
ATOM     15  C   UNL     1      -0.162  12.227  21.611  0.00  0.00    +0.000 C 
BRANCH  15  16
ATOM     16  C   UNL     1      -1.615  12.431  21.935  0.00  0.00    +0.000 A 
ATOM     17  C   UNL     1      -2.459  13.153  21.086  0.00  0.00    +0.000 A 
ATOM     18  C   UNL     1      -3.773  13.404  21.470  0.00  0.00    +0.000 A 
ATOM     19  C   UNL     1      -4.208  12.904  22.685  0.00  0.00    +0.000 A 
ATOM     20  N   UNL     1      -3.435  12.166  23.511  0.00  0.00    +0.000 NA
ATOM     21  C   UNL     1      -2.162  11.943  23.119  0.00  0.00    +0.000 A 
ENDBRANCH  15  16
ENDBRANCH  12  15
ENDBRANCH   3   7
BRANCH   1  23
ATOM     22  C   UNL     1       1.581   2.712  21.442  0.00  0.00    +0.000 C 
ATOM     23  O   UNL     1       1.917   2.947  20.067  0.00  0.00    +0.000 OA
ENDBRANCH   1  23
BRANCH   6  24
ATOM     24  O   UNL     1       2.624   3.615  17.490  0.00  0.00    +0.000 OA
BRANCH  24  25
ATOM     25  C   UNL     1       4.021   3.305  17.372  0.00  0.00    +0.000 C 
BRANCH  25  26
ATOM     26  C   UNL     1       4.950   4.485  17.513  0.00  0.00    +0.000 A 
ATOM     27  C   UNL     1       5.648   4.643  18.725  0.00  0.00    +0.000 A 
ATOM     28  C   UNL     1       6.602   5.649  18.868  0.00  0.00    +0.000 A 
ATOM     29  C   UNL     1       6.872   6.506  17.798  0.00  0.00    +0.000 A 
ATOM     30  C   UNL     1       6.212   6.326  16.575  0.00  0.00    +0.000 A 
ATOM     31  C   UNL     1       5.251   5.323  16.437  0.00  0.00    +0.000 A 
BRANCH  29  32
ATOM     32  C   UNL     1       7.900   7.558  17.997  0.00  0.00    +0.000 C 
ATOM     33  O   UNL     1       8.049   8.494  17.228  0.00  0.00    +0.000 OA
BRANCH  32  34
ATOM     34  O   UNL     1       8.686   7.353  19.074  0.00  0.00    +0.000 OA
ATOM     35  H   UNL     1       9.118   8.153  19.423  0.00  0.00    +0.000 HD
ENDBRANCH  32  34
ENDBRANCH  29  32
ENDBRANCH  25  26
ENDBRANCH  24  25
ENDBRANCH   6  24
TORSDOF 9
ENDMDL
MODEL 4
REMARK VINA RESULT:      -8.0      1.825      2.638
REMARK  Name = 
REMARK  10 active torsions:
REMARK  status: ('A' for Active; 'I' for Inactive)
REMARK    1  A    between atoms: C_1  and  O_2
REMARK    2  A    between atoms: O_2  and  C_3
REMARK    3  A    between atoms: C_5  and  C_6
REMARK    4  A    between atoms: N_11  and  C_12
REMARK    5  A    between atoms: C_12  and  C_13
REMARK    6  A    between atoms: C_23  and  O_24
REMARK    7  A    between atoms: O_24  and  C_25
REMARK    8  A    between atoms: C_25  and  C_26
REMARK    9  A    between atoms: C_29  and  C_30
REMARK   10  A    between atoms: C_30  and  O_32
REMARK                            x       y       z     vdW  Elec       q    Type
REMARK                         _______ _______ _______ _____ _____    ______ ____
ROOT
ATOM      1  C   UNL     1       2.325   5.952  19.993  0.00  0.00    +0.000 A 
ATOM      2  C   UNL     1       1.820   7.253  20.110  0.00  0.00    +0.000 A 
ATOM      3  C   UNL     1       2.002   8.174  19.077  0.00  0.00    +0.000 A 
ATOM      4  C   UNL     1       2.778   7.840  17.971  0.00  0.00    +0.000 A 
ATOM      5  C   UNL     1       3.356   6.581  17.894  0.00  0.00    +0.000 A 
ATOM      6  C   UNL     1       3.169   5.632  18.914  0.00  0.00    +0.000 A 
ENDROOT
BRANCH   3   7
ATOM      7  C   UNL     1       1.181   9.380  19.031  0.00  0.00    +0.000 C 
ATOM      8  C   UNL     1       0.703   9.925  20.160  0.00  0.00    +0.000 C 
ATOM      9  S   UNL     1       0.935   9.371  21.779  0.00  0.00    +0.000 S 
ATOM     10  C   UNL     1      -0.276  10.466  22.413  0.00  0.00    +0.000 C 
ATOM     11  O   UNL     1      -0.690  10.402  23.557  0.00  0.00    +0.000 OA
ATOM     12  N   UNL     1      -0.693  11.314  21.424  0.00  0.00    +0.000 N 
ATOM     13  C   UNL     1      -0.223  11.087  20.152  0.00  0.00    +0.000 C 
ATOM     14  O   UNL     1      -0.543  11.695  19.146  0.00  0.00    +0.000 OA
BRANCH  12  15
ATOM     15  C   UNL     1      -1.742  12.273  21.661  0.00  0.00    +0.000 C 
BRANCH  15  16
ATOM     16  C   UNL     1      -1.241  13.595  22.171  0.00  0.00    +0.000 A 
ATOM     17  C   UNL     1      -0.705  14.556  21.308  0.00  0.00    +0.000 A 
ATOM     18  C   UNL     1      -0.161  15.725  21.830  0.00  0.00    +0.000 A 
ATOM     19  C   UNL     1      -0.191  15.907  23.202  0.00  0.00    +0.000 A 
ATOM     20  N   UNL     1      -0.739  15.023  24.062  0.00  0.00    +0.000 NA
ATOM     21  C   UNL     1      -1.253  13.891  23.531  0.00  0.00    +0.000 A 
ENDBRANCH  15  16
ENDBRANCH  12  15
ENDBRANCH   3   7
BRANCH   1  23
ATOM     22  C   UNL     1       0.937   4.096  20.448  0.00  0.00    +0.000 C 
ATOM     23  O   UNL     1       1.986   4.968  20.892  0.00  0.00    +0.000 OA
ENDBRANCH   1  23
BRANCH   6  24
ATOM     24  O   UNL     1       3.775   4.389  18.879  0.00  0.00    +0.000 OA
BRANCH  24  25
ATOM     25  C   UNL     1       5.208   4.461  18.885  0.00  0.00    +0.000 C 
BRANCH  25  26
ATOM     26  C   UNL     1       5.851   4.513  17.522  0.00  0.00    +0.000 A 
ATOM     27  C   UNL     1       5.230   3.823  16.465  0.00  0.00    +0.000 A 
ATOM     28  C   UNL     1       5.719   3.929  15.164  0.00  0.00    +0.000 A 
ATOM     29  C   UNL     1       6.833   4.732  14.905  0.00  0.00    +0.000 A 
ATOM     30  C   UNL     1       7.428   5.457  15.946  0.00  0.00    +0.000 A 
ATOM     31  C   UNL     1       6.942   5.341  17.249  0.00  0.00    +0.000 A 
BRANCH  29  32
ATOM     32  C   UNL     1       7.313   4.819  13.503  0.00  0.00    +0.000 C 
ATOM     33  O   UNL     1       6.884   4.106  12.610  0.00  0.00    +0.000 OA
BRANCH  32  34
ATOM     34  O   UNL     1       8.301   5.718  13.322  0.00  0.00    +0.000 OA
ATOM     35  H   UNL     1       8.666   6.095  14.143  0.00  0.00    +0.000 HD
ENDBRANCH  32  34
ENDBRANCH  29  32
ENDBRANCH  25  26
ENDBRANCH  24  25
ENDBRANCH   6  24
TORSDOF 9
ENDMDL
MODEL 5
REMARK VINA RESULT:      -8.0      1.078      1.304
REMARK  Name = 
REMARK  10 active torsions:
REMARK  status: ('A' for Active; 'I' for Inactive)
REMARK    1  A    between atoms: C_1  and  O_2
REMARK    2  A    between atoms: O_2  and  C_3
REMARK    3  A    between atoms: C_5  and  C_6
REMARK    4  A    between atoms: N_11  and  C_12
REMARK    5  A    between atoms: C_12  and  C_13
REMARK    6  A    between atoms: C_23  and  O_24
REMARK    7  A    between atoms: O_24  and  C_25
REMARK    8  A    between atoms: C_25  and  C_26
REMARK    9  A    between atoms: C_29  and  C_30
REMARK   10  A    between atoms: C_30  and  O_32
REMARK                            x       y       z     vdW  Elec       q    Type
REMARK                         _______ _______ _______ _____ _____    ______ ____
ROOT
ATOM      1  C   UNL     1       1.823   5.467  20.080  0.00  0.00    +0.000 A 
ATOM      2  C   UNL     1       1.546   6.557  20.914  0.00  0.00    +0.000 A 
ATOM      3  C   UNL     1       1.735   7.861  20.453  0.00  0.00    +0.000 A 
ATOM      4  C   UNL     1       2.299   8.085  19.201  0.00  0.00    +0.000 A 
ATOM      5  C   UNL     1       2.658   7.005  18.407  0.00  0.00    +0.000 A 
ATOM      6  C   UNL     1       2.459   5.684  18.844  0.00  0.00    +0.000 A 
ENDROOT
BRANCH   3   7
ATOM      7  C   UNL     1       1.114   8.976  21.163  0.00  0.00    +0.000 C 
ATOM      8  C   UNL     1       0.269   9.804  20.529  0.00  0.00    +0.000 C 
ATOM      9  S   UNL     1      -0.233   9.739  18.879  0.00  0.00    +0.000 S 
ATOM     10  C   UNL     1      -0.985  11.318  18.961  0.00  0.00    +0.000 C 
ATOM     11  O   UNL     1      -1.390  11.909  17.976  0.00  0.00    +0.000 OA
ATOM     12  N   UNL     1      -0.976  11.766  20.254  0.00  0.00    +0.000 N 
ATOM     13  C   UNL     1      -0.299  11.011  21.183  0.00  0.00    +0.000 C 
ATOM     14  O   UNL     1      -0.130  11.294  22.356  0.00  0.00    +0.000 OA
BRANCH  12  15
ATOM     15  C   UNL     1      -1.473  13.076  20.590  0.00  0.00    +0.000 C 
BRANCH  15  16
ATOM     16  C   UNL     1      -2.863  13.062  21.159  0.00  0.00    +0.000 A 
ATOM     17  C   UNL     1      -3.097  13.260  22.523  0.00  0.00    +0.000 A 
ATOM     18  C   UNL     1      -4.388  13.141  23.026  0.00  0.00    +0.000 A 
ATOM     19  C   UNL     1      -5.412  12.848  22.142  0.00  0.00    +0.000 A 
ATOM     20  N   UNL     1      -5.232  12.694  20.813  0.00  0.00    +0.000 NA
ATOM     21  C   UNL     1      -3.968  12.807  20.350  0.00  0.00    +0.000 A 
ENDBRANCH  15  16
ENDBRANCH  12  15
ENDBRANCH   3   7
BRANCH   1  23
ATOM     22  C   UNL     1       2.195   3.632  21.520  0.00  0.00    +0.000 C 
ATOM     23  O   UNL     1       1.453   4.188  20.426  0.00  0.00    +0.000 OA
ENDBRANCH   1  23
BRANCH   6  24
ATOM     24  O   UNL     1       2.853   4.595  18.089  0.00  0.00    +0.000 OA
BRANCH  24  25
ATOM     25  C   UNL     1       4.209   4.197  18.339  0.00  0.00    +0.000 C 
BRANCH  25  26
ATOM     26  C   UNL     1       5.135   4.305  17.154  0.00  0.00    +0.000 A 
ATOM     27  C   UNL     1       4.576   4.260  15.864  0.00  0.00    +0.000 A 
ATOM     28  C   UNL     1       5.371   4.467  14.738  0.00  0.00    +0.000 A 
ATOM     29  C   UNL     1       6.736   4.726  14.891  0.00  0.00    +0.000 A 
ATOM     30  C   UNL     1       7.290   4.815  16.175  0.00  0.00    +0.000 A 
ATOM     31  C   UNL     1       6.493   4.599  17.300  0.00  0.00    +0.000 A 
BRANCH  29  32
ATOM     32  C   UNL     1       7.540   4.945  13.663  0.00  0.00    +0.000 C 
ATOM     33  O   UNL     1       8.485   5.715  13.618  0.00  0.00    +0.000 OA
BRANCH  32  34
ATOM     34  O   UNL     1       7.096   4.255  12.592  0.00  0.00    +0.000 OA
ATOM     35  H   UNL     1       7.078   3.288  12.708  0.00  0.00    +0.000 HD
ENDBRANCH  32  34
ENDBRANCH  29  32
ENDBRANCH  25  26
ENDBRANCH  24  25
ENDBRANCH   6  24
TORSDOF 9
ENDMDL
MODEL 6
REMARK VINA RESULT:      -7.9      1.880      2.755
REMARK  Name = 
REMARK  10 active torsions:
REMARK  status: ('A' for Active; 'I' for Inactive)
REMARK    1  A    between atoms: C_1  and  O_2
REMARK    2  A    between atoms: O_2  and  C_3
REMARK    3  A    between atoms: C_5  and  C_6
REMARK    4  A    between atoms: N_11  and  C_12
REMARK    5  A    between atoms: C_12  and  C_13
REMARK    6  A    between atoms: C_23  and  O_24
REMARK    7  A    between atoms: O_24  and  C_25
REMARK    8  A    between atoms: C_25  and  C_26
REMARK    9  A    between atoms: C_29  and  C_30
REMARK   10  A    between atoms: C_30  and  O_32
REMARK                            x       y       z     vdW  Elec       q    Type
REMARK                         _______ _______ _______ _____ _____    ______ ____
ROOT
ATOM      1  C   UNL     1       2.713   6.166  19.785  0.00  0.00    +0.000 A 
ATOM      2  C   UNL     1       1.901   7.307  19.795  0.00  0.00    +0.000 A 
ATOM      3  C   UNL     1       2.002   8.251  18.772  0.00  0.00    +0.000 A 
ATOM      4  C   UNL     1       2.983   8.120  17.794  0.00  0.00    +0.000 A 
ATOM      5  C   UNL     1       3.849   7.037  17.832  0.00  0.00    +0.000 A 
ATOM      6  C   UNL     1       3.752   6.064  18.842  0.00  0.00    +0.000 A 
ENDROOT
BRANCH   3   7
ATOM      7  C   UNL     1       0.933   9.227  18.580  0.00  0.00    +0.000 C 
ATOM      8  C   UNL     1       0.521   9.998  19.598  0.00  0.00    +0.000 C 
ATOM      9  S   UNL     1       1.114  10.012  21.219  0.00  0.00    +0.000 S 
ATOM     10  C   UNL     1      -0.202  11.021  21.778  0.00  0.00    +0.000 C 
ATOM     11  O   UNL     1      -0.412  11.239  22.959  0.00  0.00    +0.000 OA
ATOM     12  N   UNL     1      -0.945  11.444  20.710  0.00  0.00    +0.000 N 
ATOM     13  C   UNL     1      -0.634  10.925  19.475  0.00  0.00    +0.000 C 
ATOM     14  O   UNL     1      -1.232  11.134  18.434  0.00  0.00    +0.000 OA
BRANCH  12  15
ATOM     15  C   UNL     1      -2.135  12.234  20.899  0.00  0.00    +0.000 C 
BRANCH  15  16
ATOM     16  C   UNL     1      -1.863  13.707  21.017  0.00  0.00    +0.000 A 
ATOM     17  C   UNL     1      -2.456  14.482  22.019  0.00  0.00    +0.000 A 
ATOM     18  C   UNL     1      -2.258  15.858  22.036  0.00  0.00    +0.000 A 
ATOM     19  C   UNL     1      -1.452  16.416  21.058  0.00  0.00    +0.000 A 
ATOM     20  N   UNL     1      -0.828  15.696  20.101  0.00  0.00    +0.000 NA
ATOM     21  C   UNL     1      -1.043  14.362  20.103  0.00  0.00    +0.000 A 
ENDBRANCH  15  16
ENDBRANCH  12  15
ENDBRANCH   3   7
BRANCH   1  23
ATOM     22  C   UNL     1       1.275   4.403  20.423  0.00  0.00    +0.000 C 
ATOM     23  O   UNL     1       2.494   5.123  20.654  0.00  0.00    +0.000 OA
ENDBRANCH   1  23
BRANCH   6  24
ATOM     24  O   UNL     1       4.634   5.003  18.925  0.00  0.00    +0.000 OA
BRANCH  24  25
ATOM     25  C   UNL     1       4.459   4.040  17.876  0.00  0.00    +0.000 C 
BRANCH  25  26
ATOM     26  C   UNL     1       5.363   4.224  16.682  0.00  0.00    +0.000 A 
ATOM     27  C   UNL     1       4.828   4.003  15.400  0.00  0.00    +0.000 A 
ATOM     28  C   UNL     1       5.585   4.267  14.260  0.00  0.00    +0.000 A 
ATOM     29  C   UNL     1       6.886   4.761  14.390  0.00  0.00    +0.000 A 
ATOM     30  C   UNL     1       7.408   5.025  15.664  0.00  0.00    +0.000 A 
ATOM     31  C   UNL     1       6.651   4.751  16.804  0.00  0.00    +0.000 A 
BRANCH  29  32
ATOM     32  C   UNL     1       7.651   5.032  13.148  0.00  0.00    +0.000 C 
ATOM     33  O   UNL     1       7.402   4.491  12.084  0.00  0.00    +0.000 OA
BRANCH  32  34
ATOM     34  O   UNL     1       8.678   5.890  13.319  0.00  0.00    +0.000 OA
ATOM     35  H   UNL     1       8.461   6.691  13.831  0.00  0.00    +0.000 HD
ENDBRANCH  32  34
ENDBRANCH  29  32
ENDBRANCH  25  26
ENDBRANCH  24  25
ENDBRANCH   6  24
TORSDOF 9
ENDMDL
MODEL 7
REMARK VINA RESULT:      -7.9      2.788      3.936
REMARK  Name = 
REMARK  10 active torsions:
REMARK  status: ('A' for Active; 'I' for Inactive)
REMARK    1  A    between atoms: C_1  and  O_2
REMARK    2  A    between atoms: O_2  and  C_3
REMARK    3  A    between atoms: C_5  and  C_6
REMARK    4  A    between atoms: N_11  and  C_12
REMARK    5  A    between atoms: C_12  and  C_13
REMARK    6  A    between atoms: C_23  and  O_24
REMARK    7  A    between atoms: O_24  and  C_25
REMARK    8  A    between atoms: C_25  and  C_26
REMARK    9  A    between atoms: C_29  and  C_30
REMARK   10  A    between atoms: C_30  and  O_32
REMARK                            x       y       z     vdW  Elec       q    Type
REMARK                         _______ _______ _______ _____ _____    ______ ____
ROOT
ATOM      1  C   UNL     1       1.577   4.582  19.827  0.00  0.00    +0.000 A 
ATOM      2  C   UNL     1       1.533   5.633  20.751  0.00  0.00    +0.000 A 
ATOM      3  C   UNL     1       1.838   6.935  20.350  0.00  0.00    +0.000 A 
ATOM      4  C   UNL     1       2.291   7.181  19.057  0.00  0.00    +0.000 A 
ATOM      5  C   UNL     1       2.421   6.127  18.164  0.00  0.00    +0.000 A 
ATOM      6  C   UNL     1       2.101   4.811  18.541  0.00  0.00    +0.000 A 
ENDROOT
BRANCH   3   7
ATOM      7  C   UNL     1       1.445   8.061  21.192  0.00  0.00    +0.000 C 
ATOM      8  C   UNL     1       0.899   9.161  20.650  0.00  0.00    +0.000 C 
ATOM      9  S   UNL     1       0.564   9.462  18.984  0.00  0.00    +0.000 S 
ATOM     10  C   UNL     1       0.221  11.154  19.274  0.00  0.00    +0.000 C 
ATOM     11  O   UNL     1       0.076  11.962  18.374  0.00  0.00    +0.000 OA
ATOM     12  N   UNL     1       0.211  11.398  20.620  0.00  0.00    +0.000 N 
ATOM     13  C   UNL     1       0.584  10.370  21.454  0.00  0.00    +0.000 C 
ATOM     14  O   UNL     1       0.700  10.431  22.666  0.00  0.00    +0.000 OA
BRANCH  12  15
ATOM     15  C   UNL     1       0.023  12.732  21.132  0.00  0.00    +0.000 C 
BRANCH  15  16
ATOM     16  C   UNL     1       1.098  13.693  20.709  0.00  0.00    +0.000 A 
ATOM     17  C   UNL     1       2.446  13.451  20.989  0.00  0.00    +0.000 A 
ATOM     18  C   UNL     1       3.400  14.412  20.668  0.00  0.00    +0.000 A 
ATOM     19  C   UNL     1       2.976  15.579  20.056  0.00  0.00    +0.000 A 
ATOM     20  N   UNL     1       1.690  15.828  19.730  0.00  0.00    +0.000 NA
ATOM     21  C   UNL     1       0.782  14.883  20.059  0.00  0.00    +0.000 A 
ENDBRANCH  15  16
ENDBRANCH  12  15
ENDBRANCH   3   7
BRANCH   1  23
ATOM     22  C   UNL     1       1.623   2.766  21.337  0.00  0.00    +0.000 C 
ATOM     23  O   UNL     1       1.085   3.336  20.135  0.00  0.00    +0.000 OA
ENDBRANCH   1  23
BRANCH   6  24
ATOM     24  O   UNL     1       2.270   3.741  17.683  0.00  0.00    +0.000 OA
BRANCH  24  25
ATOM     25  C   UNL     1       3.563   3.127  17.794  0.00  0.00    +0.000 C 
BRANCH  25  26
ATOM     26  C   UNL     1       4.722   4.089  17.870  0.00  0.00    +0.000 A 
ATOM     27  C   UNL     1       5.083   4.792  16.706  0.00  0.00    +0.000 A 
ATOM     28  C   UNL     1       6.072   5.774  16.748  0.00  0.00    +0.000 A 
ATOM     29  C   UNL     1       6.708   6.066  17.957  0.00  0.00    +0.000 A 
ATOM     30  C   UNL     1       6.322   5.400  19.128  0.00  0.00    +0.000 A 
ATOM     31  C   UNL     1       5.338   4.412  19.081  0.00  0.00    +0.000 A 
BRANCH  29  32
ATOM     32  C   UNL     1       7.750   7.123  17.953  0.00  0.00    +0.000 C 
ATOM     33  O   UNL     1       7.885   7.918  17.037  0.00  0.00    +0.000 OA
BRANCH  32  34
ATOM     34  O   UNL     1       8.565   7.086  19.027  0.00  0.00    +0.000 OA
ATOM     35  H   UNL     1       9.500   6.901  18.825  0.00  0.00    +0.000 HD
ENDBRANCH  32  34
ENDBRANCH  29  32
ENDBRANCH  25  26
ENDBRANCH  24  25
ENDBRANCH   6  24
TORSDOF 9
ENDMDL
MODEL 8
REMARK VINA RESULT:      -7.8      1.946      2.840
REMARK  Name = 
REMARK  10 active torsions:
REMARK  status: ('A' for Active; 'I' for Inactive)
REMARK    1  A    between atoms: C_1  and  O_2
REMARK    2  A    between atoms: O_2  and  C_3
REMARK    3  A    between atoms: C_5  and  C_6
REMARK    4  A    between atoms: N_11  and  C_12
REMARK    5  A    between atoms: C_12  and  C_13
REMARK    6  A    between atoms: C_23  and  O_24
REMARK    7  A    between atoms: O_24  and  C_25
REMARK    8  A    between atoms: C_25  and  C_26
REMARK    9  A    between atoms: C_29  and  C_30
REMARK   10  A    between atoms: C_30  and  O_32
REMARK                            x       y       z     vdW  Elec       q    Type
REMARK                         _______ _______ _______ _____ _____    ______ ____
ROOT
ATOM      1  C   UNL     1       2.223   5.369  19.473  0.00  0.00    +0.000 A 
ATOM      2  C   UNL     1       1.658   6.617  19.767  0.00  0.00    +0.000 A 
ATOM      3  C   UNL     1       2.014   7.743  19.023  0.00  0.00    +0.000 A 
ATOM      4  C   UNL     1       3.010   7.656  18.055  0.00  0.00    +0.000 A 
ATOM      5  C   UNL     1       3.635   6.440  17.822  0.00  0.00    +0.000 A 
ATOM      6  C   UNL     1       3.279   5.289  18.547  0.00  0.00    +0.000 A 
ENDROOT
BRANCH   3   7
ATOM      7  C   UNL     1       1.177   8.938  19.077  0.00  0.00    +0.000 C 
ATOM      8  C   UNL     1       0.833   9.479  20.256  0.00  0.00    +0.000 C 
ATOM      9  S   UNL     1       1.268   8.933  21.834  0.00  0.00    +0.000 S 
ATOM     10  C   UNL     1       0.130  10.013  22.611  0.00  0.00    +0.000 C 
ATOM     11  O   UNL     1      -0.140   9.947  23.797  0.00  0.00    +0.000 OA
ATOM     12  N   UNL     1      -0.417  10.853  21.680  0.00  0.00    +0.000 N 
ATOM     13  C   UNL     1      -0.102  10.629  20.360  0.00  0.00    +0.000 C 
ATOM     14  O   UNL     1      -0.551  11.230  19.400  0.00  0.00    +0.000 OA
BRANCH  12  15
ATOM     15  C   UNL     1      -1.442  11.798  22.043  0.00  0.00    +0.000 C 
BRANCH  15  16
ATOM     16  C   UNL     1      -0.900  13.120  22.508  0.00  0.00    +0.000 A 
ATOM     17  C   UNL     1      -1.508  13.836  23.545  0.00  0.00    +0.000 A 
ATOM     18  C   UNL     1      -1.036  15.100  23.880  0.00  0.00    +0.000 A 
ATOM     19  C   UNL     1       0.048  15.602  23.179  0.00  0.00    +0.000 A 
ATOM     20  N   UNL     1       0.688  14.924  22.203  0.00  0.00    +0.000 NA
ATOM     21  C   UNL     1       0.205  13.701  21.891  0.00  0.00    +0.000 A 
ENDBRANCH  15  16
ENDBRANCH  12  15
ENDBRANCH   3   7
BRANCH   1  23
ATOM     22  C   UNL     1       2.095   4.042  21.422  0.00  0.00    +0.000 C 
ATOM     23  O   UNL     1       1.743   4.214  20.042  0.00  0.00    +0.000 OA
ENDBRANCH   1  23
BRANCH   6  24
ATOM     24  O   UNL     1       3.923   4.079  18.364  0.00  0.00    +0.000 OA
BRANCH  24  25
ATOM     25  C   UNL     1       5.348   4.210  18.251  0.00  0.00    +0.000 C 
BRANCH  25  26
ATOM     26  C   UNL     1       5.856   4.469  16.855  0.00  0.00    +0.000 A 
ATOM     27  C   UNL     1       7.017   5.249  16.702  0.00  0.00    +0.000 A 
ATOM     28  C   UNL     1       7.592   5.425  15.444  0.00  0.00    +0.000 A 
ATOM     29  C   UNL     1       7.014   4.820  14.326  0.00  0.00    +0.000 A 
ATOM     30  C   UNL     1       5.883   4.006  14.478  0.00  0.00    +0.000 A 
ATOM     31  C   UNL     1       5.304   3.838  15.738  0.00  0.00    +0.000 A 
BRANCH  29  32
ATOM     32  C   UNL     1       7.665   5.032  13.009  0.00  0.00    +0.000 C 
ATOM     33  O   UNL     1       7.321   4.446  11.996  0.00  0.00    +0.000 OA
BRANCH  32  34
ATOM     34  O   UNL     1       8.706   5.890  13.050  0.00  0.00    +0.000 OA
ATOM     35  H   UNL     1       9.202   5.891  13.889  0.00  0.00    +0.000 HD
ENDBRANCH  32  34
ENDBRANCH  29  32
ENDBRANCH  25  26
ENDBRANCH  24  25
ENDBRANCH   6  24
TORSDOF 9
ENDMDL
MODEL 9
REMARK VINA RESULT:      -7.8      0.857      1.433
REMARK  Name = 
REMARK  10 active torsions:
REMARK  status: ('A' for Active; 'I' for Inactive)
REMARK    1  A    between atoms: C_1  and  O_2
REMARK    2  A    between atoms: O_2  and  C_3
REMARK    3  A    between atoms: C_5  and  C_6
REMARK    4  A    between atoms: N_11  and  C_12
REMARK    5  A    between atoms: C_12  and  C_13
REMARK    6  A    between atoms: C_23  and  O_24
REMARK    7  A    between atoms: O_24  and  C_25
REMARK    8  A    between atoms: C_25  and  C_26
REMARK    9  A    between atoms: C_29  and  C_30
REMARK   10  A    between atoms: C_30  and  O_32
REMARK                            x       y       z     vdW  Elec       q    Type
REMARK                         _______ _______ _______ _____ _____    ______ ____
ROOT
ATOM      1  C   UNL     1       1.648   6.022  20.034  0.00  0.00    +0.000 A 
ATOM      2  C   UNL     1       1.423   7.125  20.868  0.00  0.00    +0.000 A 
ATOM      3  C   UNL     1       1.557   8.422  20.370  0.00  0.00    +0.000 A 
ATOM      4  C   UNL     1       2.018   8.630  19.073  0.00  0.00    +0.000 A 
ATOM      5  C   UNL     1       2.327   7.540  18.273  0.00  0.00    +0.000 A 
ATOM      6  C   UNL     1       2.181   6.225  18.748  0.00  0.00    +0.000 A 
ENDROOT
BRANCH   3   7
ATOM      7  C   UNL     1       0.979   9.542  21.107  0.00  0.00    +0.000 C 
ATOM      8  C   UNL     1      -0.042  10.245  20.592  0.00  0.00    +0.000 C 
ATOM      9  S   UNL     1      -0.834  10.000  19.078  0.00  0.00    +0.000 S 
ATOM     10  C   UNL     1      -1.700  11.518  19.194  0.00  0.00    +0.000 C 
ATOM     11  O   UNL     1      -2.334  11.989  18.266  0.00  0.00    +0.000 OA
ATOM     12  N   UNL     1      -1.492  12.074  20.426  0.00  0.00    +0.000 N 
ATOM     13  C   UNL     1      -0.588  11.456  21.257  0.00  0.00    +0.000 C 
ATOM     14  O   UNL     1      -0.229  11.851  22.353  0.00  0.00    +0.000 OA
BRANCH  12  15
ATOM     15  C   UNL     1      -2.036  13.366  20.759  0.00  0.00    +0.000 C 
BRANCH  15  16
ATOM     16  C   UNL     1      -3.171  13.303  21.742  0.00  0.00    +0.000 A 
ATOM     17  C   UNL     1      -3.056  13.839  23.028  0.00  0.00    +0.000 A 
ATOM     18  C   UNL     1      -4.092  13.673  23.940  0.00  0.00    +0.000 A 
ATOM     19  C   UNL     1      -5.225  12.992  23.529  0.00  0.00    +0.000 A 
ATOM     20  N   UNL     1      -5.391  12.498  22.283  0.00  0.00    +0.000 NA
ATOM     21  C   UNL     1      -4.366  12.666  21.418  0.00  0.00    +0.000 A 
ENDBRANCH  15  16
ENDBRANCH  12  15
ENDBRANCH   3   7
BRANCH   1  23
ATOM     22  C   UNL     1       2.229   4.174  21.384  0.00  0.00    +0.000 C 
ATOM     23  O   UNL     1       1.324   4.747  20.430  0.00  0.00    +0.000 OA
ENDBRANCH   1  23
BRANCH   6  24
ATOM     24  O   UNL     1       2.530   5.127  17.983  0.00  0.00    +0.000 OA
BRANCH  24  25
ATOM     25  C   UNL     1       3.913   4.767  18.110  0.00  0.00    +0.000 C 
BRANCH  25  26
ATOM     26  C   UNL     1       4.689   4.749  16.817  0.00  0.00    +0.000 A 
ATOM     27  C   UNL     1       5.130   5.975  16.286  0.00  0.00    +0.000 A 
ATOM     28  C   UNL     1       5.945   6.007  15.156  0.00  0.00    +0.000 A 
ATOM     29  C   UNL     1       6.332   4.811  14.546  0.00  0.00    +0.000 A 
ATOM     30  C   UNL     1       5.933   3.585  15.096  0.00  0.00    +0.000 A 
ATOM     31  C   UNL     1       5.109   3.557  16.223  0.00  0.00    +0.000 A 
BRANCH  29  32
ATOM     32  C   UNL     1       7.205   4.895  13.348  0.00  0.00    +0.000 C 
ATOM     33  O   UNL     1       7.042   4.201  12.358  0.00  0.00    +0.000 OA
BRANCH  32  34
ATOM     34  O   UNL     1       8.223   5.769  13.479  0.00  0.00    +0.000 OA
ATOM     35  H   UNL     1       9.049   5.504  13.035  0.00  0.00    +0.000 HD
ENDBRANCH  32  34
ENDBRANCH  29  32
ENDBRANCH  25  26
ENDBRANCH  24  25
ENDBRANCH   6  24
TORSDOF 9
ENDMDL
