MODEL 1
REMARK VINA RESULT:      -7.1      0.000      0.000
REMARK  Name = 
REMARK  4 active torsions:
REMARK  status: ('A' for Active; 'I' for Inactive)
REMARK    1  A    between atoms: C_1  and  C_2
REMARK    2  A    between atoms: N_9  and  C_10
REMARK    3  A    between atoms: C_10  and  C_11
REMARK    4  A    between atoms: C_18  and  C_19
REMARK                            x       y       z     vdW  Elec       q    Type
REMARK                         _______ _______ _______ _____ _____    ______ ____
ROOT
ATOM      1  C   UNL     1       1.600   2.516  20.738  0.00  0.00    +0.000 C 
ATOM      2  C   UNL     1       2.139   3.671  19.954  0.00  0.00    +0.000 A 
ATOM      3  S   UNL     1       1.533   5.236  20.232  0.00  0.00    +0.000 S 
ATOM      4  C   UNL     1       2.556   5.911  19.056  0.00  0.00    +0.000 A 
ATOM      5  N   UNL     1       2.501   7.234  18.828  0.00  0.00    +0.000 NA
ATOM      6  C   UNL     1       3.349   7.617  17.878  0.00  0.00    +0.000 A 
ATOM      7  N   UNL     1       4.201   6.846  17.189  0.00  0.00    +0.000 NA
ATOM      8  C   UNL     1       4.240   5.515  17.434  0.00  0.00    +0.000 A 
ATOM      9  N   UNL     1       5.102   4.726  16.680  0.00  0.00    +0.000 N 
ATOM     10  C   UNL     1       3.375   4.981  18.429  0.00  0.00    +0.000 A 
ATOM     11  C   UNL     1       3.124   3.642  18.974  0.00  0.00    +0.000 A 
ATOM     12  C   UNL     1       3.787   2.352  18.597  0.00  0.00    +0.000 C 
ATOM     13  H   UNL     1       5.349   3.870  17.144  0.00  0.00    +0.000 HD
ENDROOT
BRANCH   9  14
ATOM     14  C   UNL     1       6.266   5.360  16.088  0.00  0.00    +0.000 C 
BRANCH  14  15
ATOM     15  C   UNL     1       6.429   4.815  14.682  0.00  0.00    +0.000 A 
ATOM     16  C   UNL     1       7.494   5.248  13.876  0.00  0.00    +0.000 A 
ATOM     17  C   UNL     1       7.641   4.767  12.572  0.00  0.00    +0.000 A 
ATOM     18  C   UNL     1       6.724   3.852  12.058  0.00  0.00    +0.000 A 
ATOM     19  C   UNL     1       5.659   3.420  12.847  0.00  0.00    +0.000 A 
ATOM     20  C   UNL     1       5.510   3.899  14.150  0.00  0.00    +0.000 A 
ENDBRANCH  14  15
ENDBRANCH   9  14
TORSDOF 2
ENDMDL
MODEL 2
REMARK VINA RESULT:      -7.1      4.782      7.009
REMARK  Name = 
REMARK  4 active torsions:
REMARK  status: ('A' for Active; 'I' for Inactive)
REMARK    1  A    between atoms: C_1  and  C_2
REMARK    2  A    between atoms: N_9  and  C_10
REMARK    3  A    between atoms: C_10  and  C_11
REMARK    4  A    between atoms: C_18  and  C_19
REMARK                            x       y       z     vdW  Elec       q    Type
REMARK                         _______ _______ _______ _____ _____    ______ ____
ROOT
ATOM      1  C   UNL     1      -1.109  12.104  22.521  0.00  0.00    +0.000 C 
ATOM      2  C   UNL     1      -0.335  11.334  21.498  0.00  0.00    +0.000 A 
ATOM      3  S   UNL     1       0.069  12.066  20.016  0.00  0.00    +0.000 S 
ATOM      4  C   UNL     1       0.861  10.668  19.466  0.00  0.00    +0.000 A 
ATOM      5  N   UNL     1       1.421  10.675  18.245  0.00  0.00    +0.000 NA
ATOM      6  C   UNL     1       1.995   9.514  17.947  0.00  0.00    +0.000 A 
ATOM      7  N   UNL     1       2.065   8.419  18.717  0.00  0.00    +0.000 NA
ATOM      8  C   UNL     1       1.493   8.434  19.945  0.00  0.00    +0.000 A 
ATOM      9  N   UNL     1       1.540   7.275  20.713  0.00  0.00    +0.000 N 
ATOM     10  C   UNL     1       0.842   9.621  20.379  0.00  0.00    +0.000 A 
ATOM     11  C   UNL     1       0.129  10.027  21.595  0.00  0.00    +0.000 A 
ATOM     12  C   UNL     1      -0.120   9.221  22.833  0.00  0.00    +0.000 C 
ATOM     13  H   UNL     1       1.447   7.458  21.696  0.00  0.00    +0.000 HD
ENDROOT
BRANCH   9  14
ATOM     14  C   UNL     1       2.609   6.327  20.452  0.00  0.00    +0.000 C 
BRANCH  14  15
ATOM     15  C   UNL     1       1.983   5.061  19.898  0.00  0.00    +0.000 A 
ATOM     16  C   UNL     1       1.415   4.115  20.768  0.00  0.00    +0.000 A 
ATOM     17  C   UNL     1       0.854   2.937  20.270  0.00  0.00    +0.000 A 
ATOM     18  C   UNL     1       0.857   2.688  18.898  0.00  0.00    +0.000 A 
ATOM     19  C   UNL     1       1.424   3.616  18.026  0.00  0.00    +0.000 A 
ATOM     20  C   UNL     1       1.985   4.794  18.521  0.00  0.00    +0.000 A 
ENDBRANCH  14  15
ENDBRANCH   9  14
TORSDOF 2
ENDMDL
MODEL 3
REMARK VINA RESULT:      -7.0      3.466      7.425
REMARK  Name = 
REMARK  4 active torsions:
REMARK  status: ('A' for Active; 'I' for Inactive)
REMARK    1  A    between atoms: C_1  and  C_2
REMARK    2  A    between atoms: N_9  and  C_10
REMARK    3  A    between atoms: C_10  and  C_11
REMARK    4  A    between atoms: C_18  and  C_19
REMARK                            x       y       z     vdW  Elec       q    Type
REMARK                         _______ _______ _______ _____ _____    ______ ____
ROOT
ATOM      1  C   UNL     1       2.064   1.866  19.294  0.00  0.00    +0.000 C 
ATOM      2  C   UNL     1       2.491   3.233  18.861  0.00  0.00    +0.000 A 
ATOM      3  S   UNL     1       3.635   3.404  17.613  0.00  0.00    +0.000 S 
ATOM      4  C   UNL     1       3.588   5.099  17.714  0.00  0.00    +0.000 A 
ATOM      5  N   UNL     1       4.363   5.822  16.888  0.00  0.00    +0.000 NA
ATOM      6  C   UNL     1       4.228   7.129  17.087  0.00  0.00    +0.000 A 
ATOM      7  N   UNL     1       3.430   7.740  17.973  0.00  0.00    +0.000 NA
ATOM      8  C   UNL     1       2.657   6.992  18.796  0.00  0.00    +0.000 A 
ATOM      9  N   UNL     1       1.865   7.643  19.737  0.00  0.00    +0.000 N 
ATOM     10  C   UNL     1       2.714   5.575  18.683  0.00  0.00    +0.000 A 
ATOM     11  C   UNL     1       2.057   4.454  19.363  0.00  0.00    +0.000 A 
ATOM     12  C   UNL     1       1.039   4.508  20.462  0.00  0.00    +0.000 C 
ATOM     13  H   UNL     1       1.080   7.090  20.031  0.00  0.00    +0.000 HD
ENDROOT
BRANCH   9  14
ATOM     14  C   UNL     1       1.472   9.014  19.466  0.00  0.00    +0.000 C 
BRANCH  14  15
ATOM     15  C   UNL     1       0.696   9.521  20.667  0.00  0.00    +0.000 A 
ATOM     16  C   UNL     1      -0.070  10.695  20.568  0.00  0.00    +0.000 A 
ATOM     17  C   UNL     1      -0.772  11.182  21.674  0.00  0.00    +0.000 A 
ATOM     18  C   UNL     1      -0.713  10.505  22.891  0.00  0.00    +0.000 A 
ATOM     19  C   UNL     1       0.049   9.343  23.002  0.00  0.00    +0.000 A 
ATOM     20  C   UNL     1       0.751   8.854  21.899  0.00  0.00    +0.000 A 
ENDBRANCH  14  15
ENDBRANCH   9  14
TORSDOF 2
ENDMDL
MODEL 4
REMARK VINA RESULT:      -6.9      1.898      3.227
REMARK  Name = 
REMARK  4 active torsions:
REMARK  status: ('A' for Active; 'I' for Inactive)
REMARK    1  A    between atoms: C_1  and  C_2
REMARK    2  A    between atoms: N_9  and  C_10
REMARK    3  A    between atoms: C_10  and  C_11
REMARK    4  A    between atoms: C_18  and  C_19
REMARK                            x       y       z     vdW  Elec       q    Type
REMARK                         _______ _______ _______ _____ _____    ______ ____
ROOT
ATOM      1  C   UNL     1       1.735   2.518  21.569  0.00  0.00    +0.000 C 
ATOM      2  C   UNL     1       2.146   3.599  20.620  0.00  0.00    +0.000 A 
ATOM      3  S   UNL     1       1.554   5.180  20.834  0.00  0.00    +0.000 S 
ATOM      4  C   UNL     1       2.401   5.751  19.478  0.00  0.00    +0.000 A 
ATOM      5  N   UNL     1       2.293   7.047  19.141  0.00  0.00    +0.000 NA
ATOM      6  C   UNL     1       3.002   7.347  18.057  0.00  0.00    +0.000 A 
ATOM      7  N   UNL     1       3.770   6.521  17.333  0.00  0.00    +0.000 NA
ATOM      8  C   UNL     1       3.865   5.218  17.690  0.00  0.00    +0.000 A 
ATOM      9  N   UNL     1       4.634   4.368  16.902  0.00  0.00    +0.000 N 
ATOM     10  C   UNL     1       3.148   4.772  18.834  0.00  0.00    +0.000 A 
ATOM     11  C   UNL     1       2.995   3.487  19.525  0.00  0.00    +0.000 A 
ATOM     12  C   UNL     1       3.625   2.172  19.181  0.00  0.00    +0.000 C 
ATOM     13  H   UNL     1       4.955   3.560  17.404  0.00  0.00    +0.000 HD
ENDROOT
BRANCH   9  14
ATOM     14  C   UNL     1       5.699   4.953  16.107  0.00  0.00    +0.000 C 
BRANCH  14  15
ATOM     15  C   UNL     1       6.622   5.704  17.047  0.00  0.00    +0.000 A 
ATOM     16  C   UNL     1       7.131   5.070  18.192  0.00  0.00    +0.000 A 
ATOM     17  C   UNL     1       7.966   5.759  19.076  0.00  0.00    +0.000 A 
ATOM     18  C   UNL     1       8.297   7.091  18.829  0.00  0.00    +0.000 A 
ATOM     19  C   UNL     1       7.792   7.732  17.699  0.00  0.00    +0.000 A 
ATOM     20  C   UNL     1       6.958   7.046  16.814  0.00  0.00    +0.000 A 
ENDBRANCH  14  15
ENDBRANCH   9  14
TORSDOF 2
ENDMDL
MODEL 5
REMARK VINA RESULT:      -6.8      0.702      1.306
REMARK  Name = 
REMARK  4 active torsions:
REMARK  status: ('A' for Active; 'I' for Inactive)
REMARK    1  A    between atoms: C_1  and  C_2
REMARK    2  A    between atoms: N_9  and  C_10
REMARK    3  A    between atoms: C_10  and  C_11
REMARK    4  A    between atoms: C_18  and  C_19
REMARK                            x       y       z     vdW  Elec       q    Type
REMARK                         _______ _______ _______ _____ _____    ______ ____
ROOT
ATOM      1  C   UNL     1       2.199   3.412  21.698  0.00  0.00    +0.000 C 
ATOM      2  C   UNL     1       2.559   4.414  20.646  0.00  0.00    +0.000 A 
ATOM      3  S   UNL     1       1.760   5.916  20.601  0.00  0.00    +0.000 S 
ATOM      4  C   UNL     1       2.652   6.424  19.248  0.00  0.00    +0.000 A 
ATOM      5  N   UNL     1       2.416   7.642  18.733  0.00  0.00    +0.000 NA
ATOM      6  C   UNL     1       3.180   7.898  17.676  0.00  0.00    +0.000 A 
ATOM      7  N   UNL     1       4.107   7.100  17.129  0.00  0.00    +0.000 NA
ATOM      8  C   UNL     1       4.328   5.876  17.663  0.00  0.00    +0.000 A 
ATOM      9  N   UNL     1       5.266   5.046  17.057  0.00  0.00    +0.000 N 
ATOM     10  C   UNL     1       3.570   5.482  18.800  0.00  0.00    +0.000 A 
ATOM     11  C   UNL     1       3.512   4.283  19.643  0.00  0.00    +0.000 A 
ATOM     12  C   UNL     1       4.329   3.032  19.527  0.00  0.00    +0.000 C 
ATOM     13  H   UNL     1       5.636   4.356  17.686  0.00  0.00    +0.000 HD
ENDROOT
BRANCH   9  14
ATOM     14  C   UNL     1       6.320   5.666  16.273  0.00  0.00    +0.000 C 
BRANCH  14  15
ATOM     15  C   UNL     1       6.356   4.981  14.920  0.00  0.00    +0.000 A 
ATOM     16  C   UNL     1       5.332   4.095  14.549  0.00  0.00    +0.000 A 
ATOM     17  C   UNL     1       5.366   3.444  13.313  0.00  0.00    +0.000 A 
ATOM     18  C   UNL     1       6.426   3.667  12.436  0.00  0.00    +0.000 A 
ATOM     19  C   UNL     1       7.452   4.540  12.796  0.00  0.00    +0.000 A 
ATOM     20  C   UNL     1       7.420   5.192  14.030  0.00  0.00    +0.000 A 
ENDBRANCH  14  15
ENDBRANCH   9  14
TORSDOF 2
ENDMDL
MODEL 6
REMARK VINA RESULT:      -6.8      3.011      6.630
REMARK  Name = 
REMARK  4 active torsions:
REMARK  status: ('A' for Active; 'I' for Inactive)
REMARK    1  A    between atoms: C_1  and  C_2
REMARK    2  A    between atoms: N_9  and  C_10
REMARK    3  A    between atoms: C_10  and  C_11
REMARK    4  A    between atoms: C_18  and  C_19
REMARK                            x       y       z     vdW  Elec       q    Type
REMARK                         _______ _______ _______ _____ _____    ______ ____
ROOT
ATOM      1  C   UNL     1       2.414   2.687  21.262  0.00  0.00    +0.000 C 
ATOM      2  C   UNL     1       2.906   3.659  20.236  0.00  0.00    +0.000 A 
ATOM      3  S   UNL     1       4.137   3.196  19.156  0.00  0.00    +0.000 S 
ATOM      4  C   UNL     1       4.129   4.714  18.394  0.00  0.00    +0.000 A 
ATOM      5  N   UNL     1       4.978   4.935  17.376  0.00  0.00    +0.000 NA
ATOM      6  C   UNL     1       4.865   6.166  16.885  0.00  0.00    +0.000 A 
ATOM      7  N   UNL     1       4.025   7.129  17.287  0.00  0.00    +0.000 NA
ATOM      8  C   UNL     1       3.177   6.884  18.315  0.00  0.00    +0.000 A 
ATOM      9  N   UNL     1       2.341   7.910  18.744  0.00  0.00    +0.000 N 
ATOM     10  C   UNL     1       3.204   5.601  18.929  0.00  0.00    +0.000 A 
ATOM     11  C   UNL     1       2.472   4.963  20.028  0.00  0.00    +0.000 A 
ATOM     12  C   UNL     1       1.383   5.548  20.876  0.00  0.00    +0.000 C 
ATOM     13  H   UNL     1       1.524   7.569  19.218  0.00  0.00    +0.000 HD
ENDROOT
BRANCH   9  14
ATOM     14  C   UNL     1       2.005   8.957  17.797  0.00  0.00    +0.000 C 
BRANCH  14  15
ATOM     15  C   UNL     1       0.823   9.728  18.357  0.00  0.00    +0.000 A 
ATOM     16  C   UNL     1       0.928  10.373  19.599  0.00  0.00    +0.000 A 
ATOM     17  C   UNL     1      -0.161  11.069  20.134  0.00  0.00    +0.000 A 
ATOM     18  C   UNL     1      -1.365  11.123  19.435  0.00  0.00    +0.000 A 
ATOM     19  C   UNL     1      -1.482  10.480  18.203  0.00  0.00    +0.000 A 
ATOM     20  C   UNL     1      -0.396   9.785  17.667  0.00  0.00    +0.000 A 
ENDBRANCH  14  15
ENDBRANCH   9  14
TORSDOF 2
ENDMDL
MODEL 7
REMARK VINA RESULT:      -6.7      3.305      7.326
REMARK  Name = 
REMARK  4 active torsions:
REMARK  status: ('A' for Active; 'I' for Inactive)
REMARK    1  A    between atoms: C_1  and  C_2
REMARK    2  A    between atoms: N_9  and  C_10
REMARK    3  A    between atoms: C_10  and  C_11
REMARK    4  A    between atoms: C_18  and  C_19
REMARK                            x       y       z     vdW  Elec       q    Type
REMARK                         _______ _______ _______ _____ _____    ______ ____
ROOT
ATOM      1  C   UNL     1       5.409   4.079  16.076  0.00  0.00    +0.000 C 
ATOM      2  C   UNL     1       4.423   4.137  17.200  0.00  0.00    +0.000 A 
ATOM      3  S   UNL     1       3.756   2.697  17.814  0.00  0.00    +0.000 S 
ATOM      4  C   UNL     1       2.819   3.540  18.953  0.00  0.00    +0.000 A 
ATOM      5  N   UNL     1       2.022   2.845  19.782  0.00  0.00    +0.000 NA
ATOM      6  C   UNL     1       1.344   3.635  20.609  0.00  0.00    +0.000 A 
ATOM      7  N   UNL     1       1.398   4.972  20.684  0.00  0.00    +0.000 NA
ATOM      8  C   UNL     1       2.207   5.653  19.839  0.00  0.00    +0.000 A 
ATOM      9  N   UNL     1       2.218   7.042  19.904  0.00  0.00    +0.000 N 
ATOM     10  C   UNL     1       2.984   4.918  18.901  0.00  0.00    +0.000 A 
ATOM     11  C   UNL     1       3.949   5.269  17.853  0.00  0.00    +0.000 A 
ATOM     12  C   UNL     1       4.430   6.633  17.459  0.00  0.00    +0.000 C 
ATOM     13  H   UNL     1       3.067   7.440  19.544  0.00  0.00    +0.000 HD
ENDROOT
BRANCH   9  14
ATOM     14  C   UNL     1       1.832   7.669  21.156  0.00  0.00    +0.000 C 
BRANCH  14  15
ATOM     15  C   UNL     1       0.996   8.891  20.826  0.00  0.00    +0.000 A 
ATOM     16  C   UNL     1       0.942   9.373  19.508  0.00  0.00    +0.000 A 
ATOM     17  C   UNL     1       0.191  10.509  19.196  0.00  0.00    +0.000 A 
ATOM     18  C   UNL     1      -0.510  11.179  20.197  0.00  0.00    +0.000 A 
ATOM     19  C   UNL     1      -0.458  10.713  21.511  0.00  0.00    +0.000 A 
ATOM     20  C   UNL     1       0.291   9.578  21.824  0.00  0.00    +0.000 A 
ENDBRANCH  14  15
ENDBRANCH   9  14
TORSDOF 2
ENDMDL
MODEL 8
REMARK VINA RESULT:      -6.7      3.308      7.333
REMARK  Name = 
REMARK  4 active torsions:
REMARK  status: ('A' for Active; 'I' for Inactive)
REMARK    1  A    between atoms: C_1  and  C_2
REMARK    2  A    between atoms: N_9  and  C_10
REMARK    3  A    between atoms: C_10  and  C_11
REMARK    4  A    between atoms: C_18  and  C_19
REMARK                            x       y       z     vdW  Elec       q    Type
REMARK                         _______ _______ _______ _____ _____    ______ ____
ROOT
ATOM      1  C   UNL     1       5.308   4.094  16.015  0.00  0.00    +0.000 C 
ATOM      2  C   UNL     1       4.327   4.179  17.142  0.00  0.00    +0.000 A 
ATOM      3  S   UNL     1       3.684   2.753  17.811  0.00  0.00    +0.000 S 
ATOM      4  C   UNL     1       2.741   3.623  18.925  0.00  0.00    +0.000 A 
ATOM      5  N   UNL     1       1.959   2.947  19.783  0.00  0.00    +0.000 NA
ATOM      6  C   UNL     1       1.275   3.757  20.586  0.00  0.00    +0.000 A 
ATOM      7  N   UNL     1       1.310   5.096  20.612  0.00  0.00    +0.000 NA
ATOM      8  C   UNL     1       2.106   5.758  19.738  0.00  0.00    +0.000 A 
ATOM      9  N   UNL     1       2.098   7.149  19.754  0.00  0.00    +0.000 N 
ATOM     10  C   UNL     1       2.888   5.001  18.822  0.00  0.00    +0.000 A 
ATOM     11  C   UNL     1       3.841   5.327  17.757  0.00  0.00    +0.000 A 
ATOM     12  C   UNL     1       4.302   6.682  17.312  0.00  0.00    +0.000 C 
ATOM     13  H   UNL     1       2.939   7.544  19.374  0.00  0.00    +0.000 HD
ENDROOT
BRANCH   9  14
ATOM     14  C   UNL     1       1.710   7.814  20.985  0.00  0.00    +0.000 C 
BRANCH  14  15
ATOM     15  C   UNL     1       0.919   9.055  20.613  0.00  0.00    +0.000 A 
ATOM     16  C   UNL     1       0.160   9.725  21.586  0.00  0.00    +0.000 A 
ATOM     17  C   UNL     1      -0.588  10.857  21.250  0.00  0.00    +0.000 A 
ATOM     18  C   UNL     1      -0.590  11.327  19.938  0.00  0.00    +0.000 A 
ATOM     19  C   UNL     1       0.154  10.666  18.962  0.00  0.00    +0.000 A 
ATOM     20  C   UNL     1       0.903   9.536  19.296  0.00  0.00    +0.000 A 
ENDBRANCH  14  15
ENDBRANCH   9  14
TORSDOF 2
ENDMDL
MODEL 9
REMARK VINA RESULT:      -6.7      1.997      3.243
REMARK  Name = 
REMARK  4 active torsions:
REMARK  status: ('A' for Active; 'I' for Inactive)
REMARK    1  A    between atoms: C_1  and  C_2
REMARK    2  A    between atoms: N_9  and  C_10
REMARK    3  A    between atoms: C_10  and  C_11
REMARK    4  A    between atoms: C_18  and  C_19
REMARK                            x       y       z     vdW  Elec       q    Type
REMARK                         _______ _______ _______ _____ _____    ______ ____
ROOT
ATOM      1  C   UNL     1       2.019   2.505  21.836  0.00  0.00    +0.000 C 
ATOM      2  C   UNL     1       2.406   3.473  20.763  0.00  0.00    +0.000 A 
ATOM      3  S   UNL     1       1.653   4.996  20.688  0.00  0.00    +0.000 S 
ATOM      4  C   UNL     1       2.556   5.448  19.322  0.00  0.00    +0.000 A 
ATOM      5  N   UNL     1       2.356   6.662  18.782  0.00  0.00    +0.000 NA
ATOM      6  C   UNL     1       3.124   6.872  17.717  0.00  0.00    +0.000 A 
ATOM      7  N   UNL     1       4.025   6.035  17.185  0.00  0.00    +0.000 NA
ATOM      8  C   UNL     1       4.210   4.816  17.745  0.00  0.00    +0.000 A 
ATOM      9  N   UNL     1       5.120   3.945  17.154  0.00  0.00    +0.000 N 
ATOM     10  C   UNL     1       3.443   4.469  18.892  0.00  0.00    +0.000 A 
ATOM     11  C   UNL     1       3.352   3.291  19.760  0.00  0.00    +0.000 A 
ATOM     12  C   UNL     1       4.130   2.013  19.669  0.00  0.00    +0.000 C 
ATOM     13  H   UNL     1       5.471   3.258  17.797  0.00  0.00    +0.000 HD
ENDROOT
BRANCH   9  14
ATOM     14  C   UNL     1       6.190   4.516  16.355  0.00  0.00    +0.000 C 
BRANCH  14  15
ATOM     15  C   UNL     1       6.935   5.514  17.221  0.00  0.00    +0.000 A 
ATOM     16  C   UNL     1       7.111   6.837  16.782  0.00  0.00    +0.000 A 
ATOM     17  C   UNL     1       7.813   7.759  17.562  0.00  0.00    +0.000 A 
ATOM     18  C   UNL     1       8.350   7.370  18.788  0.00  0.00    +0.000 A 
ATOM     19  C   UNL     1       8.187   6.058  19.231  0.00  0.00    +0.000 A 
ATOM     20  C   UNL     1       7.486   5.135  18.453  0.00  0.00    +0.000 A 
ENDBRANCH  14  15
ENDBRANCH   9  14
TORSDOF 2
ENDMDL
