MODEL 1
REMARK VINA RESULT:      -6.9      0.000      0.000
REMARK  Name = 
REMARK  3 active torsions:
REMARK  status: ('A' for Active; 'I' for Inactive)
REMARK    1  A    between atoms: C_1  and  C_2
REMARK    2  A    between atoms: C_2  and  C_3
REMARK    3  A    between atoms: C_3  and  C_4
REMARK                            x       y       z     vdW  Elec       q    Type
REMARK                         _______ _______ _______ _____ _____    ______ ____
ROOT
ATOM      1  C   UNL     1       0.228  10.161  20.521  0.00  0.00    +0.000 A 
ATOM      2  N   UNL     1       0.865   9.979  19.410  0.00  0.00    +0.000 NA
ATOM      3  N   UNL     1       1.437   8.733  19.420  0.00  0.00    +0.000 N 
ATOM      4  C   UNL     1       2.201   8.306  18.345  0.00  0.00    +0.000 A 
ATOM      5  O   UNL     1       2.357   8.926  17.297  0.00  0.00    +0.000 OA
ATOM      6  C   UNL     1       2.806   7.009  18.586  0.00  0.00    +0.000 A 
ATOM      7  C   UNL     1       3.777   6.334  17.792  0.00  0.00    +0.000 A 
ATOM      8  C   UNL     1       4.078   5.096  18.321  0.00  0.00    +0.000 A 
ATOM      9  S   UNL     1       3.263   4.797  19.789  0.00  0.00    +0.000 S 
ATOM     10  C   UNL     1       2.486   6.323  19.744  0.00  0.00    +0.000 A 
ATOM     11  N   UNL     1       1.683   6.767  20.755  0.00  0.00    +0.000 NA
ATOM     12  C   UNL     1       1.224   7.959  20.543  0.00  0.00    +0.000 A 
ATOM     13  S   UNL     1       0.235   8.846  21.668  0.00  0.00    +0.000 S 
ATOM     14  C   UNL     1       5.063   4.133  17.726  0.00  0.00    +0.000 C 
ATOM     15  C   UNL     1       5.464   4.574  16.303  0.00  0.00    +0.000 C 
ATOM     16  C   UNL     1       5.703   6.087  16.218  0.00  0.00    +0.000 C 
ATOM     17  C   UNL     1       4.423   6.862  16.548  0.00  0.00    +0.000 C 
ENDROOT
BRANCH   1  18
ATOM     18  C   UNL     1      -0.485  11.444  20.830  0.00  0.00    +0.000 C 
BRANCH  18  20
ATOM     19  C   UNL     1      -1.944  11.807  22.872  0.00  0.00    +0.000 C 
ATOM     20  C   UNL     1      -0.524  11.719  22.332  0.00  0.00    +0.000 C 
ENDBRANCH  18  20
ENDBRANCH   1  18
TORSDOF 2
ENDMDL
MODEL 2
REMARK VINA RESULT:      -6.7      0.672      1.033
REMARK  Name = 
REMARK  3 active torsions:
REMARK  status: ('A' for Active; 'I' for Inactive)
REMARK    1  A    between atoms: C_1  and  C_2
REMARK    2  A    between atoms: C_2  and  C_3
REMARK    3  A    between atoms: C_3  and  C_4
REMARK                            x       y       z     vdW  Elec       q    Type
REMARK                         _______ _______ _______ _____ _____    ______ ____
ROOT
ATOM      1  C   UNL     1       0.339  10.299  20.570  0.00  0.00    +0.000 A 
ATOM      2  N   UNL     1       0.956  10.096  19.452  0.00  0.00    +0.000 NA
ATOM      3  N   UNL     1       1.479   8.828  19.453  0.00  0.00    +0.000 N 
ATOM      4  C   UNL     1       2.213   8.374  18.368  0.00  0.00    +0.000 A 
ATOM      5  O   UNL     1       2.382   8.991  17.320  0.00  0.00    +0.000 OA
ATOM      6  C   UNL     1       2.770   7.055  18.599  0.00  0.00    +0.000 A 
ATOM      7  C   UNL     1       3.705   6.344  17.793  0.00  0.00    +0.000 A 
ATOM      8  C   UNL     1       3.964   5.094  18.315  0.00  0.00    +0.000 A 
ATOM      9  S   UNL     1       3.155   4.823  19.792  0.00  0.00    +0.000 S 
ATOM     10  C   UNL     1       2.437   6.379  19.759  0.00  0.00    +0.000 A 
ATOM     11  N   UNL     1       1.664   6.850  20.781  0.00  0.00    +0.000 NA
ATOM     12  C   UNL     1       1.249   8.060  20.576  0.00  0.00    +0.000 A 
ATOM     13  S   UNL     1       0.308   8.982  21.715  0.00  0.00    +0.000 S 
ATOM     14  C   UNL     1       4.904   4.095  17.707  0.00  0.00    +0.000 C 
ATOM     15  C   UNL     1       5.305   4.524  16.281  0.00  0.00    +0.000 C 
ATOM     16  C   UNL     1       5.602   6.026  16.197  0.00  0.00    +0.000 C 
ATOM     17  C   UNL     1       4.358   6.850  16.543  0.00  0.00    +0.000 C 
ENDROOT
BRANCH   1  18
ATOM     18  C   UNL     1      -0.320  11.608  20.891  0.00  0.00    +0.000 C 
BRANCH  18  20
ATOM     19  C   UNL     1      -2.198  12.059  19.248  0.00  0.00    +0.000 C 
ATOM     20  C   UNL     1      -0.752  12.346  19.625  0.00  0.00    +0.000 C 
ENDBRANCH  18  20
ENDBRANCH   1  18
TORSDOF 2
ENDMDL
MODEL 3
REMARK VINA RESULT:      -6.6      1.347      6.927
REMARK  Name = 
REMARK  3 active torsions:
REMARK  status: ('A' for Active; 'I' for Inactive)
REMARK    1  A    between atoms: C_1  and  C_2
REMARK    2  A    between atoms: C_2  and  C_3
REMARK    3  A    between atoms: C_3  and  C_4
REMARK                            x       y       z     vdW  Elec       q    Type
REMARK                         _______ _______ _______ _____ _____    ______ ____
ROOT
ATOM      1  C   UNL     1       3.569   5.971  18.010  0.00  0.00    +0.000 A 
ATOM      2  N   UNL     1       3.154   7.133  17.623  0.00  0.00    +0.000 NA
ATOM      3  N   UNL     1       2.439   7.715  18.639  0.00  0.00    +0.000 N 
ATOM      4  C   UNL     1       1.864   8.963  18.462  0.00  0.00    +0.000 A 
ATOM      5  O   UNL     1       2.005   9.674  17.470  0.00  0.00    +0.000 OA
ATOM      6  C   UNL     1       1.063   9.362  19.604  0.00  0.00    +0.000 A 
ATOM      7  C   UNL     1       0.197  10.488  19.718  0.00  0.00    +0.000 A 
ATOM      8  C   UNL     1      -0.360  10.562  20.977  0.00  0.00    +0.000 A 
ATOM      9  S   UNL     1       0.093   9.251  21.970  0.00  0.00    +0.000 S 
ATOM     10  C   UNL     1       1.050   8.558  20.729  0.00  0.00    +0.000 A 
ATOM     11  N   UNL     1       1.679   7.354  20.875  0.00  0.00    +0.000 NA
ATOM     12  C   UNL     1       2.319   6.993  19.809  0.00  0.00    +0.000 A 
ATOM     13  S   UNL     1       3.161   5.479  19.634  0.00  0.00    +0.000 S 
ATOM     14  C   UNL     1      -1.317  11.629  21.424  0.00  0.00    +0.000 C 
ATOM     15  C   UNL     1      -1.359  12.783  20.403  0.00  0.00    +0.000 C 
ATOM     16  C   UNL     1      -1.382  12.270  18.957  0.00  0.00    +0.000 C 
ATOM     17  C   UNL     1      -0.109  11.479  18.637  0.00  0.00    +0.000 C 
ENDROOT
BRANCH   1  18
ATOM     18  C   UNL     1       4.360   5.067  17.112  0.00  0.00    +0.000 C 
BRANCH  18  20
ATOM     19  C   UNL     1       5.666   4.997  14.940  0.00  0.00    +0.000 C 
ATOM     20  C   UNL     1       5.179   5.859  16.095  0.00  0.00    +0.000 C 
ENDBRANCH  18  20
ENDBRANCH   1  18
TORSDOF 2
ENDMDL
MODEL 4
REMARK VINA RESULT:      -6.5      0.793      1.197
REMARK  Name = 
REMARK  3 active torsions:
REMARK  status: ('A' for Active; 'I' for Inactive)
REMARK    1  A    between atoms: C_1  and  C_2
REMARK    2  A    between atoms: C_2  and  C_3
REMARK    3  A    between atoms: C_3  and  C_4
REMARK                            x       y       z     vdW  Elec       q    Type
REMARK                         _______ _______ _______ _____ _____    ______ ____
ROOT
ATOM      1  C   UNL     1       0.383  10.396  20.435  0.00  0.00    +0.000 A 
ATOM      2  N   UNL     1       1.007  10.155  19.327  0.00  0.00    +0.000 NA
ATOM      3  N   UNL     1       1.513   8.881  19.366  0.00  0.00    +0.000 N 
ATOM      4  C   UNL     1       2.250   8.390  18.300  0.00  0.00    +0.000 A 
ATOM      5  O   UNL     1       2.436   8.976  17.237  0.00  0.00    +0.000 OA
ATOM      6  C   UNL     1       2.787   7.070  18.571  0.00  0.00    +0.000 A 
ATOM      7  C   UNL     1       3.720   6.326  17.791  0.00  0.00    +0.000 A 
ATOM      8  C   UNL     1       3.957   5.087  18.349  0.00  0.00    +0.000 A 
ATOM      9  S   UNL     1       3.133   4.865  19.825  0.00  0.00    +0.000 S 
ATOM     10  C   UNL     1       2.436   6.429  19.745  0.00  0.00    +0.000 A 
ATOM     11  N   UNL     1       1.660   6.937  20.747  0.00  0.00    +0.000 NA
ATOM     12  C   UNL     1       1.263   8.146  20.507  0.00  0.00    +0.000 A 
ATOM     13  S   UNL     1       0.325   9.110  21.613  0.00  0.00    +0.000 S 
ATOM     14  C   UNL     1       4.890   4.060  17.774  0.00  0.00    +0.000 C 
ATOM     15  C   UNL     1       5.309   4.446  16.342  0.00  0.00    +0.000 C 
ATOM     16  C   UNL     1       5.626   5.942  16.220  0.00  0.00    +0.000 C 
ATOM     17  C   UNL     1       4.389   6.791  16.534  0.00  0.00    +0.000 C 
ENDROOT
BRANCH   1  18
ATOM     18  C   UNL     1      -0.262  11.721  20.715  0.00  0.00    +0.000 C 
BRANCH  18  20
ATOM     19  C   UNL     1       1.672  13.361  20.704  0.00  0.00    +0.000 C 
ATOM     20  C   UNL     1       0.438  12.857  19.971  0.00  0.00    +0.000 C 
ENDBRANCH  18  20
ENDBRANCH   1  18
TORSDOF 2
ENDMDL
MODEL 5
REMARK VINA RESULT:      -6.4      1.560      6.832
REMARK  Name = 
REMARK  3 active torsions:
REMARK  status: ('A' for Active; 'I' for Inactive)
REMARK    1  A    between atoms: C_1  and  C_2
REMARK    2  A    between atoms: C_2  and  C_3
REMARK    3  A    between atoms: C_3  and  C_4
REMARK                            x       y       z     vdW  Elec       q    Type
REMARK                         _______ _______ _______ _____ _____    ______ ____
ROOT
ATOM      1  C   UNL     1       3.146   5.570  18.301  0.00  0.00    +0.000 A 
ATOM      2  N   UNL     1       2.836   6.734  17.830  0.00  0.00    +0.000 NA
ATOM      3  N   UNL     1       2.221   7.465  18.814  0.00  0.00    +0.000 N 
ATOM      4  C   UNL     1       1.767   8.749  18.551  0.00  0.00    +0.000 A 
ATOM      5  O   UNL     1       1.942   9.359  17.500  0.00  0.00    +0.000 OA
ATOM      6  C   UNL     1       1.054   9.318  19.679  0.00  0.00    +0.000 A 
ATOM      7  C   UNL     1       0.310  10.532  19.723  0.00  0.00    +0.000 A 
ATOM      8  C   UNL     1      -0.189  10.763  20.988  0.00  0.00    +0.000 A 
ATOM      9  S   UNL     1       0.167   9.496  22.073  0.00  0.00    +0.000 S 
ATOM     10  C   UNL     1       1.002   8.611  20.867  0.00  0.00    +0.000 A 
ATOM     11  N   UNL     1       1.512   7.365  21.094  0.00  0.00    +0.000 NA
ATOM     12  C   UNL     1       2.072   6.855  20.044  0.00  0.00    +0.000 A 
ATOM     13  S   UNL     1       2.752   5.254  19.971  0.00  0.00    +0.000 S 
ATOM     14  C   UNL     1      -1.017  11.955  21.371  0.00  0.00    +0.000 C 
ATOM     15  C   UNL     1      -0.982  13.023  20.259  0.00  0.00    +0.000 C 
ATOM     16  C   UNL     1      -1.110  12.401  18.863  0.00  0.00    +0.000 C 
ATOM     17  C   UNL     1       0.064  11.460  18.573  0.00  0.00    +0.000 C 
ENDROOT
BRANCH   1  18
ATOM     18  C   UNL     1       3.809   4.520  17.459  0.00  0.00    +0.000 C 
BRANCH  18  20
ATOM     19  C   UNL     1       3.093   2.119  17.845  0.00  0.00    +0.000 C 
ATOM     20  C   UNL     1       2.836   3.407  17.077  0.00  0.00    +0.000 C 
ENDBRANCH  18  20
ENDBRANCH   1  18
TORSDOF 2
ENDMDL
MODEL 6
REMARK VINA RESULT:      -6.4      2.233      7.142
REMARK  Name = 
REMARK  3 active torsions:
REMARK  status: ('A' for Active; 'I' for Inactive)
REMARK    1  A    between atoms: C_1  and  C_2
REMARK    2  A    between atoms: C_2  and  C_3
REMARK    3  A    between atoms: C_3  and  C_4
REMARK                            x       y       z     vdW  Elec       q    Type
REMARK                         _______ _______ _______ _____ _____    ______ ____
ROOT
ATOM      1  C   UNL     1       4.684   5.351  17.658  0.00  0.00    +0.000 A 
ATOM      2  N   UNL     1       3.929   5.388  18.708  0.00  0.00    +0.000 NA
ATOM      3  N   UNL     1       3.221   6.563  18.709  0.00  0.00    +0.000 N 
ATOM      4  C   UNL     1       2.352   6.854  19.750  0.00  0.00    +0.000 A 
ATOM      5  O   UNL     1       2.075   6.095  20.674  0.00  0.00    +0.000 OA
ATOM      6  C   UNL     1       1.780   8.181  19.627  0.00  0.00    +0.000 A 
ATOM      7  C   UNL     1       0.987   8.885  20.579  0.00  0.00    +0.000 A 
ATOM      8  C   UNL     1       0.586  10.109  20.085  0.00  0.00    +0.000 A 
ATOM      9  S   UNL     1       1.226  10.430  18.537  0.00  0.00    +0.000 S 
ATOM     10  C   UNL     1       2.052   8.929  18.496  0.00  0.00    +0.000 A 
ATOM     11  N   UNL     1       2.878   8.576  17.468  0.00  0.00    +0.000 NA
ATOM     12  C   UNL     1       3.433   7.420  17.648  0.00  0.00    +0.000 A 
ATOM     13  S   UNL     1       4.598   6.709  16.565  0.00  0.00    +0.000 S 
ATOM     14  C   UNL     1      -0.259  11.095  20.837  0.00  0.00    +0.000 C 
ATOM     15  C   UNL     1      -0.864  10.443  22.097  0.00  0.00    +0.000 C 
ATOM     16  C   UNL     1       0.155   9.567  22.835  0.00  0.00    +0.000 C 
ATOM     17  C   UNL     1       0.622   8.406  21.951  0.00  0.00    +0.000 C 
ENDROOT
BRANCH   1  18
ATOM     18  C   UNL     1       5.608   4.203  17.381  0.00  0.00    +0.000 C 
BRANCH  18  20
ATOM     19  C   UNL     1       7.619   5.331  18.436  0.00  0.00    +0.000 C 
ATOM     20  C   UNL     1       7.049   4.672  17.189  0.00  0.00    +0.000 C 
ENDBRANCH  18  20
ENDBRANCH   1  18
TORSDOF 2
ENDMDL
MODEL 7
REMARK VINA RESULT:      -6.3      2.393      3.382
REMARK  Name = 
REMARK  3 active torsions:
REMARK  status: ('A' for Active; 'I' for Inactive)
REMARK    1  A    between atoms: C_1  and  C_2
REMARK    2  A    between atoms: C_2  and  C_3
REMARK    3  A    between atoms: C_3  and  C_4
REMARK                            x       y       z     vdW  Elec       q    Type
REMARK                         _______ _______ _______ _____ _____    ______ ____
ROOT
ATOM      1  C   UNL     1       0.744  10.661  19.285  0.00  0.00    +0.000 A 
ATOM      2  N   UNL     1       0.749   9.673  20.120  0.00  0.00    +0.000 NA
ATOM      3  N   UNL     1       1.539   8.669  19.620  0.00  0.00    +0.000 N 
ATOM      4  C   UNL     1       1.689   7.483  20.323  0.00  0.00    +0.000 A 
ATOM      5  O   UNL     1       1.231   7.259  21.440  0.00  0.00    +0.000 OA
ATOM      6  C   UNL     1       2.472   6.508  19.587  0.00  0.00    +0.000 A 
ATOM      7  C   UNL     1       2.692   5.138  19.908  0.00  0.00    +0.000 A 
ATOM      8  C   UNL     1       3.532   4.541  18.991  0.00  0.00    +0.000 A 
ATOM      9  S   UNL     1       3.975   5.596  17.727  0.00  0.00    +0.000 S 
ATOM     10  C   UNL     1       3.050   6.879  18.386  0.00  0.00    +0.000 A 
ATOM     11  N   UNL     1       2.915   8.083  17.757  0.00  0.00    +0.000 NA
ATOM     12  C   UNL     1       2.146   8.901  18.402  0.00  0.00    +0.000 A 
ATOM     13  S   UNL     1       1.704  10.488  17.838  0.00  0.00    +0.000 S 
ATOM     14  C   UNL     1       3.964   3.104  19.042  0.00  0.00    +0.000 C 
ATOM     15  C   UNL     1       3.595   2.473  20.400  0.00  0.00    +0.000 C 
ATOM     16  C   UNL     1       2.190   2.882  20.859  0.00  0.00    +0.000 C 
ATOM     17  C   UNL     1       2.102   4.397  21.069  0.00  0.00    +0.000 C 
ENDROOT
BRANCH   1  18
ATOM     18  C   UNL     1      -0.054  11.907  19.530  0.00  0.00    +0.000 C 
BRANCH  18  20
ATOM     19  C   UNL     1      -2.056  11.010  18.259  0.00  0.00    +0.000 C 
ATOM     20  C   UNL     1      -1.067  12.156  18.414  0.00  0.00    +0.000 C 
ENDBRANCH  18  20
ENDBRANCH   1  18
TORSDOF 2
ENDMDL
MODEL 8
REMARK VINA RESULT:      -6.3      2.159      7.119
REMARK  Name = 
REMARK  3 active torsions:
REMARK  status: ('A' for Active; 'I' for Inactive)
REMARK    1  A    between atoms: C_1  and  C_2
REMARK    2  A    between atoms: C_2  and  C_3
REMARK    3  A    between atoms: C_3  and  C_4
REMARK                            x       y       z     vdW  Elec       q    Type
REMARK                         _______ _______ _______ _____ _____    ______ ____
ROOT
ATOM      1  C   UNL     1       4.129   4.916  18.678  0.00  0.00    +0.000 A 
ATOM      2  N   UNL     1       3.274   5.202  19.605  0.00  0.00    +0.000 NA
ATOM      3  N   UNL     1       2.742   6.442  19.357  0.00  0.00    +0.000 N 
ATOM      4  C   UNL     1       1.812   6.990  20.227  0.00  0.00    +0.000 A 
ATOM      5  O   UNL     1       1.329   6.417  21.200  0.00  0.00    +0.000 OA
ATOM      6  C   UNL     1       1.448   8.344  19.854  0.00  0.00    +0.000 A 
ATOM      7  C   UNL     1       0.661   9.275  20.592  0.00  0.00    +0.000 A 
ATOM      8  C   UNL     1       0.493  10.450  19.890  0.00  0.00    +0.000 A 
ATOM      9  S   UNL     1       1.341  10.455  18.410  0.00  0.00    +0.000 S 
ATOM     10  C   UNL     1       1.948   8.875  18.679  0.00  0.00    +0.000 A 
ATOM     11  N   UNL     1       2.826   8.273  17.824  0.00  0.00    +0.000 NA
ATOM     12  C   UNL     1       3.190   7.098  18.228  0.00  0.00    +0.000 A 
ATOM     13  S   UNL     1       4.357   6.095  17.411  0.00  0.00    +0.000 S 
ATOM     14  C   UNL     1      -0.285  11.635  20.387  0.00  0.00    +0.000 C 
ATOM     15  C   UNL     1      -1.112  11.258  21.632  0.00  0.00    +0.000 C 
ATOM     16  C   UNL     1      -0.314  10.384  22.608  0.00  0.00    +0.000 C 
ATOM     17  C   UNL     1       0.081   9.055  21.955  0.00  0.00    +0.000 C 
ENDROOT
BRANCH   1  18
ATOM     18  C   UNL     1       4.908   3.635  18.680  0.00  0.00    +0.000 C 
BRANCH  18  20
ATOM     19  C   UNL     1       3.313   1.706  18.274  0.00  0.00    +0.000 C 
ATOM     20  C   UNL     1       4.111   2.491  19.304  0.00  0.00    +0.000 C 
ENDBRANCH  18  20
ENDBRANCH   1  18
TORSDOF 2
ENDMDL
MODEL 9
REMARK VINA RESULT:      -6.3      1.984      6.954
REMARK  Name = 
REMARK  3 active torsions:
REMARK  status: ('A' for Active; 'I' for Inactive)
REMARK    1  A    between atoms: C_1  and  C_2
REMARK    2  A    between atoms: C_2  and  C_3
REMARK    3  A    between atoms: C_3  and  C_4
REMARK                            x       y       z     vdW  Elec       q    Type
REMARK                         _______ _______ _______ _____ _____    ______ ____
ROOT
ATOM      1  C   UNL     1       4.785   4.467  17.133  0.00  0.00    +0.000 A 
ATOM      2  N   UNL     1       4.421   5.677  16.856  0.00  0.00    +0.000 NA
ATOM      3  N   UNL     1       3.674   6.169  17.896  0.00  0.00    +0.000 N 
ATOM      4  C   UNL     1       3.142   7.447  17.830  0.00  0.00    +0.000 A 
ATOM      5  O   UNL     1       3.350   8.255  16.929  0.00  0.00    +0.000 OA
ATOM      6  C   UNL     1       2.298   7.746  18.971  0.00  0.00    +0.000 A 
ATOM      7  C   UNL     1       1.458   8.881  19.168  0.00  0.00    +0.000 A 
ATOM      8  C   UNL     1       0.843   8.837  20.401  0.00  0.00    +0.000 A 
ATOM      9  S   UNL     1       1.211   7.413  21.265  0.00  0.00    +0.000 S 
ATOM     10  C   UNL     1       2.209   6.826  20.000  0.00  0.00    +0.000 A 
ATOM     11  N   UNL     1       2.796   5.595  20.043  0.00  0.00    +0.000 NA
ATOM     12  C   UNL     1       3.477   5.329  18.974  0.00  0.00    +0.000 A 
ATOM     13  S   UNL     1       4.285   3.816  18.673  0.00  0.00    +0.000 S 
ATOM     14  C   UNL     1      -0.105   9.880  20.917  0.00  0.00    +0.000 C 
ATOM     15  C   UNL     1      -0.066  11.138  20.027  0.00  0.00    +0.000 C 
ATOM     16  C   UNL     1      -0.032  10.784  18.535  0.00  0.00    +0.000 C 
ATOM     17  C   UNL     1       1.232   9.992  18.189  0.00  0.00    +0.000 C 
ENDROOT
BRANCH   1  18
ATOM     18  C   UNL     1       5.594   3.640  16.178  0.00  0.00    +0.000 C 
BRANCH  18  20
ATOM     19  C   UNL     1       6.307   4.005  13.773  0.00  0.00    +0.000 C 
ATOM     20  C   UNL     1       6.384   4.513  15.205  0.00  0.00    +0.000 C 
ENDBRANCH  18  20
ENDBRANCH   1  18
TORSDOF 2
ENDMDL
