MODEL 1
REMARK VINA RESULT:      -6.6      0.000      0.000
REMARK  Name = 
REMARK  12 active torsions:
REMARK  status: ('A' for Active; 'I' for Inactive)
REMARK    1  A    between atoms: C_1  and  O_2
REMARK    2  A    between atoms: O_2  and  C_3
REMARK    3  A    between atoms: C_3  and  C_4
REMARK    4  A    between atoms: C_4  and  N_5
REMARK    5  A    between atoms: N_5  and  C_6
REMARK    6  A    between atoms: N_5  and  C_10
REMARK    7  A    between atoms: C_6  and  C_7
REMARK    8  A    between atoms: C_7  and  C_8
REMARK    9  A    between atoms: N_18  and  C_19
REMARK   10  A    between atoms: C_19  and  C_20
REMARK   11  A    between atoms: C_20  and  O_21
REMARK   12  A    between atoms: C_25  and  C_26
REMARK                            x       y       z     vdW  Elec       q    Type
REMARK                         _______ _______ _______ _____ _____    ______ ____
ROOT
ATOM      1  C   UNL     1       1.655   7.656  20.333  0.00  0.00    +0.000 A 
ATOM      2  N   UNL     1       1.402   6.528  21.061  0.00  0.00    +0.000 NA
ATOM      3  C   UNL     1       1.865   5.340  20.619  0.00  0.00    +0.000 A 
ATOM      4  N   UNL     1       2.603   5.094  19.521  0.00  0.00    +0.000 NA
ATOM      5  C   UNL     1       2.818   6.222  18.829  0.00  0.00    +0.000 A 
ATOM      6  C   UNL     1       2.380   7.499  19.133  0.00  0.00    +0.000 A 
ATOM      7  N   UNL     1       2.777   8.399  18.167  0.00  0.00    +0.000 NA
ATOM      8  C   UNL     1       3.466   7.687  17.306  0.00  0.00    +0.000 A 
ATOM      9  N   UNL     1       3.530   6.371  17.671  0.00  0.00    +0.000 N 
ENDROOT
BRANCH   1  10
ATOM     10  N   UNL     1       1.203   8.901  20.789  0.00  0.00    +0.000 N 
BRANCH  10  11
ATOM     11  C   UNL     1       1.283   9.094  22.242  0.00  0.00    +0.000 C 
BRANCH  11  12
ATOM     12  C   UNL     1      -0.126   9.337  22.844  0.00  0.00    +0.000 C 
BRANCH  12  14
ATOM     13  C   UNL     1      -1.440  11.312  22.967  0.00  0.00    +0.000 C 
ATOM     14  O   UNL     1      -0.283  10.631  23.434  0.00  0.00    +0.000 OA
ENDBRANCH  12  14
ENDBRANCH  11  12
ENDBRANCH  10  11
BRANCH  10  15
ATOM     15  C   UNL     1       0.094   9.497  20.005  0.00  0.00    +0.000 C 
BRANCH  15  16
ATOM     16  C   UNL     1       0.483  10.833  19.383  0.00  0.00    +0.000 C 
BRANCH  16  17
ATOM     17  C   UNL     1       1.095  11.867  20.316  0.00  0.00    +0.000 C 
ATOM     18  N   UNL     1       1.602  12.724  21.088  0.00  0.00    +0.000 NA
ENDBRANCH  16  17
ENDBRANCH  15  16
ENDBRANCH  10  15
ENDBRANCH   1  10
BRANCH   9  19
ATOM     19  C   UNL     1       4.328   5.359  17.016  0.00  0.00    +0.000 C 
BRANCH  19  20
ATOM     20  C   UNL     1       5.842   5.628  17.006  0.00  0.00    +0.000 C 
ATOM     21  C   UNL     1       6.382   5.667  18.429  0.00  0.00    +0.000 C 
ATOM     22  C   UNL     1       7.788   5.121  18.317  0.00  0.00    +0.000 C 
ATOM     23  O   UNL     1       7.884   4.363  17.113  0.00  0.00    +0.000 OA
ATOM     24  C   UNL     1       6.662   4.495  16.362  0.00  0.00    +0.000 C 
ATOM     25  C   UNL     1       7.041   4.715  14.903  0.00  0.00    +0.000 C 
BRANCH  20  26
ATOM     26  O   UNL     1       6.113   6.894  16.388  0.00  0.00    +0.000 OA
ATOM     27  H   UNL     1       5.773   7.612  16.948  0.00  0.00    +0.000 HD
ENDBRANCH  20  26
ENDBRANCH  19  20
ENDBRANCH   9  19
TORSDOF 10
ENDMDL
MODEL 2
REMARK VINA RESULT:      -6.5      3.084      4.508
REMARK  Name = 
REMARK  12 active torsions:
REMARK  status: ('A' for Active; 'I' for Inactive)
REMARK    1  A    between atoms: C_1  and  O_2
REMARK    2  A    between atoms: O_2  and  C_3
REMARK    3  A    between atoms: C_3  and  C_4
REMARK    4  A    between atoms: C_4  and  N_5
REMARK    5  A    between atoms: N_5  and  C_6
REMARK    6  A    between atoms: N_5  and  C_10
REMARK    7  A    between atoms: C_6  and  C_7
REMARK    8  A    between atoms: C_7  and  C_8
REMARK    9  A    between atoms: N_18  and  C_19
REMARK   10  A    between atoms: C_19  and  C_20
REMARK   11  A    between atoms: C_20  and  O_21
REMARK   12  A    between atoms: C_25  and  C_26
REMARK                            x       y       z     vdW  Elec       q    Type
REMARK                         _______ _______ _______ _____ _____    ______ ____
ROOT
ATOM      1  C   UNL     1       0.589   9.980  19.539  0.00  0.00    +0.000 A 
ATOM      2  N   UNL     1       0.167   9.631  20.790  0.00  0.00    +0.000 NA
ATOM      3  C   UNL     1       0.603   8.476  21.335  0.00  0.00    +0.000 A 
ATOM      4  N   UNL     1       1.460   7.582  20.808  0.00  0.00    +0.000 NA
ATOM      5  C   UNL     1       1.840   7.954  19.577  0.00  0.00    +0.000 A 
ATOM      6  C   UNL     1       1.452   9.083  18.877  0.00  0.00    +0.000 A 
ATOM      7  N   UNL     1       2.033   9.109  17.626  0.00  0.00    +0.000 NA
ATOM      8  C   UNL     1       2.780   8.031  17.578  0.00  0.00    +0.000 A 
ATOM      9  N   UNL     1       2.706   7.311  18.737  0.00  0.00    +0.000 N 
ENDROOT
BRANCH   1  10
ATOM     10  N   UNL     1       0.166  11.187  18.968  0.00  0.00    +0.000 N 
BRANCH  10  11
ATOM     11  C   UNL     1       0.829  12.387  19.494  0.00  0.00    +0.000 C 
BRANCH  11  12
ATOM     12  C   UNL     1       1.528  13.175  18.356  0.00  0.00    +0.000 C 
BRANCH  12  14
ATOM     13  C   UNL     1       3.593  14.345  18.247  0.00  0.00    +0.000 C 
ATOM     14  O   UNL     1       2.955  13.081  18.385  0.00  0.00    +0.000 OA
ENDBRANCH  12  14
ENDBRANCH  11  12
ENDBRANCH  10  11
BRANCH  10  15
ATOM     15  C   UNL     1      -1.259  11.228  18.558  0.00  0.00    +0.000 C 
BRANCH  15  16
ATOM     16  C   UNL     1      -1.594  10.145  17.539  0.00  0.00    +0.000 C 
BRANCH  16  17
ATOM     17  C   UNL     1      -2.416  10.574  16.334  0.00  0.00    +0.000 C 
ATOM     18  N   UNL     1      -3.097  10.930  15.335  0.00  0.00    +0.000 NA
ENDBRANCH  16  17
ENDBRANCH  15  16
ENDBRANCH  10  15
ENDBRANCH   1  10
BRANCH   9  19
ATOM     19  C   UNL     1       3.513   6.154  19.057  0.00  0.00    +0.000 C 
BRANCH  19  20
ATOM     20  C   UNL     1       2.883   4.799  18.692  0.00  0.00    +0.000 C 
ATOM     21  C   UNL     1       3.896   3.922  17.970  0.00  0.00    +0.000 C 
ATOM     22  C   UNL     1       3.542   2.511  18.385  0.00  0.00    +0.000 C 
ATOM     23  O   UNL     1       2.786   2.572  19.592  0.00  0.00    +0.000 OA
ATOM     24  C   UNL     1       2.508   3.947  19.918  0.00  0.00    +0.000 C 
ATOM     25  C   UNL     1       1.049   4.031  20.347  0.00  0.00    +0.000 C 
BRANCH  20  26
ATOM     26  O   UNL     1       1.759   4.996  17.821  0.00  0.00    +0.000 OA
ATOM     27  H   UNL     1       1.261   4.166  17.736  0.00  0.00    +0.000 HD
ENDBRANCH  20  26
ENDBRANCH  19  20
ENDBRANCH   9  19
TORSDOF 10
ENDMDL
MODEL 3
REMARK VINA RESULT:      -6.3      2.306      7.946
REMARK  Name = 
REMARK  12 active torsions:
REMARK  status: ('A' for Active; 'I' for Inactive)
REMARK    1  A    between atoms: C_1  and  O_2
REMARK    2  A    between atoms: O_2  and  C_3
REMARK    3  A    between atoms: C_3  and  C_4
REMARK    4  A    between atoms: C_4  and  N_5
REMARK    5  A    between atoms: N_5  and  C_6
REMARK    6  A    between atoms: N_5  and  C_10
REMARK    7  A    between atoms: C_6  and  C_7
REMARK    8  A    between atoms: C_7  and  C_8
REMARK    9  A    between atoms: N_18  and  C_19
REMARK   10  A    between atoms: C_19  and  C_20
REMARK   11  A    between atoms: C_20  and  O_21
REMARK   12  A    between atoms: C_25  and  C_26
REMARK                            x       y       z     vdW  Elec       q    Type
REMARK                         _______ _______ _______ _____ _____    ______ ____
ROOT
ATOM      1  C   UNL     1       2.600   6.703  19.047  0.00  0.00    +0.000 A 
ATOM      2  N   UNL     1       3.050   7.168  17.844  0.00  0.00    +0.000 NA
ATOM      3  C   UNL     1       2.780   8.440  17.486  0.00  0.00    +0.000 A 
ATOM      4  N   UNL     1       2.120   9.378  18.190  0.00  0.00    +0.000 NA
ATOM      5  C   UNL     1       1.684   8.879  19.356  0.00  0.00    +0.000 A 
ATOM      6  C   UNL     1       1.850   7.594  19.842  0.00  0.00    +0.000 A 
ATOM      7  N   UNL     1       1.236   7.449  21.069  0.00  0.00    +0.000 NA
ATOM      8  C   UNL     1       0.731   8.630  21.335  0.00  0.00    +0.000 A 
ATOM      9  N   UNL     1       0.988   9.529  20.337  0.00  0.00    +0.000 N 
ENDROOT
BRANCH   1  10
ATOM     10  N   UNL     1       2.893   5.393  19.446  0.00  0.00    +0.000 N 
BRANCH  10  11
ATOM     11  C   UNL     1       4.307   5.137  19.747  0.00  0.00    +0.000 C 
BRANCH  11  12
ATOM     12  C   UNL     1       4.801   3.856  19.029  0.00  0.00    +0.000 C 
BRANCH  12  14
ATOM     13  C   UNL     1       5.981   4.572  17.094  0.00  0.00    +0.000 C 
ATOM     14  O   UNL     1       6.076   4.008  18.396  0.00  0.00    +0.000 OA
ENDBRANCH  12  14
ENDBRANCH  11  12
ENDBRANCH  10  11
BRANCH  10  15
ATOM     15  C   UNL     1       2.048   4.341  18.829  0.00  0.00    +0.000 C 
BRANCH  15  16
ATOM     16  C   UNL     1       0.995   3.809  19.795  0.00  0.00    +0.000 C 
BRANCH  16  17
ATOM     17  C   UNL     1       1.504   3.209  21.095  0.00  0.00    +0.000 C 
ATOM     18  N   UNL     1       1.925   2.711  22.174  0.00  0.00    +0.000 NA
ENDBRANCH  16  17
ENDBRANCH  15  16
ENDBRANCH  10  15
ENDBRANCH   1  10
BRANCH   9  19
ATOM     19  C   UNL     1       0.692  10.943  20.388  0.00  0.00    +0.000 C 
BRANCH  19  20
ATOM     20  C   UNL     1      -0.260  11.450  19.293  0.00  0.00    +0.000 C 
ATOM     21  C   UNL     1      -1.252  10.361  18.909  0.00  0.00    +0.000 C 
ATOM     22  C   UNL     1      -2.515  11.109  18.544  0.00  0.00    +0.000 C 
ATOM     23  O   UNL     1      -2.463  12.403  19.138  0.00  0.00    +0.000 OA
ATOM     24  C   UNL     1      -1.177  12.596  19.759  0.00  0.00    +0.000 C 
ATOM     25  C   UNL     1      -0.700  13.997  19.400  0.00  0.00    +0.000 C 
BRANCH  20  26
ATOM     26  O   UNL     1       0.484  11.812  18.121  0.00  0.00    +0.000 OA
ATOM     27  H   UNL     1       1.416  11.955  18.355  0.00  0.00    +0.000 HD
ENDBRANCH  20  26
ENDBRANCH  19  20
ENDBRANCH   9  19
TORSDOF 10
ENDMDL
MODEL 4
REMARK VINA RESULT:      -6.2      2.962      4.242
REMARK  Name = 
REMARK  12 active torsions:
REMARK  status: ('A' for Active; 'I' for Inactive)
REMARK    1  A    between atoms: C_1  and  O_2
REMARK    2  A    between atoms: O_2  and  C_3
REMARK    3  A    between atoms: C_3  and  C_4
REMARK    4  A    between atoms: C_4  and  N_5
REMARK    5  A    between atoms: N_5  and  C_6
REMARK    6  A    between atoms: N_5  and  C_10
REMARK    7  A    between atoms: C_6  and  C_7
REMARK    8  A    between atoms: C_7  and  C_8
REMARK    9  A    between atoms: N_18  and  C_19
REMARK   10  A    between atoms: C_19  and  C_20
REMARK   11  A    between atoms: C_20  and  O_21
REMARK   12  A    between atoms: C_25  and  C_26
REMARK                            x       y       z     vdW  Elec       q    Type
REMARK                         _______ _______ _______ _____ _____    ______ ____
ROOT
ATOM      1  C   UNL     1       0.840   9.884  19.414  0.00  0.00    +0.000 A 
ATOM      2  N   UNL     1       0.358   9.603  20.661  0.00  0.00    +0.000 NA
ATOM      3  C   UNL     1       0.704   8.442  21.256  0.00  0.00    +0.000 A 
ATOM      4  N   UNL     1       1.523   7.482  20.788  0.00  0.00    +0.000 NA
ATOM      5  C   UNL     1       1.965   7.790  19.560  0.00  0.00    +0.000 A 
ATOM      6  C   UNL     1       1.670   8.916  18.811  0.00  0.00    +0.000 A 
ATOM      7  N   UNL     1       2.292   8.865  17.581  0.00  0.00    +0.000 NA
ATOM      8  C   UNL     1       2.973   7.743  17.593  0.00  0.00    +0.000 A 
ATOM      9  N   UNL     1       2.817   7.068  18.771  0.00  0.00    +0.000 N 
ENDROOT
BRANCH   1  10
ATOM     10  N   UNL     1       0.511  11.094  18.791  0.00  0.00    +0.000 N 
BRANCH  10  11
ATOM     11  C   UNL     1       1.512  12.159  18.936  0.00  0.00    +0.000 C 
BRANCH  11  12
ATOM     12  C   UNL     1       1.356  12.881  20.299  0.00  0.00    +0.000 C 
BRANCH  12  14
ATOM     13  C   UNL     1       0.914  14.761  18.915  0.00  0.00    +0.000 C 
ATOM     14  O   UNL     1       1.337  14.308  20.195  0.00  0.00    +0.000 OA
ENDBRANCH  12  14
ENDBRANCH  11  12
ENDBRANCH  10  11
BRANCH  10  15
ATOM     15  C   UNL     1      -0.937  11.415  18.761  0.00  0.00    +0.000 C 
BRANCH  15  16
ATOM     16  C   UNL     1      -1.691  10.572  17.739  0.00  0.00    +0.000 C 
BRANCH  16  17
ATOM     17  C   UNL     1      -3.030  11.113  17.264  0.00  0.00    +0.000 C 
ATOM     18  N   UNL     1      -4.140  11.561  16.871  0.00  0.00    +0.000 NA
ENDBRANCH  16  17
ENDBRANCH  15  16
ENDBRANCH  10  15
ENDBRANCH   1  10
BRANCH   9  19
ATOM     19  C   UNL     1       3.542   5.877  19.155  0.00  0.00    +0.000 C 
BRANCH  19  20
ATOM     20  C   UNL     1       2.869   4.551  18.764  0.00  0.00    +0.000 C 
ATOM     21  C   UNL     1       3.834   3.681  17.972  0.00  0.00    +0.000 C 
ATOM     22  C   UNL     1       3.464   2.263  18.348  0.00  0.00    +0.000 C 
ATOM     23  O   UNL     1       2.756   2.293  19.585  0.00  0.00    +0.000 OA
ATOM     24  C   UNL     1       2.521   3.661  19.972  0.00  0.00    +0.000 C 
ATOM     25  C   UNL     1       1.082   3.759  20.460  0.00  0.00    +0.000 C 
BRANCH  20  26
ATOM     26  O   UNL     1       1.717   4.804  17.946  0.00  0.00    +0.000 OA
ATOM     27  H   UNL     1       1.147   5.462  18.378  0.00  0.00    +0.000 HD
ENDBRANCH  20  26
ENDBRANCH  19  20
ENDBRANCH   9  19
TORSDOF 10
ENDMDL
MODEL 5
REMARK VINA RESULT:      -6.2      3.114      4.333
REMARK  Name = 
REMARK  12 active torsions:
REMARK  status: ('A' for Active; 'I' for Inactive)
REMARK    1  A    between atoms: C_1  and  O_2
REMARK    2  A    between atoms: O_2  and  C_3
REMARK    3  A    between atoms: C_3  and  C_4
REMARK    4  A    between atoms: C_4  and  N_5
REMARK    5  A    between atoms: N_5  and  C_6
REMARK    6  A    between atoms: N_5  and  C_10
REMARK    7  A    between atoms: C_6  and  C_7
REMARK    8  A    between atoms: C_7  and  C_8
REMARK    9  A    between atoms: N_18  and  C_19
REMARK   10  A    between atoms: C_19  and  C_20
REMARK   11  A    between atoms: C_20  and  O_21
REMARK   12  A    between atoms: C_25  and  C_26
REMARK                            x       y       z     vdW  Elec       q    Type
REMARK                         _______ _______ _______ _____ _____    ______ ____
ROOT
ATOM      1  C   UNL     1       0.637   9.910  19.520  0.00  0.00    +0.000 A 
ATOM      2  N   UNL     1       0.194   9.614  20.777  0.00  0.00    +0.000 NA
ATOM      3  C   UNL     1       0.624   8.486  21.380  0.00  0.00    +0.000 A 
ATOM      4  N   UNL     1       1.495   7.575  20.910  0.00  0.00    +0.000 NA
ATOM      5  C   UNL     1       1.896   7.894  19.671  0.00  0.00    +0.000 A 
ATOM      6  C   UNL     1       1.517   8.989  18.914  0.00  0.00    +0.000 A 
ATOM      7  N   UNL     1       2.121   8.963  17.674  0.00  0.00    +0.000 NA
ATOM      8  C   UNL     1       2.873   7.887  17.688  0.00  0.00    +0.000 A 
ATOM      9  N   UNL     1       2.780   7.219  18.876  0.00  0.00    +0.000 N 
ENDROOT
BRANCH   1  10
ATOM     10  N   UNL     1       0.221  11.089  18.889  0.00  0.00    +0.000 N 
BRANCH  10  11
ATOM     11  C   UNL     1       1.061  12.263  19.152  0.00  0.00    +0.000 C 
BRANCH  11  12
ATOM     12  C   UNL     1       0.455  13.533  18.500  0.00  0.00    +0.000 C 
BRANCH  12  14
ATOM     13  C   UNL     1       2.183  15.009  19.195  0.00  0.00    +0.000 C 
ATOM     14  O   UNL     1       0.785  14.744  19.186  0.00  0.00    +0.000 OA
ENDBRANCH  12  14
ENDBRANCH  11  12
ENDBRANCH  10  11
BRANCH  10  15
ATOM     15  C   UNL     1      -1.246  11.230  18.719  0.00  0.00    +0.000 C 
BRANCH  15  16
ATOM     16  C   UNL     1      -1.830  10.138  17.829  0.00  0.00    +0.000 C 
BRANCH  16  17
ATOM     17  C   UNL     1      -2.377  10.578  16.481  0.00  0.00    +0.000 C 
ATOM     18  N   UNL     1      -2.830  10.942  15.362  0.00  0.00    +0.000 NA
ENDBRANCH  16  17
ENDBRANCH  15  16
ENDBRANCH  10  15
ENDBRANCH   1  10
BRANCH   9  19
ATOM     19  C   UNL     1       3.586   6.081  19.262  0.00  0.00    +0.000 C 
BRANCH  19  20
ATOM     20  C   UNL     1       2.883   4.718  19.152  0.00  0.00    +0.000 C 
ATOM     21  C   UNL     1       1.962   4.693  17.941  0.00  0.00    +0.000 C 
ATOM     22  C   UNL     1       1.999   3.258  17.464  0.00  0.00    +0.000 C 
ATOM     23  O   UNL     1       3.179   2.643  17.974  0.00  0.00    +0.000 OA
ATOM     24  C   UNL     1       3.847   3.551  18.870  0.00  0.00    +0.000 C 
ATOM     25  C   UNL     1       4.280   2.754  20.093  0.00  0.00    +0.000 C 
BRANCH  20  26
ATOM     26  O   UNL     1       2.090   4.476  20.324  0.00  0.00    +0.000 OA
ATOM     27  H   UNL     1       1.378   5.135  20.379  0.00  0.00    +0.000 HD
ENDBRANCH  20  26
ENDBRANCH  19  20
ENDBRANCH   9  19
TORSDOF 10
ENDMDL
MODEL 6
REMARK VINA RESULT:      -6.1      2.937      4.272
REMARK  Name = 
REMARK  12 active torsions:
REMARK  status: ('A' for Active; 'I' for Inactive)
REMARK    1  A    between atoms: C_1  and  O_2
REMARK    2  A    between atoms: O_2  and  C_3
REMARK    3  A    between atoms: C_3  and  C_4
REMARK    4  A    between atoms: C_4  and  N_5
REMARK    5  A    between atoms: N_5  and  C_6
REMARK    6  A    between atoms: N_5  and  C_10
REMARK    7  A    between atoms: C_6  and  C_7
REMARK    8  A    between atoms: C_7  and  C_8
REMARK    9  A    between atoms: N_18  and  C_19
REMARK   10  A    between atoms: C_19  and  C_20
REMARK   11  A    between atoms: C_20  and  O_21
REMARK   12  A    between atoms: C_25  and  C_26
REMARK                            x       y       z     vdW  Elec       q    Type
REMARK                         _______ _______ _______ _____ _____    ______ ____
ROOT
ATOM      1  C   UNL     1       0.940   9.831  19.451  0.00  0.00    +0.000 A 
ATOM      2  N   UNL     1       0.485   9.527  20.702  0.00  0.00    +0.000 NA
ATOM      3  C   UNL     1       0.828   8.348  21.260  0.00  0.00    +0.000 A 
ATOM      4  N   UNL     1       1.619   7.387  20.748  0.00  0.00    +0.000 NA
ATOM      5  C   UNL     1       2.034   7.717  19.517  0.00  0.00    +0.000 A 
ATOM      6  C   UNL     1       1.738   8.865  18.803  0.00  0.00    +0.000 A 
ATOM      7  N   UNL     1       2.327   8.835  17.556  0.00  0.00    +0.000 NA
ATOM      8  C   UNL     1       2.990   7.703  17.523  0.00  0.00    +0.000 A 
ATOM      9  N   UNL     1       2.854   7.001  18.689  0.00  0.00    +0.000 N 
ENDROOT
BRANCH   1  10
ATOM     10  N   UNL     1       0.615  11.062  18.866  0.00  0.00    +0.000 N 
BRANCH  10  11
ATOM     11  C   UNL     1       1.431  12.197  19.314  0.00  0.00    +0.000 C 
BRANCH  11  12
ATOM     12  C   UNL     1       2.451  12.608  18.222  0.00  0.00    +0.000 C 
BRANCH  12  14
ATOM     13  C   UNL     1       2.983  14.915  18.022  0.00  0.00    +0.000 C 
ATOM     14  O   UNL     1       3.322  13.671  18.620  0.00  0.00    +0.000 OA
ENDBRANCH  12  14
ENDBRANCH  11  12
ENDBRANCH  10  11
BRANCH  10  15
ATOM     15  C   UNL     1      -0.820  11.244  18.536  0.00  0.00    +0.000 C 
BRANCH  15  16
ATOM     16  C   UNL     1      -1.351  12.593  19.007  0.00  0.00    +0.000 C 
BRANCH  16  17
ATOM     17  C   UNL     1      -2.180  12.592  20.281  0.00  0.00    +0.000 C 
ATOM     18  N   UNL     1      -2.867  12.591  21.338  0.00  0.00    +0.000 NA
ENDBRANCH  16  17
ENDBRANCH  15  16
ENDBRANCH  10  15
ENDBRANCH   1  10
BRANCH   9  19
ATOM     19  C   UNL     1       3.568   5.790  19.025  0.00  0.00    +0.000 C 
BRANCH  19  20
ATOM     20  C   UNL     1       2.841   4.484  18.665  0.00  0.00    +0.000 C 
ATOM     21  C   UNL     1       3.764   3.564  17.878  0.00  0.00    +0.000 C 
ATOM     22  C   UNL     1       3.345   2.168  18.284  0.00  0.00    +0.000 C 
ATOM     23  O   UNL     1       2.652   2.246  19.527  0.00  0.00    +0.000 OA
ATOM     24  C   UNL     1       2.474   3.628  19.892  0.00  0.00    +0.000 C 
ATOM     25  C   UNL     1       1.044   3.790  20.393  0.00  0.00    +0.000 C 
BRANCH  20  26
ATOM     26  O   UNL     1       1.691   4.766  17.855  0.00  0.00    +0.000 OA
ATOM     27  H   UNL     1       1.967   5.226  17.044  0.00  0.00    +0.000 HD
ENDBRANCH  20  26
ENDBRANCH  19  20
ENDBRANCH   9  19
TORSDOF 10
ENDMDL
MODEL 7
REMARK VINA RESULT:      -6.1      2.245      7.738
REMARK  Name = 
REMARK  12 active torsions:
REMARK  status: ('A' for Active; 'I' for Inactive)
REMARK    1  A    between atoms: C_1  and  O_2
REMARK    2  A    between atoms: O_2  and  C_3
REMARK    3  A    between atoms: C_3  and  C_4
REMARK    4  A    between atoms: C_4  and  N_5
REMARK    5  A    between atoms: N_5  and  C_6
REMARK    6  A    between atoms: N_5  and  C_10
REMARK    7  A    between atoms: C_6  and  C_7
REMARK    8  A    between atoms: C_7  and  C_8
REMARK    9  A    between atoms: N_18  and  C_19
REMARK   10  A    between atoms: C_19  and  C_20
REMARK   11  A    between atoms: C_20  and  O_21
REMARK   12  A    between atoms: C_25  and  C_26
REMARK                            x       y       z     vdW  Elec       q    Type
REMARK                         _______ _______ _______ _____ _____    ______ ____
ROOT
ATOM      1  C   UNL     1       3.244   5.961  18.980  0.00  0.00    +0.000 A 
ATOM      2  N   UNL     1       2.875   5.296  20.115  0.00  0.00    +0.000 NA
ATOM      3  C   UNL     1       1.997   5.873  20.961  0.00  0.00    +0.000 A 
ATOM      4  N   UNL     1       1.375   7.059  20.829  0.00  0.00    +0.000 NA
ATOM      5  C   UNL     1       1.772   7.684  19.711  0.00  0.00    +0.000 A 
ATOM      6  C   UNL     1       2.686   7.239  18.772  0.00  0.00    +0.000 A 
ATOM      7  N   UNL     1       2.856   8.172  17.770  0.00  0.00    +0.000 NA
ATOM      8  C   UNL     1       2.041   9.153  18.081  0.00  0.00    +0.000 A 
ATOM      9  N   UNL     1       1.356   8.897  19.236  0.00  0.00    +0.000 N 
ENDROOT
BRANCH   1  10
ATOM     10  N   UNL     1       4.135   5.366  18.078  0.00  0.00    +0.000 N 
BRANCH  10  11
ATOM     11  C   UNL     1       3.877   3.949  17.793  0.00  0.00    +0.000 C 
BRANCH  11  12
ATOM     12  C   UNL     1       2.466   3.758  17.180  0.00  0.00    +0.000 C 
BRANCH  12  14
ATOM     13  C   UNL     1       2.453   2.002  18.781  0.00  0.00    +0.000 C 
ATOM     14  O   UNL     1       1.735   2.668  17.750  0.00  0.00    +0.000 OA
ENDBRANCH  12  14
ENDBRANCH  11  12
ENDBRANCH  10  11
BRANCH  10  15
ATOM     15  C   UNL     1       5.523   5.889  18.124  0.00  0.00    +0.000 C 
BRANCH  15  16
ATOM     16  C   UNL     1       6.536   4.878  17.600  0.00  0.00    +0.000 C 
BRANCH  16  17
ATOM     17  C   UNL     1       7.033   5.085  16.178  0.00  0.00    +0.000 C 
ATOM     18  N   UNL     1       7.446   5.258  15.000  0.00  0.00    +0.000 NA
ENDBRANCH  16  17
ENDBRANCH  15  16
ENDBRANCH  10  15
ENDBRANCH   1  10
BRANCH   9  19
ATOM     19  C   UNL     1       0.285   9.708  19.771  0.00  0.00    +0.000 C 
BRANCH  19  20
ATOM     20  C   UNL     1       0.689  10.643  20.923  0.00  0.00    +0.000 C 
ATOM     21  C   UNL     1       1.236  11.953  20.372  0.00  0.00    +0.000 C 
ATOM     22  C   UNL     1       0.827  12.994  21.392  0.00  0.00    +0.000 C 
ATOM     23  O   UNL     1      -0.261  12.478  22.153  0.00  0.00    +0.000 OA
ATOM     24  C   UNL     1      -0.501  11.107  21.783  0.00  0.00    +0.000 C 
ATOM     25  C   UNL     1      -0.722  10.317  23.066  0.00  0.00    +0.000 C 
BRANCH  20  26
ATOM     26  O   UNL     1       1.712  10.030  21.721  0.00  0.00    +0.000 OA
ATOM     27  H   UNL     1       1.304   9.452  22.387  0.00  0.00    +0.000 HD
ENDBRANCH  20  26
ENDBRANCH  19  20
ENDBRANCH   9  19
TORSDOF 10
ENDMDL
MODEL 8
REMARK VINA RESULT:      -6.1      3.040      4.361
REMARK  Name = 
REMARK  12 active torsions:
REMARK  status: ('A' for Active; 'I' for Inactive)
REMARK    1  A    between atoms: C_1  and  O_2
REMARK    2  A    between atoms: O_2  and  C_3
REMARK    3  A    between atoms: C_3  and  C_4
REMARK    4  A    between atoms: C_4  and  N_5
REMARK    5  A    between atoms: N_5  and  C_6
REMARK    6  A    between atoms: N_5  and  C_10
REMARK    7  A    between atoms: C_6  and  C_7
REMARK    8  A    between atoms: C_7  and  C_8
REMARK    9  A    between atoms: N_18  and  C_19
REMARK   10  A    between atoms: C_19  and  C_20
REMARK   11  A    between atoms: C_20  and  O_21
REMARK   12  A    between atoms: C_25  and  C_26
REMARK                            x       y       z     vdW  Elec       q    Type
REMARK                         _______ _______ _______ _____ _____    ______ ____
ROOT
ATOM      1  C   UNL     1       0.795   9.705  19.448  0.00  0.00    +0.000 A 
ATOM      2  N   UNL     1       0.271   9.574  20.703  0.00  0.00    +0.000 NA
ATOM      3  C   UNL     1       0.595   8.493  21.443  0.00  0.00    +0.000 A 
ATOM      4  N   UNL     1       1.426   7.485  21.119  0.00  0.00    +0.000 NA
ATOM      5  C   UNL     1       1.908   7.645  19.878  0.00  0.00    +0.000 A 
ATOM      6  C   UNL     1       1.640   8.673  18.992  0.00  0.00    +0.000 A 
ATOM      7  N   UNL     1       2.302   8.478  17.797  0.00  0.00    +0.000 NA
ATOM      8  C   UNL     1       2.979   7.366  17.965  0.00  0.00    +0.000 A 
ATOM      9  N   UNL     1       2.784   6.836  19.209  0.00  0.00    +0.000 N 
ENDROOT
BRANCH   1  10
ATOM     10  N   UNL     1       0.489  10.833  18.676  0.00  0.00    +0.000 N 
BRANCH  10  11
ATOM     11  C   UNL     1       1.400  11.971  18.852  0.00  0.00    +0.000 C 
BRANCH  11  12
ATOM     12  C   UNL     1       0.724  13.097  19.676  0.00  0.00    +0.000 C 
BRANCH  12  14
ATOM     13  C   UNL     1      -0.109  15.170  18.866  0.00  0.00    +0.000 C 
ATOM     14  O   UNL     1       1.043  14.414  19.218  0.00  0.00    +0.000 OA
ENDBRANCH  12  14
ENDBRANCH  11  12
ENDBRANCH  10  11
BRANCH  10  15
ATOM     15  C   UNL     1      -0.957  11.052  18.423  0.00  0.00    +0.000 C 
BRANCH  15  16
ATOM     16  C   UNL     1      -1.522  10.054  17.419  0.00  0.00    +0.000 C 
BRANCH  16  17
ATOM     17  C   UNL     1      -2.700  10.523  16.581  0.00  0.00    +0.000 C 
ATOM     18  N   UNL     1      -3.677  10.913  15.886  0.00  0.00    +0.000 NA
ENDBRANCH  16  17
ENDBRANCH  15  16
ENDBRANCH  10  15
ENDBRANCH   1  10
BRANCH   9  19
ATOM     19  C   UNL     1       3.493   5.700  19.755  0.00  0.00    +0.000 C 
BRANCH  19  20
ATOM     20  C   UNL     1       2.891   4.328  19.407  0.00  0.00    +0.000 C 
ATOM     21  C   UNL     1       1.616   4.092  20.204  0.00  0.00    +0.000 C 
ATOM     22  C   UNL     1       0.743   3.262  19.289  0.00  0.00    +0.000 C 
ATOM     23  O   UNL     1       1.198   3.436  17.949  0.00  0.00    +0.000 OA
ATOM     24  C   UNL     1       2.404   4.224  17.949  0.00  0.00    +0.000 C 
ATOM     25  C   UNL     1       3.381   3.568  16.983  0.00  0.00    +0.000 C 
BRANCH  20  26
ATOM     26  O   UNL     1       3.822   3.285  19.729  0.00  0.00    +0.000 OA
ATOM     27  H   UNL     1       4.317   3.031  18.932  0.00  0.00    +0.000 HD
ENDBRANCH  20  26
ENDBRANCH  19  20
ENDBRANCH   9  19
TORSDOF 10
ENDMDL
MODEL 9
REMARK VINA RESULT:      -6.1      2.803      4.214
REMARK  Name = 
REMARK  12 active torsions:
REMARK  status: ('A' for Active; 'I' for Inactive)
REMARK    1  A    between atoms: C_1  and  O_2
REMARK    2  A    between atoms: O_2  and  C_3
REMARK    3  A    between atoms: C_3  and  C_4
REMARK    4  A    between atoms: C_4  and  N_5
REMARK    5  A    between atoms: N_5  and  C_6
REMARK    6  A    between atoms: N_5  and  C_10
REMARK    7  A    between atoms: C_6  and  C_7
REMARK    8  A    between atoms: C_7  and  C_8
REMARK    9  A    between atoms: N_18  and  C_19
REMARK   10  A    between atoms: C_19  and  C_20
REMARK   11  A    between atoms: C_20  and  O_21
REMARK   12  A    between atoms: C_25  and  C_26
REMARK                            x       y       z     vdW  Elec       q    Type
REMARK                         _______ _______ _______ _____ _____    ______ ____
ROOT
ATOM      1  C   UNL     1       0.917   9.910  19.774  0.00  0.00    +0.000 A 
ATOM      2  N   UNL     1       0.498   9.475  21.000  0.00  0.00    +0.000 NA
ATOM      3  C   UNL     1       0.833   8.234  21.409  0.00  0.00    +0.000 A 
ATOM      4  N   UNL     1       1.586   7.323  20.765  0.00  0.00    +0.000 NA
ATOM      5  C   UNL     1       1.965   7.782  19.564  0.00  0.00    +0.000 A 
ATOM      6  C   UNL     1       1.670   9.009  18.995  0.00  0.00    +0.000 A 
ATOM      7  N   UNL     1       2.216   9.109  17.732  0.00  0.00    +0.000 NA
ATOM      8  C   UNL     1       2.853   7.976  17.548  0.00  0.00    +0.000 A 
ATOM      9  N   UNL     1       2.741   7.150  18.632  0.00  0.00    +0.000 N 
ENDROOT
BRANCH   1  10
ATOM     10  N   UNL     1       0.598  11.204  19.344  0.00  0.00    +0.000 N 
BRANCH  10  11
ATOM     11  C   UNL     1       0.668  12.238  20.383  0.00  0.00    +0.000 C 
BRANCH  11  12
ATOM     12  C   UNL     1       1.962  13.079  20.239  0.00  0.00    +0.000 C 
BRANCH  12  14
ATOM     13  C   UNL     1       3.730  14.218  21.345  0.00  0.00    +0.000 C 
ATOM     14  O   UNL     1       2.479  13.557  21.484  0.00  0.00    +0.000 OA
ENDBRANCH  12  14
ENDBRANCH  11  12
ENDBRANCH  10  11
BRANCH  10  15
ATOM     15  C   UNL     1      -0.420  11.279  18.267  0.00  0.00    +0.000 C 
BRANCH  15  16
ATOM     16  C   UNL     1      -1.546  10.272  18.471  0.00  0.00    +0.000 C 
BRANCH  16  17
ATOM     17  C   UNL     1      -2.400   9.949  17.255  0.00  0.00    +0.000 C 
ATOM     18  N   UNL     1      -3.108   9.680  16.247  0.00  0.00    +0.000 NA
ENDBRANCH  16  17
ENDBRANCH  15  16
ENDBRANCH  10  15
ENDBRANCH   1  10
BRANCH   9  19
ATOM     19  C   UNL     1       3.440   5.896  18.805  0.00  0.00    +0.000 C 
BRANCH  19  20
ATOM     20  C   UNL     1       2.638   4.644  18.412  0.00  0.00    +0.000 C 
ATOM     21  C   UNL     1       3.469   3.746  17.506  0.00  0.00    +0.000 C 
ATOM     22  C   UNL     1       3.022   2.342  17.848  0.00  0.00    +0.000 C 
ATOM     23  O   UNL     1       2.416   2.362  19.138  0.00  0.00    +0.000 OA
ATOM     24  C   UNL     1       2.318   3.722  19.603  0.00  0.00    +0.000 C 
ATOM     25  C   UNL     1       0.932   3.901  20.210  0.00  0.00    +0.000 C 
BRANCH  20  26
ATOM     26  O   UNL     1       1.450   5.022  17.701  0.00  0.00    +0.000 OA
ATOM     27  H   UNL     1       1.685   5.593  16.951  0.00  0.00    +0.000 HD
ENDBRANCH  20  26
ENDBRANCH  19  20
ENDBRANCH   9  19
TORSDOF 10
ENDMDL
