MODEL 1
REMARK VINA RESULT:      -8.1      0.000      0.000
REMARK  Name = 
REMARK  7 active torsions:
REMARK  status: ('A' for Active; 'I' for Inactive)
REMARK    1  A    between atoms: C_1  and  N_2
REMARK    2  A    between atoms: N_5  and  C_6
REMARK    3  A    between atoms: C_9  and  C_10
REMARK    4  A    between atoms: C_10  and  N_11
REMARK    5  A    between atoms: C_12  and  C_14
REMARK    6  A    between atoms: C_16  and  N_17
REMARK    7  A    between atoms: C_21  and  C_22
REMARK                            x       y       z     vdW  Elec       q    Type
REMARK                         _______ _______ _______ _____ _____    ______ ____
ROOT
ATOM      1  N   UNL     1      -0.354  10.703  18.177  0.00  0.00    +0.000 N 
ATOM      2  C   UNL     1      -1.524  11.243  18.658  0.00  0.00    +0.000 C 
ATOM      3  O   UNL     1      -1.635  11.747  19.769  0.00  0.00    +0.000 OA
ATOM      4  H   UNL     1      -0.248  10.479  17.196  0.00  0.00    +0.000 HD
ENDROOT
BRANCH   2   5
ATOM      5  C   UNL     1      -2.703  11.201  17.750  0.00  0.00    +0.000 A 
ATOM      6  C   UNL     1      -2.546  10.649  16.473  0.00  0.00    +0.000 A 
ATOM      7  C   UNL     1      -3.628  10.651  15.583  0.00  0.00    +0.000 A 
ATOM      8  C   UNL     1      -4.861  11.208  15.955  0.00  0.00    +0.000 A 
ATOM      9  C   UNL     1      -5.019  11.783  17.227  0.00  0.00    +0.000 A 
ATOM     10  C   UNL     1      -3.931  11.770  18.121  0.00  0.00    +0.000 A 
BRANCH   9  11
ATOM     11  C   UNL     1      -6.319  12.436  17.632  0.00  0.00    +0.000 C 
ATOM     12  F   UNL     1      -7.250  11.556  18.087  0.00  0.00    +0.000 F 
ATOM     13  F   UNL     1      -6.146  13.352  18.623  0.00  0.00    +0.000 F 
ATOM     14  F   UNL     1      -6.902  13.102  16.599  0.00  0.00    +0.000 F 
ENDBRANCH   9  11
BRANCH   7  15
ATOM     15  N   UNL     1      -3.469  10.084  14.236  0.00  0.00    +0.000 N 
ATOM     16  O   UNL     1      -2.319   9.869  13.833  0.00  0.00    +0.000 OA
ATOM     17  O   UNL     1      -4.499   9.851  13.587  0.00  0.00    +0.000 OA
ENDBRANCH   7  15
ENDBRANCH   2   5
BRANCH   1  18
ATOM     18  C   UNL     1       0.833  10.682  19.003  0.00  0.00    +0.000 C 
BRANCH  18  22
ATOM     19  C   UNL     1       2.848   6.822  18.747  0.00  0.00    +0.000 A 
ATOM     20  C   UNL     1       2.186   7.234  19.912  0.00  0.00    +0.000 A 
ATOM     21  C   UNL     1       1.542   8.478  20.003  0.00  0.00    +0.000 A 
ATOM     22  C   UNL     1       1.533   9.355  18.916  0.00  0.00    +0.000 A 
ATOM     23  C   UNL     1       2.209   8.975  17.754  0.00  0.00    +0.000 A 
ATOM     24  C   UNL     1       2.850   7.731  17.678  0.00  0.00    +0.000 A 
BRANCH  19  29
ATOM     25  C   UNL     1       3.596   1.325  18.476  0.00  0.00    +0.000 C 
ATOM     26  N   UNL     1       4.000   2.730  18.437  0.00  0.00    +0.000 NA
ATOM     27  C   UNL     1       3.722   3.391  19.733  0.00  0.00    +0.000 C 
ATOM     28  C   UNL     1       4.098   4.895  19.737  0.00  0.00    +0.000 C 
ATOM     29  N   UNL     1       3.423   5.575  18.622  0.00  0.00    +0.000 N 
ATOM     30  C   UNL     1       3.662   4.949  17.311  0.00  0.00    +0.000 C 
ATOM     31  C   UNL     1       3.276   3.454  17.365  0.00  0.00    +0.000 C 
ENDBRANCH  19  29
ENDBRANCH  18  22
ENDBRANCH   1  18
TORSDOF 6
ENDMDL
MODEL 2
REMARK VINA RESULT:      -8.1      5.601      9.998
REMARK  Name = 
REMARK  7 active torsions:
REMARK  status: ('A' for Active; 'I' for Inactive)
REMARK    1  A    between atoms: C_1  and  N_2
REMARK    2  A    between atoms: N_5  and  C_6
REMARK    3  A    between atoms: C_9  and  C_10
REMARK    4  A    between atoms: C_10  and  N_11
REMARK    5  A    between atoms: C_12  and  C_14
REMARK    6  A    between atoms: C_16  and  N_17
REMARK    7  A    between atoms: C_21  and  C_22
REMARK                            x       y       z     vdW  Elec       q    Type
REMARK                         _______ _______ _______ _____ _____    ______ ____
ROOT
ATOM      1  N   UNL     1       1.903   9.060  18.178  0.00  0.00    +0.000 N 
ATOM      2  C   UNL     1       2.171   7.989  18.998  0.00  0.00    +0.000 C 
ATOM      3  O   UNL     1       2.035   8.013  20.216  0.00  0.00    +0.000 OA
ATOM      4  H   UNL     1       1.837   8.944  17.175  0.00  0.00    +0.000 HD
ENDROOT
BRANCH   2   5
ATOM      5  C   UNL     1       2.649   6.744  18.338  0.00  0.00    +0.000 A 
ATOM      6  C   UNL     1       1.961   5.549  18.583  0.00  0.00    +0.000 A 
ATOM      7  C   UNL     1       2.427   4.356  18.017  0.00  0.00    +0.000 A 
ATOM      8  C   UNL     1       3.580   4.345  17.217  0.00  0.00    +0.000 A 
ATOM      9  C   UNL     1       4.287   5.535  16.985  0.00  0.00    +0.000 A 
ATOM     10  C   UNL     1       3.810   6.734  17.549  0.00  0.00    +0.000 A 
BRANCH   9  11
ATOM     11  C   UNL     1       5.560   5.541  16.172  0.00  0.00    +0.000 C 
ATOM     12  F   UNL     1       6.591   6.186  16.781  0.00  0.00    +0.000 F 
ATOM     13  F   UNL     1       6.004   4.284  15.904  0.00  0.00    +0.000 F 
ATOM     14  F   UNL     1       5.395   6.149  14.966  0.00  0.00    +0.000 F 
ENDBRANCH   9  11
BRANCH   7  15
ATOM     15  N   UNL     1       1.718   3.095  18.278  0.00  0.00    +0.000 N 
ATOM     16  O   UNL     1       1.979   2.125  17.555  0.00  0.00    +0.000 OA
ATOM     17  O   UNL     1       0.903   3.078  19.213  0.00  0.00    +0.000 OA
ENDBRANCH   7  15
ENDBRANCH   2   5
BRANCH   1  18
ATOM     18  C   UNL     1       1.457  10.315  18.740  0.00  0.00    +0.000 C 
BRANCH  18  22
ATOM     19  C   UNL     1      -2.834  10.867  18.185  0.00  0.00    +0.000 A 
ATOM     20  C   UNL     1      -2.122  11.557  19.176  0.00  0.00    +0.000 A 
ATOM     21  C   UNL     1      -0.744  11.378  19.364  0.00  0.00    +0.000 A 
ATOM     22  C   UNL     1      -0.023  10.500  18.552  0.00  0.00    +0.000 A 
ATOM     23  C   UNL     1      -0.717   9.783  17.576  0.00  0.00    +0.000 A 
ATOM     24  C   UNL     1      -2.095   9.969  17.400  0.00  0.00    +0.000 A 
BRANCH  19  29
ATOM     25  C   UNL     1      -7.898  13.144  18.039  0.00  0.00    +0.000 C 
ATOM     26  N   UNL     1      -6.882  12.131  17.757  0.00  0.00    +0.000 NA
ATOM     27  C   UNL     1      -6.347  11.562  19.016  0.00  0.00    +0.000 C 
ATOM     28  C   UNL     1      -5.238  10.506  18.777  0.00  0.00    +0.000 C 
ATOM     29  N   UNL     1      -4.174  11.087  17.944  0.00  0.00    +0.000 N 
ATOM     30  C   UNL     1      -4.659  11.674  16.683  0.00  0.00    +0.000 C 
ATOM     31  C   UNL     1      -5.763  12.713  16.979  0.00  0.00    +0.000 C 
ENDBRANCH  19  29
ENDBRANCH  18  22
ENDBRANCH   1  18
TORSDOF 6
ENDMDL
MODEL 3
REMARK VINA RESULT:      -8.1      5.075      9.696
REMARK  Name = 
REMARK  7 active torsions:
REMARK  status: ('A' for Active; 'I' for Inactive)
REMARK    1  A    between atoms: C_1  and  N_2
REMARK    2  A    between atoms: N_5  and  C_6
REMARK    3  A    between atoms: C_9  and  C_10
REMARK    4  A    between atoms: C_10  and  N_11
REMARK    5  A    between atoms: C_12  and  C_14
REMARK    6  A    between atoms: C_16  and  N_17
REMARK    7  A    between atoms: C_21  and  C_22
REMARK                            x       y       z     vdW  Elec       q    Type
REMARK                         _______ _______ _______ _____ _____    ______ ____
ROOT
ATOM      1  N   UNL     1       2.008   9.035  18.434  0.00  0.00    +0.000 N 
ATOM      2  C   UNL     1       2.140   7.926  19.237  0.00  0.00    +0.000 C 
ATOM      3  O   UNL     1       1.862   7.913  20.429  0.00  0.00    +0.000 OA
ATOM      4  H   UNL     1       2.057   8.957  17.426  0.00  0.00    +0.000 HD
ENDROOT
BRANCH   2   5
ATOM      5  C   UNL     1       2.651   6.688  18.589  0.00  0.00    +0.000 A 
ATOM      6  C   UNL     1       3.708   6.795  17.676  0.00  0.00    +0.000 A 
ATOM      7  C   UNL     1       4.167   5.650  17.014  0.00  0.00    +0.000 A 
ATOM      8  C   UNL     1       3.571   4.401  17.246  0.00  0.00    +0.000 A 
ATOM      9  C   UNL     1       2.497   4.289  18.143  0.00  0.00    +0.000 A 
ATOM     10  C   UNL     1       2.045   5.442  18.814  0.00  0.00    +0.000 A 
BRANCH   9  11
ATOM     11  C   UNL     1       1.804   2.966  18.371  0.00  0.00    +0.000 C 
ATOM     12  F   UNL     1       2.226   1.981  17.534  0.00  0.00    +0.000 F 
ATOM     13  F   UNL     1       1.995   2.498  19.634  0.00  0.00    +0.000 F 
ATOM     14  F   UNL     1       0.458   3.056  18.200  0.00  0.00    +0.000 F 
ENDBRANCH   9  11
BRANCH   7  15
ATOM     15  N   UNL     1       5.268   5.755  16.046  0.00  0.00    +0.000 N 
ATOM     16  O   UNL     1       5.234   6.688  15.233  0.00  0.00    +0.000 OA
ATOM     17  O   UNL     1       6.168   4.905  16.106  0.00  0.00    +0.000 OA
ENDBRANCH   7  15
ENDBRANCH   2   5
BRANCH   1  18
ATOM     18  C   UNL     1       1.540  10.285  18.989  0.00  0.00    +0.000 C 
BRANCH  18  22
ATOM     19  C   UNL     1      -2.685  10.913  18.109  0.00  0.00    +0.000 A 
ATOM     20  C   UNL     1      -1.924   9.953  17.429  0.00  0.00    +0.000 A 
ATOM     21  C   UNL     1      -0.563   9.752  17.702  0.00  0.00    +0.000 A 
ATOM     22  C   UNL     1       0.086  10.507  18.682  0.00  0.00    +0.000 A 
ATOM     23  C   UNL     1      -0.648  11.486  19.354  0.00  0.00    +0.000 A 
ATOM     24  C   UNL     1      -2.007  11.679  19.069  0.00  0.00    +0.000 A 
BRANCH  19  29
ATOM     25  C   UNL     1      -7.847  12.966  18.067  0.00  0.00    +0.000 C 
ATOM     26  N   UNL     1      -6.795  11.994  17.772  0.00  0.00    +0.000 NA
ATOM     27  C   UNL     1      -6.203  11.467  19.023  0.00  0.00    +0.000 C 
ATOM     28  C   UNL     1      -5.055  10.457  18.769  0.00  0.00    +0.000 C 
ATOM     29  N   UNL     1      -4.039  11.071  17.900  0.00  0.00    +0.000 N 
ATOM     30  C   UNL     1      -4.582  11.619  16.646  0.00  0.00    +0.000 C 
ATOM     31  C   UNL     1      -5.723  12.613  16.958  0.00  0.00    +0.000 C 
ENDBRANCH  19  29
ENDBRANCH  18  22
ENDBRANCH   1  18
TORSDOF 6
ENDMDL
MODEL 4
REMARK VINA RESULT:      -8.1      0.943      1.620
REMARK  Name = 
REMARK  7 active torsions:
REMARK  status: ('A' for Active; 'I' for Inactive)
REMARK    1  A    between atoms: C_1  and  N_2
REMARK    2  A    between atoms: N_5  and  C_6
REMARK    3  A    between atoms: C_9  and  C_10
REMARK    4  A    between atoms: C_10  and  N_11
REMARK    5  A    between atoms: C_12  and  C_14
REMARK    6  A    between atoms: C_16  and  N_17
REMARK    7  A    between atoms: C_21  and  C_22
REMARK                            x       y       z     vdW  Elec       q    Type
REMARK                         _______ _______ _______ _____ _____    ______ ____
ROOT
ATOM      1  N   UNL     1       0.123  10.678  18.033  0.00  0.00    +0.000 N 
ATOM      2  C   UNL     1      -1.082  10.606  18.693  0.00  0.00    +0.000 C 
ATOM      3  O   UNL     1      -1.187  10.415  19.899  0.00  0.00    +0.000 OA
ATOM      4  H   UNL     1       0.177  11.029  17.086  0.00  0.00    +0.000 HD
ENDROOT
BRANCH   2   5
ATOM      5  C   UNL     1      -2.309  10.778  17.869  0.00  0.00    +0.000 A 
ATOM      6  C   UNL     1      -2.293  10.330  16.542  0.00  0.00    +0.000 A 
ATOM      7  C   UNL     1      -3.418  10.532  15.732  0.00  0.00    +0.000 A 
ATOM      8  C   UNL     1      -4.553  11.188  16.233  0.00  0.00    +0.000 A 
ATOM      9  C   UNL     1      -4.567  11.659  17.555  0.00  0.00    +0.000 A 
ATOM     10  C   UNL     1      -3.438  11.445  18.369  0.00  0.00    +0.000 A 
BRANCH   9  11
ATOM     11  C   UNL     1      -5.756  12.415  18.102  0.00  0.00    +0.000 C 
ATOM     12  F   UNL     1      -6.465  13.075  17.148  0.00  0.00    +0.000 F 
ATOM     13  F   UNL     1      -6.640  11.594  18.731  0.00  0.00    +0.000 F 
ATOM     14  F   UNL     1      -5.391  13.352  19.018  0.00  0.00    +0.000 F 
ENDBRANCH   9  11
BRANCH   7  15
ATOM     15  N   UNL     1      -3.405  10.076  14.335  0.00  0.00    +0.000 N 
ATOM     16  O   UNL     1      -2.310   9.809  13.825  0.00  0.00    +0.000 OA
ATOM     17  O   UNL     1      -4.496   9.980  13.753  0.00  0.00    +0.000 OA
ENDBRANCH   7  15
ENDBRANCH   2   5
BRANCH   1  18
ATOM     18  C   UNL     1       1.362  10.498  18.756  0.00  0.00    +0.000 C 
BRANCH  18  22
ATOM     19  C   UNL     1       2.484   6.289  18.975  0.00  0.00    +0.000 A 
ATOM     20  C   UNL     1       2.551   7.010  17.774  0.00  0.00    +0.000 A 
ATOM     21  C   UNL     1       2.184   8.362  17.696  0.00  0.00    +0.000 A 
ATOM     22  C   UNL     1       1.742   9.046  18.831  0.00  0.00    +0.000 A 
ATOM     23  C   UNL     1       1.644   8.340  20.032  0.00  0.00    +0.000 A 
ATOM     24  C   UNL     1       2.011   6.989  20.096  0.00  0.00    +0.000 A 
BRANCH  19  29
ATOM     25  C   UNL     1       4.946   1.633  20.739  0.00  0.00    +0.000 C 
ATOM     26  N   UNL     1       4.109   2.449  19.861  0.00  0.00    +0.000 NA
ATOM     27  C   UNL     1       4.904   3.534  19.240  0.00  0.00    +0.000 C 
ATOM     28  C   UNL     1       4.056   4.455  18.325  0.00  0.00    +0.000 C 
ATOM     29  N   UNL     1       2.909   4.982  19.080  0.00  0.00    +0.000 N 
ATOM     30  C   UNL     1       2.093   3.940  19.725  0.00  0.00    +0.000 C 
ATOM     31  C   UNL     1       2.986   3.051  20.618  0.00  0.00    +0.000 C 
ENDBRANCH  19  29
ENDBRANCH  18  22
ENDBRANCH   1  18
TORSDOF 6
ENDMDL
MODEL 5
REMARK VINA RESULT:      -8.0      5.026      9.651
REMARK  Name = 
REMARK  7 active torsions:
REMARK  status: ('A' for Active; 'I' for Inactive)
REMARK    1  A    between atoms: C_1  and  N_2
REMARK    2  A    between atoms: N_5  and  C_6
REMARK    3  A    between atoms: C_9  and  C_10
REMARK    4  A    between atoms: C_10  and  N_11
REMARK    5  A    between atoms: C_12  and  C_14
REMARK    6  A    between atoms: C_16  and  N_17
REMARK    7  A    between atoms: C_21  and  C_22
REMARK                            x       y       z     vdW  Elec       q    Type
REMARK                         _______ _______ _______ _____ _____    ______ ____
ROOT
ATOM      1  N   UNL     1       2.097   8.791  18.290  0.00  0.00    +0.000 N 
ATOM      2  C   UNL     1       2.131   7.813  19.257  0.00  0.00    +0.000 C 
ATOM      3  O   UNL     1       1.904   8.020  20.442  0.00  0.00    +0.000 OA
ATOM      4  H   UNL     1       2.094   8.552  17.307  0.00  0.00    +0.000 HD
ENDROOT
BRANCH   2   5
ATOM      5  C   UNL     1       2.462   6.435  18.803  0.00  0.00    +0.000 A 
ATOM      6  C   UNL     1       3.462   6.269  17.836  0.00  0.00    +0.000 A 
ATOM      7  C   UNL     1       3.750   4.986  17.355  0.00  0.00    +0.000 A 
ATOM      8  C   UNL     1       3.041   3.869  17.823  0.00  0.00    +0.000 A 
ATOM      9  C   UNL     1       2.022   4.030  18.776  0.00  0.00    +0.000 A 
ATOM     10  C   UNL     1       1.743   5.321  19.264  0.00  0.00    +0.000 A 
BRANCH   9  11
ATOM     11  C   UNL     1       1.209   2.851  19.256  0.00  0.00    +0.000 C 
ATOM     12  F   UNL     1       0.674   3.029  20.494  0.00  0.00    +0.000 F 
ATOM     13  F   UNL     1       0.166   2.576  18.428  0.00  0.00    +0.000 F 
ATOM     14  F   UNL     1       1.949   1.712  19.324  0.00  0.00    +0.000 F 
ENDBRANCH   9  11
BRANCH   7  15
ATOM     15  N   UNL     1       4.790   4.804  16.332  0.00  0.00    +0.000 N 
ATOM     16  O   UNL     1       5.285   3.677  16.207  0.00  0.00    +0.000 OA
ATOM     17  O   UNL     1       5.104   5.791  15.651  0.00  0.00    +0.000 OA
ENDBRANCH   7  15
ENDBRANCH   2   5
BRANCH   1  18
ATOM     18  C   UNL     1       1.807  10.161  18.649  0.00  0.00    +0.000 C 
BRANCH  18  22
ATOM     19  C   UNL     1      -2.470  10.988  18.435  0.00  0.00    +0.000 A 
ATOM     20  C   UNL     1      -1.637  11.640  19.354  0.00  0.00    +0.000 A 
ATOM     21  C   UNL     1      -0.262  11.373  19.433  0.00  0.00    +0.000 A 
ATOM     22  C   UNL     1       0.332  10.441  18.578  0.00  0.00    +0.000 A 
ATOM     23  C   UNL     1      -0.485   9.761  17.673  0.00  0.00    +0.000 A 
ATOM     24  C   UNL     1      -1.858  10.035  17.606  0.00  0.00    +0.000 A 
BRANCH  19  29
ATOM     25  C   UNL     1      -7.229  13.680  17.449  0.00  0.00    +0.000 C 
ATOM     26  N   UNL     1      -6.393  12.538  17.818  0.00  0.00    +0.000 NA
ATOM     27  C   UNL     1      -5.589  12.844  19.023  0.00  0.00    +0.000 C 
ATOM     28  C   UNL     1      -4.655  11.678  19.438  0.00  0.00    +0.000 C 
ATOM     29  N   UNL     1      -3.808  11.293  18.299  0.00  0.00    +0.000 N 
ATOM     30  C   UNL     1      -4.564  10.987  17.073  0.00  0.00    +0.000 C 
ATOM     31  C   UNL     1      -5.478  12.178  16.709  0.00  0.00    +0.000 C 
ENDBRANCH  19  29
ENDBRANCH  18  22
ENDBRANCH   1  18
TORSDOF 6
ENDMDL
MODEL 6
REMARK VINA RESULT:      -7.9      6.518     10.716
REMARK  Name = 
REMARK  7 active torsions:
REMARK  status: ('A' for Active; 'I' for Inactive)
REMARK    1  A    between atoms: C_1  and  N_2
REMARK    2  A    between atoms: N_5  and  C_6
REMARK    3  A    between atoms: C_9  and  C_10
REMARK    4  A    between atoms: C_10  and  N_11
REMARK    5  A    between atoms: C_12  and  C_14
REMARK    6  A    between atoms: C_16  and  N_17
REMARK    7  A    between atoms: C_21  and  C_22
REMARK                            x       y       z     vdW  Elec       q    Type
REMARK                         _______ _______ _______ _____ _____    ______ ____
ROOT
ATOM      1  N   UNL     1       3.001   6.275  19.842  0.00  0.00    +0.000 N 
ATOM      2  C   UNL     1       3.051   5.646  18.620  0.00  0.00    +0.000 C 
ATOM      3  O   UNL     1       2.060   5.266  18.009  0.00  0.00    +0.000 OA
ATOM      4  H   UNL     1       3.814   6.746  20.219  0.00  0.00    +0.000 HD
ENDROOT
BRANCH   2   5
ATOM      5  C   UNL     1       4.402   5.431  18.033  0.00  0.00    +0.000 A 
ATOM      6  C   UNL     1       5.526   5.768  18.797  0.00  0.00    +0.000 A 
ATOM      7  C   UNL     1       6.805   5.626  18.242  0.00  0.00    +0.000 A 
ATOM      8  C   UNL     1       6.968   5.162  16.928  0.00  0.00    +0.000 A 
ATOM      9  C   UNL     1       5.844   4.843  16.149  0.00  0.00    +0.000 A 
ATOM     10  C   UNL     1       4.562   4.978  16.714  0.00  0.00    +0.000 A 
BRANCH   9  11
ATOM     11  C   UNL     1       5.991   4.391  14.715  0.00  0.00    +0.000 C 
ATOM     12  F   UNL     1       4.862   4.558  13.975  0.00  0.00    +0.000 F 
ATOM     13  F   UNL     1       6.976   5.066  14.063  0.00  0.00    +0.000 F 
ATOM     14  F   UNL     1       6.311   3.073  14.623  0.00  0.00    +0.000 F 
ENDBRANCH   9  11
BRANCH   7  15
ATOM     15  N   UNL     1       7.990   5.988  19.033  0.00  0.00    +0.000 N 
ATOM     16  O   UNL     1       8.469   7.118  18.869  0.00  0.00    +0.000 OA
ATOM     17  O   UNL     1       8.435   5.141  19.820  0.00  0.00    +0.000 OA
ENDBRANCH   7  15
ENDBRANCH   2   5
BRANCH   1  18
ATOM     18  C   UNL     1       1.731   6.502  20.494  0.00  0.00    +0.000 C 
BRANCH  18  22
ATOM     19  C   UNL     1       0.714  10.743  20.564  0.00  0.00    +0.000 A 
ATOM     20  C   UNL     1       1.086  10.092  19.379  0.00  0.00    +0.000 A 
ATOM     21  C   UNL     1       1.421   8.730  19.352  0.00  0.00    +0.000 A 
ATOM     22  C   UNL     1       1.386   7.965  20.520  0.00  0.00    +0.000 A 
ATOM     23  C   UNL     1       1.043   8.600  21.715  0.00  0.00    +0.000 A 
ATOM     24  C   UNL     1       0.714   9.962  21.729  0.00  0.00    +0.000 A 
BRANCH  19  29
ATOM     25  C   UNL     1       0.706  16.281  21.001  0.00  0.00    +0.000 C 
ATOM     26  N   UNL     1       0.124  14.960  20.770  0.00  0.00    +0.000 NA
ATOM     27  C   UNL     1       0.264  14.108  21.974  0.00  0.00    +0.000 C 
ATOM     28  C   UNL     1      -0.306  12.681  21.773  0.00  0.00    +0.000 C 
ATOM     29  N   UNL     1       0.314  12.063  20.591  0.00  0.00    +0.000 N 
ATOM     30  C   UNL     1       0.208  12.877  19.369  0.00  0.00    +0.000 C 
ATOM     31  C   UNL     1       0.785  14.287  19.627  0.00  0.00    +0.000 C 
ENDBRANCH  19  29
ENDBRANCH  18  22
ENDBRANCH   1  18
TORSDOF 6
ENDMDL
MODEL 7
REMARK VINA RESULT:      -7.9      8.939     11.431
REMARK  Name = 
REMARK  7 active torsions:
REMARK  status: ('A' for Active; 'I' for Inactive)
REMARK    1  A    between atoms: C_1  and  N_2
REMARK    2  A    between atoms: N_5  and  C_6
REMARK    3  A    between atoms: C_9  and  C_10
REMARK    4  A    between atoms: C_10  and  N_11
REMARK    5  A    between atoms: C_12  and  C_14
REMARK    6  A    between atoms: C_16  and  N_17
REMARK    7  A    between atoms: C_21  and  C_22
REMARK                            x       y       z     vdW  Elec       q    Type
REMARK                         _______ _______ _______ _____ _____    ______ ____
ROOT
ATOM      1  N   UNL     1       8.048   7.201  18.395  0.00  0.00    +0.000 N 
ATOM      2  C   UNL     1       7.504   6.003  18.798  0.00  0.00    +0.000 C 
ATOM      3  O   UNL     1       7.626   5.546  19.928  0.00  0.00    +0.000 OA
ATOM      4  H   UNL     1       7.764   7.636  17.527  0.00  0.00    +0.000 HD
ENDROOT
BRANCH   2   5
ATOM      5  C   UNL     1       6.725   5.246  17.781  0.00  0.00    +0.000 A 
ATOM      6  C   UNL     1       7.151   5.281  16.448  0.00  0.00    +0.000 A 
ATOM      7  C   UNL     1       6.401   4.621  15.466  0.00  0.00    +0.000 A 
ATOM      8  C   UNL     1       5.224   3.936  15.804  0.00  0.00    +0.000 A 
ATOM      9  C   UNL     1       4.779   3.915  17.135  0.00  0.00    +0.000 A 
ATOM     10  C   UNL     1       5.541   4.572  18.120  0.00  0.00    +0.000 A 
BRANCH   9  11
ATOM     11  C   UNL     1       3.487   3.230  17.516  0.00  0.00    +0.000 C 
ATOM     12  F   UNL     1       3.625   1.896  17.737  0.00  0.00    +0.000 F 
ATOM     13  F   UNL     1       2.947   3.749  18.652  0.00  0.00    +0.000 F 
ATOM     14  F   UNL     1       2.536   3.358  16.552  0.00  0.00    +0.000 F 
ENDBRANCH   9  11
BRANCH   7  15
ATOM     15  N   UNL     1       6.834   4.663  14.062  0.00  0.00    +0.000 N 
ATOM     16  O   UNL     1       7.734   5.456  13.760  0.00  0.00    +0.000 OA
ATOM     17  O   UNL     1       6.274   3.895  13.266  0.00  0.00    +0.000 OA
ENDBRANCH   7  15
ENDBRANCH   2   5
BRANCH   1  18
ATOM     18  C   UNL     1       8.839   7.988  19.314  0.00  0.00    +0.000 C 
BRANCH  18  22
ATOM     19  C   UNL     1       8.800  12.208  18.210  0.00  0.00    +0.000 A 
ATOM     20  C   UNL     1       8.099  11.244  17.471  0.00  0.00    +0.000 A 
ATOM     21  C   UNL     1       8.114   9.885  17.817  0.00  0.00    +0.000 A 
ATOM     22  C   UNL     1       8.831   9.441  18.931  0.00  0.00    +0.000 A 
ATOM     23  C   UNL     1       9.557  10.381  19.666  0.00  0.00    +0.000 A 
ATOM     24  C   UNL     1       9.536  11.736  19.308  0.00  0.00    +0.000 A 
BRANCH  19  29
ATOM     25  C   UNL     1       8.505  17.733  18.702  0.00  0.00    +0.000 C 
ATOM     26  N   UNL     1       8.598  16.460  17.988  0.00  0.00    +0.000 NA
ATOM     27  C   UNL     1       7.416  15.613  18.272  0.00  0.00    +0.000 C 
ATOM     28  C   UNL     1       7.480  14.233  17.568  0.00  0.00    +0.000 C 
ATOM     29  N   UNL     1       8.736  13.555  17.923  0.00  0.00    +0.000 N 
ATOM     30  C   UNL     1       9.940  14.362  17.667  0.00  0.00    +0.000 C 
ATOM     31  C   UNL     1       9.821  15.724  18.386  0.00  0.00    +0.000 C 
ENDBRANCH  19  29
ENDBRANCH  18  22
ENDBRANCH   1  18
TORSDOF 6
ENDMDL
MODEL 8
REMARK VINA RESULT:      -7.9      5.926     10.209
REMARK  Name = 
REMARK  7 active torsions:
REMARK  status: ('A' for Active; 'I' for Inactive)
REMARK    1  A    between atoms: C_1  and  N_2
REMARK    2  A    between atoms: N_5  and  C_6
REMARK    3  A    between atoms: C_9  and  C_10
REMARK    4  A    between atoms: C_10  and  N_11
REMARK    5  A    between atoms: C_12  and  C_14
REMARK    6  A    between atoms: C_16  and  N_17
REMARK    7  A    between atoms: C_21  and  C_22
REMARK                            x       y       z     vdW  Elec       q    Type
REMARK                         _______ _______ _______ _____ _____    ______ ____
ROOT
ATOM      1  N   UNL     1       1.444   8.477  18.659  0.00  0.00    +0.000 N 
ATOM      2  C   UNL     1       2.499   7.916  17.978  0.00  0.00    +0.000 C 
ATOM      3  O   UNL     1       3.027   8.429  16.999  0.00  0.00    +0.000 OA
ATOM      4  H   UNL     1       1.167   8.128  19.568  0.00  0.00    +0.000 HD
ENDROOT
BRANCH   2   5
ATOM      5  C   UNL     1       3.006   6.612  18.485  0.00  0.00    +0.000 A 
ATOM      6  C   UNL     1       4.391   6.404  18.532  0.00  0.00    +0.000 A 
ATOM      7  C   UNL     1       4.888   5.164  18.954  0.00  0.00    +0.000 A 
ATOM      8  C   UNL     1       4.014   4.128  19.318  0.00  0.00    +0.000 A 
ATOM      9  C   UNL     1       2.625   4.323  19.253  0.00  0.00    +0.000 A 
ATOM     10  C   UNL     1       2.130   5.574  18.838  0.00  0.00    +0.000 A 
BRANCH   9  11
ATOM     11  C   UNL     1       1.664   3.207  19.589  0.00  0.00    +0.000 C 
ATOM     12  F   UNL     1       1.184   2.556  18.496  0.00  0.00    +0.000 F 
ATOM     13  F   UNL     1       2.236   2.257  20.377  0.00  0.00    +0.000 F 
ATOM     14  F   UNL     1       0.575   3.656  20.269  0.00  0.00    +0.000 F 
ENDBRANCH   9  11
BRANCH   7  15
ATOM     15  N   UNL     1       6.339   4.932  18.994  0.00  0.00    +0.000 N 
ATOM     16  O   UNL     1       6.971   5.400  19.950  0.00  0.00    +0.000 OA
ATOM     17  O   UNL     1       6.841   4.278  18.069  0.00  0.00    +0.000 OA
ENDBRANCH   7  15
ENDBRANCH   2   5
BRANCH   1  18
ATOM     18  C   UNL     1       0.876   9.731  18.219  0.00  0.00    +0.000 C 
BRANCH  18  22
ATOM     19  C   UNL     1      -1.095  11.817  21.503  0.00  0.00    +0.000 A 
ATOM     20  C   UNL     1      -0.034  10.927  21.724  0.00  0.00    +0.000 A 
ATOM     21  C   UNL     1       0.598  10.248  20.672  0.00  0.00    +0.000 A 
ATOM     22  C   UNL     1       0.192  10.445  19.350  0.00  0.00    +0.000 A 
ATOM     23  C   UNL     1      -0.880  11.308  19.111  0.00  0.00    +0.000 A 
ATOM     24  C   UNL     1      -1.506  11.978  20.171  0.00  0.00    +0.000 A 
BRANCH  19  29
ATOM     25  C   UNL     1      -4.245  15.421  24.322  0.00  0.00    +0.000 C 
ATOM     26  N   UNL     1      -3.255  14.357  24.158  0.00  0.00    +0.000 NA
ATOM     27  C   UNL     1      -2.107  14.830  23.351  0.00  0.00    +0.000 C 
ATOM     28  C   UNL     1      -1.041  13.729  23.116  0.00  0.00    +0.000 C 
ATOM     29  N   UNL     1      -1.678  12.544  22.520  0.00  0.00    +0.000 N 
ATOM     30  C   UNL     1      -2.833  12.042  23.283  0.00  0.00    +0.000 C 
ATOM     31  C   UNL     1      -3.858  13.179  23.492  0.00  0.00    +0.000 C 
ENDBRANCH  19  29
ENDBRANCH  18  22
ENDBRANCH   1  18
TORSDOF 6
ENDMDL
MODEL 9
REMARK VINA RESULT:      -7.9      5.931     10.169
REMARK  Name = 
REMARK  7 active torsions:
REMARK  status: ('A' for Active; 'I' for Inactive)
REMARK    1  A    between atoms: C_1  and  N_2
REMARK    2  A    between atoms: N_5  and  C_6
REMARK    3  A    between atoms: C_9  and  C_10
REMARK    4  A    between atoms: C_10  and  N_11
REMARK    5  A    between atoms: C_12  and  C_14
REMARK    6  A    between atoms: C_16  and  N_17
REMARK    7  A    between atoms: C_21  and  C_22
REMARK                            x       y       z     vdW  Elec       q    Type
REMARK                         _______ _______ _______ _____ _____    ______ ____
ROOT
ATOM      1  N   UNL     1       1.456   8.493  18.633  0.00  0.00    +0.000 N 
ATOM      2  C   UNL     1       2.528   7.945  17.968  0.00  0.00    +0.000 C 
ATOM      3  O   UNL     1       3.049   8.452  16.983  0.00  0.00    +0.000 OA
ATOM      4  H   UNL     1       1.182   8.155  19.546  0.00  0.00    +0.000 HD
ENDROOT
BRANCH   2   5
ATOM      5  C   UNL     1       3.064   6.664  18.503  0.00  0.00    +0.000 A 
ATOM      6  C   UNL     1       4.302   6.207  18.035  0.00  0.00    +0.000 A 
ATOM      7  C   UNL     1       4.799   4.977  18.483  0.00  0.00    +0.000 A 
ATOM      8  C   UNL     1       4.064   4.194  19.387  0.00  0.00    +0.000 A 
ATOM      9  C   UNL     1       2.812   4.636  19.845  0.00  0.00    +0.000 A 
ATOM     10  C   UNL     1       2.322   5.878  19.398  0.00  0.00    +0.000 A 
BRANCH   9  11
ATOM     11  C   UNL     1       1.978   3.788  20.777  0.00  0.00    +0.000 C 
ATOM     12  F   UNL     1       2.291   3.956  22.089  0.00  0.00    +0.000 F 
ATOM     13  F   UNL     1       0.650   4.058  20.665  0.00  0.00    +0.000 F 
ATOM     14  F   UNL     1       2.116   2.459  20.522  0.00  0.00    +0.000 F 
ENDBRANCH   9  11
BRANCH   7  15
ATOM     15  N   UNL     1       6.092   4.484  17.987  0.00  0.00    +0.000 N 
ATOM     16  O   UNL     1       6.154   4.112  16.808  0.00  0.00    +0.000 OA
ATOM     17  O   UNL     1       7.045   4.475  18.780  0.00  0.00    +0.000 OA
ENDBRANCH   7  15
ENDBRANCH   2   5
BRANCH   1  18
ATOM     18  C   UNL     1       0.860   9.724  18.165  0.00  0.00    +0.000 C 
BRANCH  18  22
ATOM     19  C   UNL     1      -0.934  11.957  21.454  0.00  0.00    +0.000 A 
ATOM     20  C   UNL     1      -1.218  12.259  20.114  0.00  0.00    +0.000 A 
ATOM     21  C   UNL     1      -0.638  11.549  19.053  0.00  0.00    +0.000 A 
ATOM     22  C   UNL     1       0.247  10.497  19.299  0.00  0.00    +0.000 A 
ATOM     23  C   UNL     1       0.562  10.196  20.626  0.00  0.00    +0.000 A 
ATOM     24  C   UNL     1      -0.022  10.915  21.677  0.00  0.00    +0.000 A 
BRANCH  19  29
ATOM     25  C   UNL     1      -4.229  15.277  24.452  0.00  0.00    +0.000 C 
ATOM     26  N   UNL     1      -3.205  14.255  24.235  0.00  0.00    +0.000 NA
ATOM     27  C   UNL     1      -2.061  14.812  23.477  0.00  0.00    +0.000 C 
ATOM     28  C   UNL     1      -0.959  13.761  23.187  0.00  0.00    +0.000 C 
ATOM     29  N   UNL     1      -1.552  12.599  22.506  0.00  0.00    +0.000 N 
ATOM     30  C   UNL     1      -2.700  12.015  23.219  0.00  0.00    +0.000 C 
ATOM     31  C   UNL     1      -3.762  13.105  23.486  0.00  0.00    +0.000 C 
ENDBRANCH  19  29
ENDBRANCH  18  22
ENDBRANCH   1  18
TORSDOF 6
ENDMDL
