MODEL 1
REMARK VINA RESULT:      -7.4      0.000      0.000
REMARK  Name = 
REMARK  3 active torsions:
REMARK  status: ('A' for Active; 'I' for Inactive)
REMARK    1  A    between atoms: O_1  and  C_2
REMARK    2  A    between atoms: C_4  and  O_5
REMARK    3  A    between atoms: C_8  and  N_9
REMARK                            x       y       z     vdW  Elec       q    Type
REMARK                         _______ _______ _______ _____ _____    ______ ____
ROOT
ATOM      1  C   UNL     1       7.450   5.607  19.622  0.00  0.00    +0.000 A 
ATOM      2  N   UNL     1       7.993   6.402  18.697  0.00  0.00    +0.000 NA
ATOM      3  C   UNL     1       7.222   6.542  17.613  0.00  0.00    +0.000 A 
ATOM      4  C   UNL     1       5.983   5.965  17.427  0.00  0.00    +0.000 A 
ATOM      5 CL   UNL     1       5.171   6.142  15.909  0.00  0.00    +0.000 Cl
ATOM      6  C   UNL     1       5.502   5.195  18.492  0.00  0.00    +0.000 A 
ATOM      7  N   UNL     1       6.264   4.995  19.590  0.00  0.00    +0.000 NA
ENDROOT
BRANCH   6   8
ATOM      8  N   UNL     1       4.255   4.592  18.434  0.00  0.00    +0.000 N 
ATOM      9  C   UNL     1       4.112   3.156  18.657  0.00  0.00    +0.000 C 
ATOM     10  C   UNL     1       2.951   2.684  17.766  0.00  0.00    +0.000 C 
ATOM     11  C   UNL     1       1.675   3.516  17.967  0.00  0.00    +0.000 C 
ATOM     12  C   UNL     1       1.951   5.022  17.938  0.00  0.00    +0.000 C 
ATOM     13  C   UNL     1       3.099   5.372  18.880  0.00  0.00    +0.000 C 
ENDBRANCH   6   8
BRANCH   1  14
ATOM     14  O   UNL     1       8.230   5.424  20.721  0.00  0.00    +0.000 OA
ATOM     15  H   UNL     1       8.982   4.968  20.316  0.00  0.00    +0.000 HD
ENDBRANCH   1  14
BRANCH   3  16
ATOM     16  O   UNL     1       7.781   7.344  16.660  0.00  0.00    +0.000 OA
ATOM     17  H   UNL     1       8.730   7.215  16.825  0.00  0.00    +0.000 HD
ENDBRANCH   3  16
TORSDOF 3
ENDMDL
MODEL 2
REMARK VINA RESULT:      -7.1      0.572      1.379
REMARK  Name = 
REMARK  3 active torsions:
REMARK  status: ('A' for Active; 'I' for Inactive)
REMARK    1  A    between atoms: O_1  and  C_2
REMARK    2  A    between atoms: C_4  and  O_5
REMARK    3  A    between atoms: C_8  and  N_9
REMARK                            x       y       z     vdW  Elec       q    Type
REMARK                         _______ _______ _______ _____ _____    ______ ____
ROOT
ATOM      1  C   UNL     1       7.400   5.630  19.514  0.00  0.00    +0.000 A 
ATOM      2  N   UNL     1       7.924   6.560  18.712  0.00  0.00    +0.000 NA
ATOM      3  C   UNL     1       7.173   6.798  17.631  0.00  0.00    +0.000 A 
ATOM      4  C   UNL     1       5.971   6.190  17.337  0.00  0.00    +0.000 A 
ATOM      5 CL   UNL     1       5.188   6.517  15.828  0.00  0.00    +0.000 Cl
ATOM      6  C   UNL     1       5.504   5.271  18.283  0.00  0.00    +0.000 A 
ATOM      7  N   UNL     1       6.248   4.972  19.371  0.00  0.00    +0.000 NA
ENDROOT
BRANCH   6   8
ATOM      8  N   UNL     1       4.290   4.622  18.113  0.00  0.00    +0.000 N 
ATOM      9  C   UNL     1       3.036   5.369  18.143  0.00  0.00    +0.000 C 
ATOM     10  C   UNL     1       1.980   4.435  18.757  0.00  0.00    +0.000 C 
ATOM     11  C   UNL     1       1.920   3.069  18.057  0.00  0.00    +0.000 C 
ATOM     12  C   UNL     1       3.308   2.450  17.867  0.00  0.00    +0.000 C 
ATOM     13  C   UNL     1       4.257   3.458  17.225  0.00  0.00    +0.000 C 
ENDBRANCH   6   8
BRANCH   1  14
ATOM     14  O   UNL     1       8.161   5.348  20.606  0.00  0.00    +0.000 OA
ATOM     15  H   UNL     1       8.615   4.553  20.290  0.00  0.00    +0.000 HD
ENDBRANCH   1  14
BRANCH   3  16
ATOM     16  O   UNL     1       7.714   7.738  16.802  0.00  0.00    +0.000 OA
ATOM     17  H   UNL     1       7.687   7.284  15.943  0.00  0.00    +0.000 HD
ENDBRANCH   3  16
TORSDOF 3
ENDMDL
MODEL 3
REMARK VINA RESULT:      -7.1      1.056      1.056
REMARK  Name = 
REMARK  3 active torsions:
REMARK  status: ('A' for Active; 'I' for Inactive)
REMARK    1  A    between atoms: O_1  and  C_2
REMARK    2  A    between atoms: C_4  and  O_5
REMARK    3  A    between atoms: C_8  and  N_9
REMARK                            x       y       z     vdW  Elec       q    Type
REMARK                         _______ _______ _______ _____ _____    ______ ____
ROOT
ATOM      1  C   UNL     1       7.221   5.296  19.120  0.00  0.00    +0.000 A 
ATOM      2  N   UNL     1       7.797   5.618  17.960  0.00  0.00    +0.000 NA
ATOM      3  C   UNL     1       7.035   5.322  16.901  0.00  0.00    +0.000 A 
ATOM      4  C   UNL     1       5.776   4.760  16.947  0.00  0.00    +0.000 A 
ATOM      5 CL   UNL     1       4.976   4.318  15.477  0.00  0.00    +0.000 Cl
ATOM      6  C   UNL     1       5.263   4.517  18.226  0.00  0.00    +0.000 A 
ATOM      7  N   UNL     1       6.013   4.765  19.323  0.00  0.00    +0.000 NA
ENDROOT
BRANCH   6   8
ATOM      8  N   UNL     1       3.994   3.986  18.400  0.00  0.00    +0.000 N 
ATOM      9  C   UNL     1       3.820   2.625  18.902  0.00  0.00    +0.000 C 
ATOM     10  C   UNL     1       2.556   2.065  18.228  0.00  0.00    +0.000 C 
ATOM     11  C   UNL     1       1.340   2.991  18.388  0.00  0.00    +0.000 C 
ATOM     12  C   UNL     1       1.669   4.447  18.049  0.00  0.00    +0.000 C 
ATOM     13  C   UNL     1       2.921   4.899  18.797  0.00  0.00    +0.000 C 
ENDBRANCH   6   8
BRANCH   1  14
ATOM     14  O   UNL     1       7.990   5.559  20.211  0.00  0.00    +0.000 OA
ATOM     15  H   UNL     1       7.387   5.271  20.912  0.00  0.00    +0.000 HD
ENDBRANCH   1  14
BRANCH   3  16
ATOM     16  O   UNL     1       7.626   5.637  15.712  0.00  0.00    +0.000 OA
ATOM     17  H   UNL     1       7.374   4.879  15.158  0.00  0.00    +0.000 HD
ENDBRANCH   3  16
TORSDOF 3
ENDMDL
MODEL 4
REMARK VINA RESULT:      -6.6      1.631      2.157
REMARK  Name = 
REMARK  3 active torsions:
REMARK  status: ('A' for Active; 'I' for Inactive)
REMARK    1  A    between atoms: O_1  and  C_2
REMARK    2  A    between atoms: C_4  and  O_5
REMARK    3  A    between atoms: C_8  and  N_9
REMARK                            x       y       z     vdW  Elec       q    Type
REMARK                         _______ _______ _______ _____ _____    ______ ____
ROOT
ATOM      1  C   UNL     1       7.333   5.184  19.548  0.00  0.00    +0.000 A 
ATOM      2  N   UNL     1       7.826   5.079  18.312  0.00  0.00    +0.000 NA
ATOM      3  C   UNL     1       6.902   4.720  17.412  0.00  0.00    +0.000 A 
ATOM      4  C   UNL     1       5.569   4.488  17.677  0.00  0.00    +0.000 A 
ATOM      5 CL   UNL     1       4.531   3.902  16.422  0.00  0.00    +0.000 Cl
ATOM      6  C   UNL     1       5.168   4.681  19.004  0.00  0.00    +0.000 A 
ATOM      7  N   UNL     1       6.074   5.006  19.952  0.00  0.00    +0.000 NA
ENDROOT
BRANCH   6   8
ATOM      8  N   UNL     1       3.845   4.510  19.385  0.00  0.00    +0.000 N 
ATOM      9  C   UNL     1       2.843   5.524  19.067  0.00  0.00    +0.000 C 
ATOM     10  C   UNL     1       1.828   5.519  20.221  0.00  0.00    +0.000 C 
ATOM     11  C   UNL     1       1.279   4.115  20.520  0.00  0.00    +0.000 C 
ATOM     12  C   UNL     1       2.388   3.065  20.621  0.00  0.00    +0.000 C 
ATOM     13  C   UNL     1       3.312   3.147  19.409  0.00  0.00    +0.000 C 
ENDBRANCH   6   8
BRANCH   1  14
ATOM     14  O   UNL     1       8.260   5.517  20.485  0.00  0.00    +0.000 OA
ATOM     15  H   UNL     1       7.790   6.235  20.935  0.00  0.00    +0.000 HD
ENDBRANCH   1  14
BRANCH   3  16
ATOM     16  O   UNL     1       7.405   4.599  16.149  0.00  0.00    +0.000 OA
ATOM     17  H   UNL     1       8.127   5.249  16.160  0.00  0.00    +0.000 HD
ENDBRANCH   3  16
TORSDOF 3
ENDMDL
MODEL 5
REMARK VINA RESULT:      -6.5      1.586      1.789
REMARK  Name = 
REMARK  3 active torsions:
REMARK  status: ('A' for Active; 'I' for Inactive)
REMARK    1  A    between atoms: O_1  and  C_2
REMARK    2  A    between atoms: C_4  and  O_5
REMARK    3  A    between atoms: C_8  and  N_9
REMARK                            x       y       z     vdW  Elec       q    Type
REMARK                         _______ _______ _______ _____ _____    ______ ____
ROOT
ATOM      1  C   UNL     1       7.343   4.720  17.772  0.00  0.00    +0.000 A 
ATOM      2  N   UNL     1       7.595   5.979  17.407  0.00  0.00    +0.000 NA
ATOM      3  C   UNL     1       6.493   6.737  17.357  0.00  0.00    +0.000 A 
ATOM      4  C   UNL     1       5.214   6.317  17.657  0.00  0.00    +0.000 A 
ATOM      5 CL   UNL     1       3.877   7.390  17.415  0.00  0.00    +0.000 Cl
ATOM      6  C   UNL     1       5.090   4.988  18.075  0.00  0.00    +0.000 A 
ATOM      7  N   UNL     1       6.171   4.176  18.104  0.00  0.00    +0.000 NA
ENDROOT
BRANCH   6   8
ATOM      8  N   UNL     1       3.859   4.461  18.436  0.00  0.00    +0.000 N 
ATOM      9  C   UNL     1       2.997   3.834  17.438  0.00  0.00    +0.000 C 
ATOM     10  C   UNL     1       1.547   4.125  17.860  0.00  0.00    +0.000 C 
ATOM     11  C   UNL     1       1.266   3.733  19.319  0.00  0.00    +0.000 C 
ATOM     12  C   UNL     1       2.342   4.248  20.278  0.00  0.00    +0.000 C 
ATOM     13  C   UNL     1       3.732   3.874  19.771  0.00  0.00    +0.000 C 
ENDBRANCH   6   8
BRANCH   1  14
ATOM     14  O   UNL     1       8.444   3.923  17.800  0.00  0.00    +0.000 OA
ATOM     15  H   UNL     1       8.858   4.241  18.616  0.00  0.00    +0.000 HD
ENDBRANCH   1  14
BRANCH   3  16
ATOM     16  O   UNL     1       6.744   8.022  16.971  0.00  0.00    +0.000 OA
ATOM     17  H   UNL     1       7.087   7.894  16.070  0.00  0.00    +0.000 HD
ENDBRANCH   3  16
TORSDOF 3
ENDMDL
MODEL 6
REMARK VINA RESULT:      -6.3      2.368      3.341
REMARK  Name = 
REMARK  3 active torsions:
REMARK  status: ('A' for Active; 'I' for Inactive)
REMARK    1  A    between atoms: O_1  and  C_2
REMARK    2  A    between atoms: C_4  and  O_5
REMARK    3  A    between atoms: C_8  and  N_9
REMARK                            x       y       z     vdW  Elec       q    Type
REMARK                         _______ _______ _______ _____ _____    ______ ____
ROOT
ATOM      1  C   UNL     1       6.240   3.952  15.330  0.00  0.00    +0.000 A 
ATOM      2  N   UNL     1       7.208   4.645  15.933  0.00  0.00    +0.000 NA
ATOM      3  C   UNL     1       6.902   4.981  17.192  0.00  0.00    +0.000 A 
ATOM      4  C   UNL     1       5.733   4.657  17.849  0.00  0.00    +0.000 A 
ATOM      5 CL   UNL     1       5.437   5.282  19.436  0.00  0.00    +0.000 Cl
ATOM      6  C   UNL     1       4.820   3.884  17.124  0.00  0.00    +0.000 A 
ATOM      7  N   UNL     1       5.072   3.554  15.838  0.00  0.00    +0.000 NA
ENDROOT
BRANCH   6   8
ATOM      8  N   UNL     1       3.624   3.467  17.691  0.00  0.00    +0.000 N 
ATOM      9  C   UNL     1       2.374   4.152  17.375  0.00  0.00    +0.000 C 
ATOM     10  C   UNL     1       1.504   4.089  18.641  0.00  0.00    +0.000 C 
ATOM     11  C   UNL     1       1.358   2.660  19.188  0.00  0.00    +0.000 C 
ATOM     12  C   UNL     1       2.701   1.932  19.282  0.00  0.00    +0.000 C 
ATOM     13  C   UNL     1       3.458   2.038  17.961  0.00  0.00    +0.000 C 
ENDBRANCH   6   8
BRANCH   1  14
ATOM     14  O   UNL     1       6.516   3.626  14.039  0.00  0.00    +0.000 OA
ATOM     15  H   UNL     1       6.094   4.370  13.586  0.00  0.00    +0.000 HD
ENDBRANCH   1  14
BRANCH   3  16
ATOM     16  O   UNL     1       7.884   5.702  17.807  0.00  0.00    +0.000 OA
ATOM     17  H   UNL     1       8.266   6.194  17.061  0.00  0.00    +0.000 HD
ENDBRANCH   3  16
TORSDOF 3
ENDMDL
MODEL 7
REMARK VINA RESULT:      -6.2      3.162      4.813
REMARK  Name = 
REMARK  3 active torsions:
REMARK  status: ('A' for Active; 'I' for Inactive)
REMARK    1  A    between atoms: O_1  and  C_2
REMARK    2  A    between atoms: C_4  and  O_5
REMARK    3  A    between atoms: C_8  and  N_9
REMARK                            x       y       z     vdW  Elec       q    Type
REMARK                         _______ _______ _______ _____ _____    ______ ____
ROOT
ATOM      1  C   UNL     1       4.337   2.396  20.332  0.00  0.00    +0.000 A 
ATOM      2  N   UNL     1       3.030   2.261  20.564  0.00  0.00    +0.000 NA
ATOM      3  C   UNL     1       2.275   2.967  19.715  0.00  0.00    +0.000 A 
ATOM      4  C   UNL     1       2.744   3.752  18.682  0.00  0.00    +0.000 A 
ATOM      5 CL   UNL     1       1.637   4.706  17.755  0.00  0.00    +0.000 Cl
ATOM      6  C   UNL     1       4.133   3.769  18.512  0.00  0.00    +0.000 A 
ATOM      7  N   UNL     1       4.936   3.101  19.370  0.00  0.00    +0.000 NA
ENDROOT
BRANCH   6   8
ATOM      8  N   UNL     1       4.720   4.496  17.487  0.00  0.00    +0.000 N 
ATOM      9  C   UNL     1       5.125   5.883  17.696  0.00  0.00    +0.000 C 
ATOM     10  C   UNL     1       4.925   6.608  16.355  0.00  0.00    +0.000 C 
ATOM     11  C   UNL     1       5.611   5.887  15.184  0.00  0.00    +0.000 C 
ATOM     12  C   UNL     1       5.308   4.386  15.167  0.00  0.00    +0.000 C 
ATOM     13  C   UNL     1       5.571   3.774  16.540  0.00  0.00    +0.000 C 
ENDBRANCH   6   8
BRANCH   1  14
ATOM     14  O   UNL     1       5.126   1.711  21.202  0.00  0.00    +0.000 OA
ATOM     15  H   UNL     1       5.541   1.084  20.592  0.00  0.00    +0.000 HD
ENDBRANCH   1  14
BRANCH   3  16
ATOM     16  O   UNL     1       0.937   2.842  19.958  0.00  0.00    +0.000 OA
ATOM     17  H   UNL     1       0.933   2.477  20.859  0.00  0.00    +0.000 HD
ENDBRANCH   3  16
TORSDOF 3
ENDMDL
MODEL 8
REMARK VINA RESULT:      -6.2      2.309      2.993
REMARK  Name = 
REMARK  3 active torsions:
REMARK  status: ('A' for Active; 'I' for Inactive)
REMARK    1  A    between atoms: O_1  and  C_2
REMARK    2  A    between atoms: C_4  and  O_5
REMARK    3  A    between atoms: C_8  and  N_9
REMARK                            x       y       z     vdW  Elec       q    Type
REMARK                         _______ _______ _______ _____ _____    ______ ____
ROOT
ATOM      1  C   UNL     1       6.274   3.995  15.324  0.00  0.00    +0.000 A 
ATOM      2  N   UNL     1       7.295   4.637  15.896  0.00  0.00    +0.000 NA
ATOM      3  C   UNL     1       7.038   5.003  17.157  0.00  0.00    +0.000 A 
ATOM      4  C   UNL     1       5.868   4.755  17.845  0.00  0.00    +0.000 A 
ATOM      5 CL   UNL     1       5.646   5.413  19.430  0.00  0.00    +0.000 Cl
ATOM      6  C   UNL     1       4.895   4.029  17.150  0.00  0.00    +0.000 A 
ATOM      7  N   UNL     1       5.097   3.671  15.862  0.00  0.00    +0.000 NA
ENDROOT
BRANCH   6   8
ATOM      8  N   UNL     1       3.691   3.689  17.749  0.00  0.00    +0.000 N 
ATOM      9  C   UNL     1       3.635   2.639  18.764  0.00  0.00    +0.000 C 
ATOM     10  C   UNL     1       2.272   1.946  18.608  0.00  0.00    +0.000 C 
ATOM     11  C   UNL     1       1.099   2.940  18.616  0.00  0.00    +0.000 C 
ATOM     12  C   UNL     1       1.337   4.130  17.684  0.00  0.00    +0.000 C 
ATOM     13  C   UNL     1       2.705   4.752  17.951  0.00  0.00    +0.000 C 
ENDBRANCH   6   8
BRANCH   1  14
ATOM     14  O   UNL     1       6.500   3.639  14.031  0.00  0.00    +0.000 OA
ATOM     15  H   UNL     1       7.410   3.314  14.105  0.00  0.00    +0.000 HD
ENDBRANCH   1  14
BRANCH   3  16
ATOM     16  O   UNL     1       8.075   5.673  17.741  0.00  0.00    +0.000 OA
ATOM     17  H   UNL     1       8.301   6.324  17.056  0.00  0.00    +0.000 HD
ENDBRANCH   3  16
TORSDOF 3
ENDMDL
MODEL 9
REMARK VINA RESULT:      -6.2      1.624      1.897
REMARK  Name = 
REMARK  3 active torsions:
REMARK  status: ('A' for Active; 'I' for Inactive)
REMARK    1  A    between atoms: O_1  and  C_2
REMARK    2  A    between atoms: C_4  and  O_5
REMARK    3  A    between atoms: C_8  and  N_9
REMARK                            x       y       z     vdW  Elec       q    Type
REMARK                         _______ _______ _______ _____ _____    ______ ____
ROOT
ATOM      1  C   UNL     1       7.326   4.726  17.792  0.00  0.00    +0.000 A 
ATOM      2  N   UNL     1       7.562   5.967  17.361  0.00  0.00    +0.000 NA
ATOM      3  C   UNL     1       6.460   6.723  17.322  0.00  0.00    +0.000 A 
ATOM      4  C   UNL     1       5.194   6.320  17.691  0.00  0.00    +0.000 A 
ATOM      5 CL   UNL     1       3.849   7.384  17.456  0.00  0.00    +0.000 Cl
ATOM      6  C   UNL     1       5.087   5.011  18.174  0.00  0.00    +0.000 A 
ATOM      7  N   UNL     1       6.167   4.200  18.196  0.00  0.00    +0.000 NA
ENDROOT
BRANCH   6   8
ATOM      8  N   UNL     1       3.871   4.504  18.607  0.00  0.00    +0.000 N 
ATOM      9  C   UNL     1       3.251   5.003  19.832  0.00  0.00    +0.000 C 
ATOM     10  C   UNL     1       2.504   3.817  20.463  0.00  0.00    +0.000 C 
ATOM     11  C   UNL     1       1.554   3.122  19.475  0.00  0.00    +0.000 C 
ATOM     12  C   UNL     1       2.224   2.830  18.130  0.00  0.00    +0.000 C 
ATOM     13  C   UNL     1       2.905   4.085  17.590  0.00  0.00    +0.000 C 
ENDBRANCH   6   8
BRANCH   1  14
ATOM     14  O   UNL     1       8.427   3.928  17.811  0.00  0.00    +0.000 OA
ATOM     15  H   UNL     1       8.571   3.868  18.767  0.00  0.00    +0.000 HD
ENDBRANCH   1  14
BRANCH   3  16
ATOM     16  O   UNL     1       6.696   7.990  16.869  0.00  0.00    +0.000 OA
ATOM     17  H   UNL     1       6.290   8.529  17.569  0.00  0.00    +0.000 HD
ENDBRANCH   3  16
TORSDOF 3
ENDMDL
