MODEL 1
REMARK VINA RESULT:      -8.7      0.000      0.000
REMARK  Name = 
REMARK  6 active torsions:
REMARK  status: ('A' for Active; 'I' for Inactive)
REMARK    1  A    between atoms: C_2  and  C_3
REMARK    2  A    between atoms: C_8  and  C_9
REMARK    3  A    between atoms: C_12  and  C_13
REMARK    4  A    between atoms: C_13  and  C_14
REMARK    5  A    between atoms: C_13  and  C_15
REMARK    6  A    between atoms: C_20  and  C_21
REMARK                            x       y       z     vdW  Elec       q    Type
REMARK                         _______ _______ _______ _____ _____    ______ ____
ROOT
ATOM      1  C   UNL     1       1.498   9.214  18.777  0.00  0.00    +0.000 A 
ATOM      2  C   UNL     1       2.139   8.681  17.663  0.00  0.00    +0.000 A 
ATOM      3  C   UNL     1       2.772   7.444  17.762  0.00  0.00    +0.000 A 
ATOM      4  C   UNL     1       2.754   6.750  18.970  0.00  0.00    +0.000 A 
ATOM      5  C   UNL     1       2.110   7.371  20.040  0.00  0.00    +0.000 A 
ATOM      6  N   UNL     1       1.502   8.584  19.972  0.00  0.00    +0.000 NA
ENDROOT
BRANCH   1  12
ATOM      7  C   UNL     1       0.268  14.087  18.898  0.00  0.00    +0.000 C 
ATOM      8  O   UNL     1      -0.761  14.742  19.001  0.00  0.00    +0.000 OA
ATOM      9  N   UNL     1       0.270  12.724  18.728  0.00  0.00    +0.000 N 
ATOM     10  C   UNL     1      -0.995  12.031  18.603  0.00  0.00    +0.000 C 
ATOM     11  C   UNL     1      -0.586  10.603  18.586  0.00  0.00    +0.000 C 
ATOM     12  C   UNL     1       0.747  10.466  18.697  0.00  0.00    +0.000 C 
ATOM     13  C   UNL     1       1.408  11.806  18.806  0.00  0.00    +0.000 C 
BRANCH   7  15
ATOM     14  C   UNL     1       1.703  16.065  18.685  0.00  0.00    +0.000 C 
ATOM     15  C   UNL     1       1.598  14.752  18.923  0.00  0.00    +0.000 C 
ENDBRANCH   7  15
ENDBRANCH   1  12
BRANCH   4  16
ATOM     16  C   UNL     1       3.349   5.364  19.104  0.00  0.00    +0.000 C 
ATOM     17  C   UNL     1       2.239   4.340  19.404  0.00  0.00    +0.000 C 
BRANCH  16  18
ATOM     18  C   UNL     1       4.123   4.897  17.867  0.00  0.00    +0.000 C 
ATOM     19  O   UNL     1       3.988   3.749  17.439  0.00  0.00    +0.000 OA
ATOM     20  N   UNL     1       5.026   5.804  17.352  0.00  0.00    +0.000 N 
ATOM     21  C   UNL     1       5.807   5.463  16.270  0.00  0.00    +0.000 A 
ATOM     22  C   UNL     1       5.445   4.657  15.166  0.00  0.00    +0.000 A 
ATOM     23  C   UNL     1       6.608   4.474  14.465  0.00  0.00    +0.000 A 
ATOM     24  N   UNL     1       7.560   5.180  15.140  0.00  0.00    +0.000 N 
ATOM     25  N   UNL     1       7.070   5.884  16.181  0.00  0.00    +0.000 NA
ATOM     26  H   UNL     1       5.409   6.535  17.933  0.00  0.00    +0.000 HD
ATOM     27  H   UNL     1       8.555   5.226  14.946  0.00  0.00    +0.000 HD
BRANCH  23  28
ATOM     28  C   UNL     1       6.752   3.612  13.232  0.00  0.00    +0.000 C 
ATOM     29  C   UNL     1       5.647   3.610  12.202  0.00  0.00    +0.000 C 
ATOM     30  C   UNL     1       6.936   4.289  11.894  0.00  0.00    +0.000 C 
ENDBRANCH  23  28
ENDBRANCH  16  18
ENDBRANCH   4  16
TORSDOF 5
ENDMDL
MODEL 2
REMARK VINA RESULT:      -8.7      1.482      1.655
REMARK  Name = 
REMARK  6 active torsions:
REMARK  status: ('A' for Active; 'I' for Inactive)
REMARK    1  A    between atoms: C_2  and  C_3
REMARK    2  A    between atoms: C_8  and  C_9
REMARK    3  A    between atoms: C_12  and  C_13
REMARK    4  A    between atoms: C_13  and  C_14
REMARK    5  A    between atoms: C_13  and  C_15
REMARK    6  A    between atoms: C_20  and  C_21
REMARK                            x       y       z     vdW  Elec       q    Type
REMARK                         _______ _______ _______ _____ _____    ______ ____
ROOT
ATOM      1  C   UNL     1       1.440   8.726  19.180  0.00  0.00    +0.000 A 
ATOM      2  C   UNL     1       2.130   8.306  18.047  0.00  0.00    +0.000 A 
ATOM      3  C   UNL     1       2.917   7.159  18.108  0.00  0.00    +0.000 A 
ATOM      4  C   UNL     1       3.003   6.439  19.299  0.00  0.00    +0.000 A 
ATOM      5  C   UNL     1       2.299   6.947  20.390  0.00  0.00    +0.000 A 
ATOM      6  N   UNL     1       1.540   8.074  20.359  0.00  0.00    +0.000 NA
ENDROOT
BRANCH   1  12
ATOM      7  C   UNL     1      -1.246  12.767  20.493  0.00  0.00    +0.000 C 
ATOM      8  O   UNL     1      -2.237  13.351  20.072  0.00  0.00    +0.000 OA
ATOM      9  N   UNL     1      -0.632  11.749  19.803  0.00  0.00    +0.000 N 
ATOM     10  C   UNL     1      -1.135  11.387  18.495  0.00  0.00    +0.000 C 
ATOM     11  C   UNL     1      -0.328  10.186  18.155  0.00  0.00    +0.000 C 
ATOM     12  C   UNL     1       0.534   9.873  19.139  0.00  0.00    +0.000 C 
ATOM     13  C   UNL     1       0.408  10.836  20.279  0.00  0.00    +0.000 C 
BRANCH   7  15
ATOM     14  C   UNL     1      -1.252  12.902  22.942  0.00  0.00    +0.000 C 
ATOM     15  C   UNL     1      -0.625  13.157  21.786  0.00  0.00    +0.000 C 
ENDBRANCH   7  15
ENDBRANCH   1  12
BRANCH   4  16
ATOM     16  C   UNL     1       3.772   5.138  19.392  0.00  0.00    +0.000 C 
ATOM     17  C   UNL     1       2.850   4.015  19.898  0.00  0.00    +0.000 C 
BRANCH  16  18
ATOM     18  C   UNL     1       4.404   4.693  18.069  0.00  0.00    +0.000 C 
ATOM     19  O   UNL     1       4.255   3.539  17.660  0.00  0.00    +0.000 OA
ATOM     20  N   UNL     1       5.205   5.627  17.447  0.00  0.00    +0.000 N 
ATOM     21  C   UNL     1       5.859   5.308  16.277  0.00  0.00    +0.000 A 
ATOM     22  C   UNL     1       5.391   4.486  15.226  0.00  0.00    +0.000 A 
ATOM     23  C   UNL     1       6.464   4.339  14.386  0.00  0.00    +0.000 A 
ATOM     24  N   UNL     1       7.468   5.079  14.940  0.00  0.00    +0.000 N 
ATOM     25  N   UNL     1       7.086   5.770  16.034  0.00  0.00    +0.000 NA
ATOM     26  H   UNL     1       5.632   6.373  17.977  0.00  0.00    +0.000 HD
ATOM     27  H   UNL     1       8.429   5.157  14.625  0.00  0.00    +0.000 HD
BRANCH  23  28
ATOM     28  C   UNL     1       6.484   3.478  13.145  0.00  0.00    +0.000 C 
ATOM     29  C   UNL     1       5.375   3.624  12.130  0.00  0.00    +0.000 C 
ATOM     30  C   UNL     1       6.734   4.140  11.809  0.00  0.00    +0.000 C 
ENDBRANCH  23  28
ENDBRANCH  16  18
ENDBRANCH   4  16
TORSDOF 5
ENDMDL
MODEL 3
REMARK VINA RESULT:      -8.6      1.402      1.667
REMARK  Name = 
REMARK  6 active torsions:
REMARK  status: ('A' for Active; 'I' for Inactive)
REMARK    1  A    between atoms: C_2  and  C_3
REMARK    2  A    between atoms: C_8  and  C_9
REMARK    3  A    between atoms: C_12  and  C_13
REMARK    4  A    between atoms: C_13  and  C_14
REMARK    5  A    between atoms: C_13  and  C_15
REMARK    6  A    between atoms: C_20  and  C_21
REMARK                            x       y       z     vdW  Elec       q    Type
REMARK                         _______ _______ _______ _____ _____    ______ ____
ROOT
ATOM      1  C   UNL     1       0.865   9.744  19.838  0.00  0.00    +0.000 A 
ATOM      2  C   UNL     1       1.526   9.135  18.776  0.00  0.00    +0.000 A 
ATOM      3  C   UNL     1       2.058   7.859  18.940  0.00  0.00    +0.000 A 
ATOM      4  C   UNL     1       1.920   7.201  20.160  0.00  0.00    +0.000 A 
ATOM      5  C   UNL     1       1.266   7.897  21.176  0.00  0.00    +0.000 A 
ATOM      6  N   UNL     1       0.755   9.148  21.046  0.00  0.00    +0.000 NA
ENDROOT
BRANCH   1  12
ATOM      7  C   UNL     1       0.077  14.672  19.234  0.00  0.00    +0.000 C 
ATOM      8  O   UNL     1      -0.835  15.459  19.450  0.00  0.00    +0.000 OA
ATOM      9  N   UNL     1      -0.068  13.311  19.359  0.00  0.00    +0.000 N 
ATOM     10  C   UNL     1      -1.368  12.774  19.701  0.00  0.00    +0.000 C 
ATOM     11  C   UNL     1      -1.086  11.326  19.883  0.00  0.00    +0.000 C 
ATOM     12  C   UNL     1       0.214  11.045  19.686  0.00  0.00    +0.000 C 
ATOM     13  C   UNL     1       0.978  12.287  19.344  0.00  0.00    +0.000 C 
BRANCH   7  15
ATOM     14  C   UNL     1       2.044  16.118  19.470  0.00  0.00    +0.000 C 
ATOM     15  C   UNL     1       1.410  15.156  18.787  0.00  0.00    +0.000 C 
ENDBRANCH   7  15
ENDBRANCH   1  12
BRANCH   4  16
ATOM     16  C   UNL     1       2.402   5.779  20.360  0.00  0.00    +0.000 C 
ATOM     17  C   UNL     1       1.199   4.830  20.503  0.00  0.00    +0.000 C 
BRANCH  16  18
ATOM     18  C   UNL     1       3.301   5.262  19.233  0.00  0.00    +0.000 C 
ATOM     19  O   UNL     1       2.842   4.538  18.346  0.00  0.00    +0.000 OA
ATOM     20  N   UNL     1       4.638   5.581  19.342  0.00  0.00    +0.000 N 
ATOM     21  C   UNL     1       5.538   5.123  18.405  0.00  0.00    +0.000 A 
ATOM     22  C   UNL     1       5.326   4.957  17.017  0.00  0.00    +0.000 A 
ATOM     23  C   UNL     1       6.448   4.315  16.563  0.00  0.00    +0.000 A 
ATOM     24  N   UNL     1       7.255   4.167  17.653  0.00  0.00    +0.000 N 
ATOM     25  N   UNL     1       6.769   4.754  18.765  0.00  0.00    +0.000 NA
ATOM     26  H   UNL     1       5.043   5.801  20.242  0.00  0.00    +0.000 HD
ATOM     27  H   UNL     1       8.144   3.681  17.707  0.00  0.00    +0.000 HD
BRANCH  23  28
ATOM     28  C   UNL     1       6.665   3.847  15.142  0.00  0.00    +0.000 C 
ATOM     29  C   UNL     1       5.687   4.268  14.071  0.00  0.00    +0.000 C 
ATOM     30  C   UNL     1       7.050   4.867  14.095  0.00  0.00    +0.000 C 
ENDBRANCH  23  28
ENDBRANCH  16  18
ENDBRANCH   4  16
TORSDOF 5
ENDMDL
MODEL 4
REMARK VINA RESULT:      -8.5      2.070      2.655
REMARK  Name = 
REMARK  6 active torsions:
REMARK  status: ('A' for Active; 'I' for Inactive)
REMARK    1  A    between atoms: C_2  and  C_3
REMARK    2  A    between atoms: C_8  and  C_9
REMARK    3  A    between atoms: C_12  and  C_13
REMARK    4  A    between atoms: C_13  and  C_14
REMARK    5  A    between atoms: C_13  and  C_15
REMARK    6  A    between atoms: C_20  and  C_21
REMARK                            x       y       z     vdW  Elec       q    Type
REMARK                         _______ _______ _______ _____ _____    ______ ____
ROOT
ATOM      1  C   UNL     1       0.763   9.386  20.147  0.00  0.00    +0.000 A 
ATOM      2  C   UNL     1       1.556   8.900  19.112  0.00  0.00    +0.000 A 
ATOM      3  C   UNL     1       2.120   7.631  19.219  0.00  0.00    +0.000 A 
ATOM      4  C   UNL     1       1.882   6.858  20.354  0.00  0.00    +0.000 A 
ATOM      5  C   UNL     1       1.096   7.436  21.351  0.00  0.00    +0.000 A 
ATOM      6  N   UNL     1       0.552   8.678  21.278  0.00  0.00    +0.000 NA
ENDROOT
BRANCH   1  12
ATOM      7  C   UNL     1      -2.062  13.417  21.171  0.00  0.00    +0.000 C 
ATOM      8  O   UNL     1      -2.615  14.301  20.530  0.00  0.00    +0.000 OA
ATOM      9  N   UNL     1      -1.197  12.514  20.602  0.00  0.00    +0.000 N 
ATOM     10  C   UNL     1      -0.873  12.642  19.197  0.00  0.00    +0.000 C 
ATOM     11  C   UNL     1      -0.055  11.430  18.937  0.00  0.00    +0.000 C 
ATOM     12  C   UNL     1       0.080  10.675  20.042  0.00  0.00    +0.000 C 
ATOM     13  C   UNL     1      -0.644  11.295  21.197  0.00  0.00    +0.000 C 
BRANCH   7  15
ATOM     14  C   UNL     1      -3.472  12.914  23.114  0.00  0.00    +0.000 C 
ATOM     15  C   UNL     1      -2.278  13.291  22.637  0.00  0.00    +0.000 C 
ENDBRANCH   7  15
ENDBRANCH   1  12
BRANCH   4  16
ATOM     16  C   UNL     1       2.397   5.440  20.478  0.00  0.00    +0.000 C 
ATOM     17  C   UNL     1       1.218   4.455  20.564  0.00  0.00    +0.000 C 
BRANCH  16  18
ATOM     18  C   UNL     1       3.311   5.008  19.327  0.00  0.00    +0.000 C 
ATOM     19  O   UNL     1       2.888   4.273  18.432  0.00  0.00    +0.000 OA
ATOM     20  N   UNL     1       4.626   5.413  19.425  0.00  0.00    +0.000 N 
ATOM     21  C   UNL     1       5.540   5.035  18.466  0.00  0.00    +0.000 A 
ATOM     22  C   UNL     1       5.319   4.884  17.078  0.00  0.00    +0.000 A 
ATOM     23  C   UNL     1       6.474   4.327  16.594  0.00  0.00    +0.000 A 
ATOM     24  N   UNL     1       7.305   4.211  17.669  0.00  0.00    +0.000 N 
ATOM     25  N   UNL     1       6.798   4.741  18.801  0.00  0.00    +0.000 NA
ATOM     26  H   UNL     1       5.029   5.640  20.323  0.00  0.00    +0.000 HD
ATOM     27  H   UNL     1       8.225   3.784  17.701  0.00  0.00    +0.000 HD
BRANCH  23  28
ATOM     28  C   UNL     1       6.700   3.905  15.161  0.00  0.00    +0.000 C 
ATOM     29  C   UNL     1       5.697   4.311  14.107  0.00  0.00    +0.000 C 
ATOM     30  C   UNL     1       7.034   4.965  14.138  0.00  0.00    +0.000 C 
ENDBRANCH  23  28
ENDBRANCH  16  18
ENDBRANCH   4  16
TORSDOF 5
ENDMDL
MODEL 5
REMARK VINA RESULT:      -8.5      1.886      2.476
REMARK  Name = 
REMARK  6 active torsions:
REMARK  status: ('A' for Active; 'I' for Inactive)
REMARK    1  A    between atoms: C_2  and  C_3
REMARK    2  A    between atoms: C_8  and  C_9
REMARK    3  A    between atoms: C_12  and  C_13
REMARK    4  A    between atoms: C_13  and  C_14
REMARK    5  A    between atoms: C_13  and  C_15
REMARK    6  A    between atoms: C_20  and  C_21
REMARK                            x       y       z     vdW  Elec       q    Type
REMARK                         _______ _______ _______ _____ _____    ______ ____
ROOT
ATOM      1  C   UNL     1       1.006   9.486  20.070  0.00  0.00    +0.000 A 
ATOM      2  C   UNL     1       0.693   8.796  21.237  0.00  0.00    +0.000 A 
ATOM      3  C   UNL     1       1.092   7.469  21.376  0.00  0.00    +0.000 A 
ATOM      4  C   UNL     1       1.804   6.846  20.353  0.00  0.00    +0.000 A 
ATOM      5  C   UNL     1       2.051   7.606  19.210  0.00  0.00    +0.000 A 
ATOM      6  N   UNL     1       1.656   8.895  19.043  0.00  0.00    +0.000 NA
ENDROOT
BRANCH   1  12
ATOM      7  C   UNL     1      -0.363  14.228  21.026  0.00  0.00    +0.000 C 
ATOM      8  O   UNL     1      -0.782  15.179  20.380  0.00  0.00    +0.000 OA
ATOM      9  N   UNL     1       0.091  13.071  20.440  0.00  0.00    +0.000 N 
ATOM     10  C   UNL     1       0.137  12.989  18.995  0.00  0.00    +0.000 C 
ATOM     11  C   UNL     1       0.530  11.575  18.759  0.00  0.00    +0.000 C 
ATOM     12  C   UNL     1       0.685  10.904  19.914  0.00  0.00    +0.000 C 
ATOM     13  C   UNL     1       0.410  11.797  21.085  0.00  0.00    +0.000 C 
BRANCH   7  15
ATOM     14  C   UNL     1      -1.380  14.013  23.248  0.00  0.00    +0.000 C 
ATOM     15  C   UNL     1      -0.296  14.286  22.510  0.00  0.00    +0.000 C 
ENDBRANCH   7  15
ENDBRANCH   1  12
BRANCH   4  16
ATOM     16  C   UNL     1       2.337   5.436  20.493  0.00  0.00    +0.000 C 
ATOM     17  C   UNL     1       1.170   4.436  20.574  0.00  0.00    +0.000 C 
BRANCH  16  18
ATOM     18  C   UNL     1       3.270   5.007  19.356  0.00  0.00    +0.000 C 
ATOM     19  O   UNL     1       2.866   4.262  18.461  0.00  0.00    +0.000 OA
ATOM     20  N   UNL     1       4.579   5.429  19.467  0.00  0.00    +0.000 N 
ATOM     21  C   UNL     1       5.508   5.056  18.522  0.00  0.00    +0.000 A 
ATOM     22  C   UNL     1       5.305   4.893  17.132  0.00  0.00    +0.000 A 
ATOM     23  C   UNL     1       6.473   4.348  16.666  0.00  0.00    +0.000 A 
ATOM     24  N   UNL     1       7.293   4.248  17.752  0.00  0.00    +0.000 N 
ATOM     25  N   UNL     1       6.765   4.779  18.874  0.00  0.00    +0.000 NA
ATOM     26  H   UNL     1       4.967   5.666  20.369  0.00  0.00    +0.000 HD
ATOM     27  H   UNL     1       8.217   3.833  17.797  0.00  0.00    +0.000 HD
BRANCH  23  28
ATOM     28  C   UNL     1       6.721   3.919  15.238  0.00  0.00    +0.000 C 
ATOM     29  C   UNL     1       5.700   4.260  14.179  0.00  0.00    +0.000 C 
ATOM     30  C   UNL     1       7.001   4.982  14.202  0.00  0.00    +0.000 C 
ENDBRANCH  23  28
ENDBRANCH  16  18
ENDBRANCH   4  16
TORSDOF 5
ENDMDL
MODEL 6
REMARK VINA RESULT:      -8.5      1.606      2.360
REMARK  Name = 
REMARK  6 active torsions:
REMARK  status: ('A' for Active; 'I' for Inactive)
REMARK    1  A    between atoms: C_2  and  C_3
REMARK    2  A    between atoms: C_8  and  C_9
REMARK    3  A    between atoms: C_12  and  C_13
REMARK    4  A    between atoms: C_13  and  C_14
REMARK    5  A    between atoms: C_13  and  C_15
REMARK    6  A    between atoms: C_20  and  C_21
REMARK                            x       y       z     vdW  Elec       q    Type
REMARK                         _______ _______ _______ _____ _____    ______ ____
ROOT
ATOM      1  C   UNL     1       1.681   7.281  20.343  0.00  0.00    +0.000 A 
ATOM      2  C   UNL     1       1.475   6.082  21.018  0.00  0.00    +0.000 A 
ATOM      3  C   UNL     1       2.244   4.968  20.688  0.00  0.00    +0.000 A 
ATOM      4  C   UNL     1       3.214   5.064  19.692  0.00  0.00    +0.000 A 
ATOM      5  C   UNL     1       3.333   6.297  19.052  0.00  0.00    +0.000 A 
ATOM      6  N   UNL     1       2.583   7.391  19.343  0.00  0.00    +0.000 NA
ENDROOT
BRANCH   1  12
ATOM      7  C   UNL     1      -0.057  11.998  20.405  0.00  0.00    +0.000 C 
ATOM      8  O   UNL     1      -0.568  12.746  21.229  0.00  0.00    +0.000 OA
ATOM      9  N   UNL     1       0.171  10.665  20.650  0.00  0.00    +0.000 N 
ATOM     10  C   UNL     1      -0.263  10.100  21.910  0.00  0.00    +0.000 C 
ATOM     11  C   UNL     1       0.282   8.719  21.855  0.00  0.00    +0.000 C 
ATOM     12  C   UNL     1       0.960   8.498  20.714  0.00  0.00    +0.000 C 
ATOM     13  C   UNL     1       0.956   9.722  19.852  0.00  0.00    +0.000 C 
BRANCH   7  15
ATOM     14  C   UNL     1      -0.395  13.458  18.463  0.00  0.00    +0.000 C 
ATOM     15  C   UNL     1       0.324  12.496  19.057  0.00  0.00    +0.000 C 
ENDBRANCH   7  15
ENDBRANCH   1  12
BRANCH   4  16
ATOM     16  C   UNL     1       4.134   3.909  19.359  0.00  0.00    +0.000 C 
ATOM     17  C   UNL     1       3.453   2.574  19.708  0.00  0.00    +0.000 C 
BRANCH  16  18
ATOM     18  C   UNL     1       4.573   3.866  17.892  0.00  0.00    +0.000 C 
ATOM     19  O   UNL     1       4.070   3.056  17.110  0.00  0.00    +0.000 OA
ATOM     20  N   UNL     1       5.610   4.710  17.554  0.00  0.00    +0.000 N 
ATOM     21  C   UNL     1       6.111   4.712  16.271  0.00  0.00    +0.000 A 
ATOM     22  C   UNL     1       5.393   4.533  15.067  0.00  0.00    +0.000 A 
ATOM     23  C   UNL     1       6.353   4.440  14.093  0.00  0.00    +0.000 A 
ATOM     24  N   UNL     1       7.546   4.595  14.736  0.00  0.00    +0.000 N 
ATOM     25  N   UNL     1       7.416   4.876  16.049  0.00  0.00    +0.000 NA
ATOM     26  H   UNL     1       6.256   5.039  18.258  0.00  0.00    +0.000 HD
ATOM     27  H   UNL     1       8.478   4.524  14.343  0.00  0.00    +0.000 HD
BRANCH  23  28
ATOM     28  C   UNL     1       6.083   4.169  12.631  0.00  0.00    +0.000 C 
ATOM     29  C   UNL     1       7.114   3.423  11.818  0.00  0.00    +0.000 C 
ATOM     30  C   UNL     1       5.844   2.743  12.192  0.00  0.00    +0.000 C 
ENDBRANCH  23  28
ENDBRANCH  16  18
ENDBRANCH   4  16
TORSDOF 5
ENDMDL
MODEL 7
REMARK VINA RESULT:      -8.3      1.685      2.170
REMARK  Name = 
REMARK  6 active torsions:
REMARK  status: ('A' for Active; 'I' for Inactive)
REMARK    1  A    between atoms: C_2  and  C_3
REMARK    2  A    between atoms: C_8  and  C_9
REMARK    3  A    between atoms: C_12  and  C_13
REMARK    4  A    between atoms: C_13  and  C_14
REMARK    5  A    between atoms: C_13  and  C_15
REMARK    6  A    between atoms: C_20  and  C_21
REMARK                            x       y       z     vdW  Elec       q    Type
REMARK                         _______ _______ _______ _____ _____    ______ ____
ROOT
ATOM      1  C   UNL     1       1.550   8.336  19.786  0.00  0.00    +0.000 A 
ATOM      2  C   UNL     1       2.255   8.166  18.598  0.00  0.00    +0.000 A 
ATOM      3  C   UNL     1       2.926   6.968  18.364  0.00  0.00    +0.000 A 
ATOM      4  C   UNL     1       2.882   5.950  19.315  0.00  0.00    +0.000 A 
ATOM      5  C   UNL     1       2.174   6.218  20.486  0.00  0.00    +0.000 A 
ATOM      6  N   UNL     1       1.528   7.384  20.745  0.00  0.00    +0.000 NA
ENDROOT
BRANCH   1  12
ATOM      7  C   UNL     1      -1.564  12.238  19.200  0.00  0.00    +0.000 C 
ATOM      8  O   UNL     1      -1.753  13.315  19.751  0.00  0.00    +0.000 OA
ATOM      9  N   UNL     1      -0.718  11.281  19.706  0.00  0.00    +0.000 N 
ATOM     10  C   UNL     1      -0.065  11.523  20.975  0.00  0.00    +0.000 C 
ATOM     11  C   UNL     1       0.852  10.360  21.099  0.00  0.00    +0.000 C 
ATOM     12  C   UNL     1       0.760   9.541  20.036  0.00  0.00    +0.000 C 
ATOM     13  C   UNL     1      -0.241  10.061  19.052  0.00  0.00    +0.000 C 
BRANCH   7  15
ATOM     14  C   UNL     1      -3.458  11.256  17.989  0.00  0.00    +0.000 C 
ATOM     15  C   UNL     1      -2.279  11.891  17.944  0.00  0.00    +0.000 C 
ENDBRANCH   7  15
ENDBRANCH   1  12
BRANCH   4  16
ATOM     16  C   UNL     1       3.519   4.598  19.069  0.00  0.00    +0.000 C 
ATOM     17  C   UNL     1       2.475   3.483  19.249  0.00  0.00    +0.000 C 
BRANCH  16  18
ATOM     18  C   UNL     1       4.155   4.454  17.683  0.00  0.00    +0.000 C 
ATOM     19  O   UNL     1       3.606   3.781  16.807  0.00  0.00    +0.000 OA
ATOM     20  N   UNL     1       5.397   5.035  17.533  0.00  0.00    +0.000 N 
ATOM     21  C   UNL     1       6.076   4.919  16.340  0.00  0.00    +0.000 A 
ATOM     22  C   UNL     1       5.529   4.911  15.036  0.00  0.00    +0.000 A 
ATOM     23  C   UNL     1       6.580   4.597  14.214  0.00  0.00    +0.000 A 
ATOM     24  N   UNL     1       7.664   4.472  15.033  0.00  0.00    +0.000 N 
ATOM     25  N   UNL     1       7.402   4.777  16.321  0.00  0.00    +0.000 NA
ATOM     26  H   UNL     1       5.985   5.205  18.336  0.00  0.00    +0.000 HD
ATOM     27  H   UNL     1       8.604   4.187  14.781  0.00  0.00    +0.000 HD
BRANCH  23  28
ATOM     28  C   UNL     1       6.482   4.394  12.720  0.00  0.00    +0.000 C 
ATOM     29  C   UNL     1       6.992   3.107  12.116  0.00  0.00    +0.000 C 
ATOM     30  C   UNL     1       5.525   3.350  12.193  0.00  0.00    +0.000 C 
ENDBRANCH  23  28
ENDBRANCH  16  18
ENDBRANCH   4  16
TORSDOF 5
ENDMDL
MODEL 8
REMARK VINA RESULT:      -8.3      3.366     10.306
REMARK  Name = 
REMARK  6 active torsions:
REMARK  status: ('A' for Active; 'I' for Inactive)
REMARK    1  A    between atoms: C_2  and  C_3
REMARK    2  A    between atoms: C_8  and  C_9
REMARK    3  A    between atoms: C_12  and  C_13
REMARK    4  A    between atoms: C_13  and  C_14
REMARK    5  A    between atoms: C_13  and  C_15
REMARK    6  A    between atoms: C_20  and  C_21
REMARK                            x       y       z     vdW  Elec       q    Type
REMARK                         _______ _______ _______ _____ _____    ______ ____
ROOT
ATOM      1  C   UNL     1       2.151   7.698  19.232  0.00  0.00    +0.000 A 
ATOM      2  C   UNL     1       1.587   8.134  20.427  0.00  0.00    +0.000 A 
ATOM      3  C   UNL     1       1.020   9.404  20.495  0.00  0.00    +0.000 A 
ATOM      4  C   UNL     1       1.016  10.224  19.368  0.00  0.00    +0.000 A 
ATOM      5  C   UNL     1       1.626   9.715  18.222  0.00  0.00    +0.000 A 
ATOM      6  N   UNL     1       2.202   8.488  18.137  0.00  0.00    +0.000 NA
ENDROOT
BRANCH   1  12
ATOM      7  C   UNL     1       3.506   2.952  20.185  0.00  0.00    +0.000 C 
ATOM      8  O   UNL     1       4.286   2.137  19.709  0.00  0.00    +0.000 OA
ATOM      9  N   UNL     1       3.230   4.157  19.587  0.00  0.00    +0.000 N 
ATOM     10  C   UNL     1       3.837   4.460  18.308  0.00  0.00    +0.000 C 
ATOM     11  C   UNL     1       3.425   5.868  18.074  0.00  0.00    +0.000 C 
ATOM     12  C   UNL     1       2.679   6.342  19.088  0.00  0.00    +0.000 C 
ATOM     13  C   UNL     1       2.498   5.296  20.145  0.00  0.00    +0.000 C 
BRANCH   7  15
ATOM     14  C   UNL     1       1.444   2.537  21.448  0.00  0.00    +0.000 C 
ATOM     15  C   UNL     1       2.778   2.659  21.449  0.00  0.00    +0.000 C 
ENDBRANCH   7  15
ENDBRANCH   1  12
BRANCH   4  16
ATOM     16  C   UNL     1       0.334  11.576  19.365  0.00  0.00    +0.000 C 
ATOM     17  C   UNL     1       1.004  12.503  18.337  0.00  0.00    +0.000 C 
BRANCH  16  18
ATOM     18  C   UNL     1      -1.167  11.513  19.063  0.00  0.00    +0.000 C 
ATOM     19  O   UNL     1      -1.977  11.252  19.955  0.00  0.00    +0.000 OA
ATOM     20  N   UNL     1      -1.515  11.669  17.737  0.00  0.00    +0.000 N 
ATOM     21  C   UNL     1      -2.835  11.581  17.354  0.00  0.00    +0.000 A 
ATOM     22  C   UNL     1      -3.972  12.018  18.072  0.00  0.00    +0.000 A 
ATOM     23  C   UNL     1      -5.043  11.549  17.359  0.00  0.00    +0.000 A 
ATOM     24  N   UNL     1      -4.514  10.910  16.276  0.00  0.00    +0.000 N 
ATOM     25  N   UNL     1      -3.171  11.016  16.193  0.00  0.00    +0.000 NA
ATOM     26  H   UNL     1      -0.850  11.470  17.004  0.00  0.00    +0.000 HD
ATOM     27  H   UNL     1      -5.007  10.388  15.559  0.00  0.00    +0.000 HD
BRANCH  23  28
ATOM     28  C   UNL     1      -6.491  11.697  17.768  0.00  0.00    +0.000 C 
ATOM     29  C   UNL     1      -6.874  12.790  18.737  0.00  0.00    +0.000 C 
ATOM     30  C   UNL     1      -7.253  12.916  17.303  0.00  0.00    +0.000 C 
ENDBRANCH  23  28
ENDBRANCH  16  18
ENDBRANCH   4  16
TORSDOF 5
ENDMDL
MODEL 9
REMARK VINA RESULT:      -8.2      1.576      2.207
REMARK  Name = 
REMARK  6 active torsions:
REMARK  status: ('A' for Active; 'I' for Inactive)
REMARK    1  A    between atoms: C_2  and  C_3
REMARK    2  A    between atoms: C_8  and  C_9
REMARK    3  A    between atoms: C_12  and  C_13
REMARK    4  A    between atoms: C_13  and  C_14
REMARK    5  A    between atoms: C_13  and  C_15
REMARK    6  A    between atoms: C_20  and  C_21
REMARK                            x       y       z     vdW  Elec       q    Type
REMARK                         _______ _______ _______ _____ _____    ______ ____
ROOT
ATOM      1  C   UNL     1       1.613   8.237  19.577  0.00  0.00    +0.000 A 
ATOM      2  C   UNL     1       1.521   7.413  20.694  0.00  0.00    +0.000 A 
ATOM      3  C   UNL     1       2.192   6.193  20.704  0.00  0.00    +0.000 A 
ATOM      4  C   UNL     1       2.953   5.810  19.600  0.00  0.00    +0.000 A 
ATOM      5  C   UNL     1       2.967   6.687  18.516  0.00  0.00    +0.000 A 
ATOM      6  N   UNL     1       2.306   7.873  18.476  0.00  0.00    +0.000 NA
ENDROOT
BRANCH   1  12
ATOM      7  C   UNL     1      -1.139  12.268  20.783  0.00  0.00    +0.000 C 
ATOM      8  O   UNL     1      -1.585  13.247  20.198  0.00  0.00    +0.000 OA
ATOM      9  N   UNL     1      -0.256  11.391  20.200  0.00  0.00    +0.000 N 
ATOM     10  C   UNL     1       0.219  11.661  18.860  0.00  0.00    +0.000 C 
ATOM     11  C   UNL     1       1.011  10.445  18.541  0.00  0.00    +0.000 C 
ATOM     12  C   UNL     1       0.997   9.564  19.557  0.00  0.00    +0.000 C 
ATOM     13  C   UNL     1       0.181  10.086  20.699  0.00  0.00    +0.000 C 
BRANCH   7  15
ATOM     14  C   UNL     1      -1.376  12.935  23.131  0.00  0.00    +0.000 C 
ATOM     15  C   UNL     1      -1.514  11.988  22.194  0.00  0.00    +0.000 C 
ENDBRANCH   7  15
ENDBRANCH   1  12
BRANCH   4  16
ATOM     16  C   UNL     1       3.773   4.537  19.597  0.00  0.00    +0.000 C 
ATOM     17  C   UNL     1       2.907   3.351  20.056  0.00  0.00    +0.000 C 
BRANCH  16  18
ATOM     18  C   UNL     1       4.386   4.196  18.235  0.00  0.00    +0.000 C 
ATOM     19  O   UNL     1       4.171   3.103  17.706  0.00  0.00    +0.000 OA
ATOM     20  N   UNL     1       5.249   5.139  17.716  0.00  0.00    +0.000 N 
ATOM     21  C   UNL     1       5.890   4.906  16.520  0.00  0.00    +0.000 A 
ATOM     22  C   UNL     1       5.381   4.230  15.387  0.00  0.00    +0.000 A 
ATOM     23  C   UNL     1       6.450   4.107  14.539  0.00  0.00    +0.000 A 
ATOM     24  N   UNL     1       7.493   4.721  15.169  0.00  0.00    +0.000 N 
ATOM     25  N   UNL     1       7.146   5.315  16.329  0.00  0.00    +0.000 NA
ATOM     26  H   UNL     1       5.716   5.797  18.323  0.00  0.00    +0.000 HD
ATOM     27  H   UNL     1       8.460   4.772  14.865  0.00  0.00    +0.000 HD
BRANCH  23  28
ATOM     28  C   UNL     1       6.427   3.383  13.213  0.00  0.00    +0.000 C 
ATOM     29  C   UNL     1       5.340   3.706  12.216  0.00  0.00    +0.000 C 
ATOM     30  C   UNL     1       6.732   4.164  11.956  0.00  0.00    +0.000 C 
ENDBRANCH  23  28
ENDBRANCH  16  18
ENDBRANCH   4  16
TORSDOF 5
ENDMDL
