MODEL 1
REMARK VINA RESULT:      -5.5      0.000      0.000
REMARK  Name = 
REMARK  1 active torsions:
REMARK  status: ('A' for Active; 'I' for Inactive)
REMARK    1  A    between atoms: N_1  and  C_2
REMARK                            x       y       z     vdW  Elec       q    Type
REMARK                         _______ _______ _______ _____ _____    ______ ____
ROOT
ATOM      1  C   UNL     1       6.680   4.527  16.459  0.00  0.00    +0.000 C 
ATOM      2  N   UNL     1       5.638   3.522  16.611  0.00  0.00    +0.000 N 
ATOM      3  C   UNL     1       4.430   4.127  17.014  0.00  0.00    +0.000 A 
ATOM      4  C   UNL     1       3.235   3.429  17.148  0.00  0.00    +0.000 A 
ATOM      5  C   UNL     1       2.113   4.088  17.659  0.00  0.00    +0.000 A 
ATOM      6  C   UNL     1       2.187   5.431  18.043  0.00  0.00    +0.000 A 
ATOM      7  C   UNL     1       3.389   6.131  17.914  0.00  0.00    +0.000 A 
ATOM      8  C   UNL     1       4.492   5.465  17.406  0.00  0.00    +0.000 A 
ATOM      9  S   UNL     1       6.104   6.115  17.150  0.00  0.00    +0.000 S 
ATOM     10  H   UNL     1       5.511   2.936  15.792  0.00  0.00    +0.000 HD
ENDROOT
BRANCH   1  11
ATOM     11  N   UNL     1       7.935   4.198  17.088  0.00  0.00    +0.000 NA
ATOM     12  H   UNL     1       8.379   5.076  17.338  0.00  0.00    +0.000 HD
ATOM     13  H   UNL     1       8.508   3.816  16.337  0.00  0.00    +0.000 HD
ENDBRANCH   1  11
TORSDOF 1
ENDMDL
MODEL 2
REMARK VINA RESULT:      -5.4      1.926      2.118
REMARK  Name = 
REMARK  1 active torsions:
REMARK  status: ('A' for Active; 'I' for Inactive)
REMARK    1  A    between atoms: N_1  and  C_2
REMARK                            x       y       z     vdW  Elec       q    Type
REMARK                         _______ _______ _______ _____ _____    ______ ____
ROOT
ATOM      1  C   UNL     1       6.008   4.693  18.627  0.00  0.00    +0.000 C 
ATOM      2  N   UNL     1       5.413   3.422  19.015  0.00  0.00    +0.000 N 
ATOM      3  C   UNL     1       4.056   3.380  18.638  0.00  0.00    +0.000 A 
ATOM      4  C   UNL     1       3.255   2.256  18.795  0.00  0.00    +0.000 A 
ATOM      5  C   UNL     1       1.892   2.340  18.496  0.00  0.00    +0.000 A 
ATOM      6  C   UNL     1       1.332   3.543  18.052  0.00  0.00    +0.000 A 
ATOM      7  C   UNL     1       2.135   4.675  17.899  0.00  0.00    +0.000 A 
ATOM      8  C   UNL     1       3.484   4.575  18.200  0.00  0.00    +0.000 A 
ATOM      9  S   UNL     1       4.695   5.844  18.095  0.00  0.00    +0.000 S 
ATOM     10  H   UNL     1       5.923   2.611  18.679  0.00  0.00    +0.000 HD
ENDROOT
BRANCH   1  11
ATOM     11  N   UNL     1       6.778   5.342  19.658  0.00  0.00    +0.000 NA
ATOM     12  H   UNL     1       7.650   5.639  19.231  0.00  0.00    +0.000 HD
ATOM     13  H   UNL     1       7.037   4.593  20.297  0.00  0.00    +0.000 HD
ENDBRANCH   1  11
TORSDOF 1
ENDMDL
MODEL 3
REMARK VINA RESULT:      -5.4      1.992      2.362
REMARK  Name = 
REMARK  1 active torsions:
REMARK  status: ('A' for Active; 'I' for Inactive)
REMARK    1  A    between atoms: N_1  and  C_2
REMARK                            x       y       z     vdW  Elec       q    Type
REMARK                         _______ _______ _______ _____ _____    ______ ____
ROOT
ATOM      1  C   UNL     1       5.249   4.376  17.902  0.00  0.00    +0.000 C 
ATOM      2  N   UNL     1       4.481   3.179  17.591  0.00  0.00    +0.000 N 
ATOM      3  C   UNL     1       3.228   3.220  18.234  0.00  0.00    +0.000 A 
ATOM      4  C   UNL     1       2.243   2.258  18.047  0.00  0.00    +0.000 A 
ATOM      5  C   UNL     1       1.073   2.320  18.811  0.00  0.00    +0.000 A 
ATOM      6  C   UNL     1       0.894   3.331  19.761  0.00  0.00    +0.000 A 
ATOM      7  C   UNL     1       1.886   4.295  19.953  0.00  0.00    +0.000 A 
ATOM      8  C   UNL     1       3.039   4.220  19.189  0.00  0.00    +0.000 A 
ATOM      9  S   UNL     1       4.424   5.300  19.242  0.00  0.00    +0.000 S 
ATOM     10  H   UNL     1       4.388   2.998  16.597  0.00  0.00    +0.000 HD
ENDROOT
BRANCH   1  11
ATOM     11  N   UNL     1       6.613   4.134  18.303  0.00  0.00    +0.000 NA
ATOM     12  H   UNL     1       7.145   4.962  18.053  0.00  0.00    +0.000 HD
ATOM     13  H   UNL     1       6.943   3.406  17.671  0.00  0.00    +0.000 HD
ENDBRANCH   1  11
TORSDOF 1
ENDMDL
MODEL 4
REMARK VINA RESULT:      -5.3      2.494      3.983
REMARK  Name = 
REMARK  1 active torsions:
REMARK  status: ('A' for Active; 'I' for Inactive)
REMARK    1  A    between atoms: N_1  and  C_2
REMARK                            x       y       z     vdW  Elec       q    Type
REMARK                         _______ _______ _______ _____ _____    ______ ____
ROOT
ATOM      1  C   UNL     1       4.489   3.669  18.651  0.00  0.00    +0.000 C 
ATOM      2  N   UNL     1       5.825   3.906  19.176  0.00  0.00    +0.000 N 
ATOM      3  C   UNL     1       6.329   5.133  18.701  0.00  0.00    +0.000 A 
ATOM      4  C   UNL     1       7.545   5.668  19.108  0.00  0.00    +0.000 A 
ATOM      5  C   UNL     1       8.017   6.836  18.501  0.00  0.00    +0.000 A 
ATOM      6  C   UNL     1       7.282   7.459  17.486  0.00  0.00    +0.000 A 
ATOM      7  C   UNL     1       6.062   6.918  17.072  0.00  0.00    +0.000 A 
ATOM      8  C   UNL     1       5.609   5.761  17.683  0.00  0.00    +0.000 A 
ATOM      9  S   UNL     1       4.122   4.890  17.343  0.00  0.00    +0.000 S 
ATOM     10  H   UNL     1       5.886   3.841  20.187  0.00  0.00    +0.000 HD
ENDROOT
BRANCH   1  11
ATOM     11  N   UNL     1       4.277   2.353  18.102  0.00  0.00    +0.000 NA
ATOM     12  H   UNL     1       3.827   2.478  17.201  0.00  0.00    +0.000 HD
ATOM     13  H   UNL     1       3.564   1.937  18.698  0.00  0.00    +0.000 HD
ENDBRANCH   1  11
TORSDOF 1
ENDMDL
MODEL 5
REMARK VINA RESULT:      -5.3      2.490      2.669
REMARK  Name = 
REMARK  1 active torsions:
REMARK  status: ('A' for Active; 'I' for Inactive)
REMARK    1  A    between atoms: N_1  and  C_2
REMARK                            x       y       z     vdW  Elec       q    Type
REMARK                         _______ _______ _______ _____ _____    ______ ____
ROOT
ATOM      1  C   UNL     1       5.540   4.044  18.287  0.00  0.00    +0.000 C 
ATOM      2  N   UNL     1       4.976   3.058  19.198  0.00  0.00    +0.000 N 
ATOM      3  C   UNL     1       3.720   3.488  19.668  0.00  0.00    +0.000 A 
ATOM      4  C   UNL     1       2.902   2.711  20.480  0.00  0.00    +0.000 A 
ATOM      5  C   UNL     1       1.722   3.261  20.990  0.00  0.00    +0.000 A 
ATOM      6  C   UNL     1       1.367   4.582  20.699  0.00  0.00    +0.000 A 
ATOM      7  C   UNL     1       2.191   5.366  19.888  0.00  0.00    +0.000 A 
ATOM      8  C   UNL     1       3.357   4.807  19.391  0.00  0.00    +0.000 A 
ATOM      9  S   UNL     1       4.553   5.578  18.360  0.00  0.00    +0.000 S 
ATOM     10  H   UNL     1       4.933   2.121  18.812  0.00  0.00    +0.000 HD
ENDROOT
BRANCH   1  11
ATOM     11  N   UNL     1       6.917   4.389  18.543  0.00  0.00    +0.000 NA
ATOM     12  H   UNL     1       7.257   4.874  17.719  0.00  0.00    +0.000 HD
ATOM     13  H   UNL     1       7.409   3.497  18.548  0.00  0.00    +0.000 HD
ENDBRANCH   1  11
TORSDOF 1
ENDMDL
MODEL 6
REMARK VINA RESULT:      -5.2      1.125      1.125
REMARK  Name = 
REMARK  1 active torsions:
REMARK  status: ('A' for Active; 'I' for Inactive)
REMARK    1  A    between atoms: N_1  and  C_2
REMARK                            x       y       z     vdW  Elec       q    Type
REMARK                         _______ _______ _______ _____ _____    ______ ____
ROOT
ATOM      1  C   UNL     1       6.973   4.778  17.394  0.00  0.00    +0.000 C 
ATOM      2  N   UNL     1       5.901   3.981  16.816  0.00  0.00    +0.000 N 
ATOM      3  C   UNL     1       4.685   4.240  17.479  0.00  0.00    +0.000 A 
ATOM      4  C   UNL     1       3.469   3.693  17.085  0.00  0.00    +0.000 A 
ATOM      5  C   UNL     1       2.333   3.917  17.867  0.00  0.00    +0.000 A 
ATOM      6  C   UNL     1       2.413   4.673  19.042  0.00  0.00    +0.000 A 
ATOM      7  C   UNL     1       3.636   5.218  19.442  0.00  0.00    +0.000 A 
ATOM      8  C   UNL     1       4.752   4.987  18.656  0.00  0.00    +0.000 A 
ATOM      9  S   UNL     1       6.391   5.554  18.940  0.00  0.00    +0.000 S 
ATOM     10  H   UNL     1       5.810   4.083  15.810  0.00  0.00    +0.000 HD
ENDROOT
BRANCH   1  11
ATOM     11  N   UNL     1       8.180   4.048  17.690  0.00  0.00    +0.000 NA
ATOM     12  H   UNL     1       8.293   3.356  16.956  0.00  0.00    +0.000 HD
ATOM     13  H   UNL     1       7.959   3.513  18.527  0.00  0.00    +0.000 HD
ENDBRANCH   1  11
TORSDOF 1
ENDMDL
MODEL 7
REMARK VINA RESULT:      -5.2      2.544      3.858
REMARK  Name = 
REMARK  1 active torsions:
REMARK  status: ('A' for Active; 'I' for Inactive)
REMARK    1  A    between atoms: N_1  and  C_2
REMARK                            x       y       z     vdW  Elec       q    Type
REMARK                         _______ _______ _______ _____ _____    ______ ____
ROOT
ATOM      1  C   UNL     1       4.738   3.407  19.275  0.00  0.00    +0.000 C 
ATOM      2  N   UNL     1       6.040   3.976  18.959  0.00  0.00    +0.000 N 
ATOM      3  C   UNL     1       6.082   4.384  17.611  0.00  0.00    +0.000 A 
ATOM      4  C   UNL     1       7.166   5.049  17.049  0.00  0.00    +0.000 A 
ATOM      5  C   UNL     1       7.167   5.316  15.677  0.00  0.00    +0.000 A 
ATOM      6  C   UNL     1       6.097   4.913  14.870  0.00  0.00    +0.000 A 
ATOM      7  C   UNL     1       5.010   4.241  15.433  0.00  0.00    +0.000 A 
ATOM      8  C   UNL     1       5.024   3.983  16.794  0.00  0.00    +0.000 A 
ATOM      9  S   UNL     1       3.791   3.157  17.734  0.00  0.00    +0.000 S 
ATOM     10  H   UNL     1       6.325   4.721  19.587  0.00  0.00    +0.000 HD
ENDROOT
BRANCH   1  11
ATOM     11  N   UNL     1       4.780   2.150  19.980  0.00  0.00    +0.000 NA
ATOM     12  H   UNL     1       5.064   2.356  20.933  0.00  0.00    +0.000 HD
ATOM     13  H   UNL     1       5.568   1.651  19.571  0.00  0.00    +0.000 HD
ENDBRANCH   1  11
TORSDOF 1
ENDMDL
MODEL 8
REMARK VINA RESULT:      -5.1      2.118      2.562
REMARK  Name = 
REMARK  1 active torsions:
REMARK  status: ('A' for Active; 'I' for Inactive)
REMARK    1  A    between atoms: N_1  and  C_2
REMARK                            x       y       z     vdW  Elec       q    Type
REMARK                         _______ _______ _______ _____ _____    ______ ____
ROOT
ATOM      1  C   UNL     1       4.544   3.757  17.090  0.00  0.00    +0.000 C 
ATOM      2  N   UNL     1       4.010   2.653  17.873  0.00  0.00    +0.000 N 
ATOM      3  C   UNL     1       2.995   3.110  18.737  0.00  0.00    +0.000 A 
ATOM      4  C   UNL     1       2.238   2.265  19.540  0.00  0.00    +0.000 A 
ATOM      5  C   UNL     1       1.329   2.816  20.447  0.00  0.00    +0.000 A 
ATOM      6  C   UNL     1       1.185   4.204  20.558  0.00  0.00    +0.000 A 
ATOM      7  C   UNL     1       1.949   5.054  19.756  0.00  0.00    +0.000 A 
ATOM      8  C   UNL     1       2.846   4.492  18.862  0.00  0.00    +0.000 A 
ATOM      9  S   UNL     1       3.916   5.337  17.754  0.00  0.00    +0.000 S 
ATOM     10  H   UNL     1       3.701   1.864  17.313  0.00  0.00    +0.000 HD
ENDROOT
BRANCH   1  11
ATOM     11  N   UNL     1       5.983   3.832  17.049  0.00  0.00    +0.000 NA
ATOM     12  H   UNL     1       6.325   3.386  17.895  0.00  0.00    +0.000 HD
ATOM     13  H   UNL     1       6.193   4.822  17.168  0.00  0.00    +0.000 HD
ENDBRANCH   1  11
TORSDOF 1
ENDMDL
MODEL 9
REMARK VINA RESULT:      -5.0      2.960      3.626
REMARK  Name = 
REMARK  1 active torsions:
REMARK  status: ('A' for Active; 'I' for Inactive)
REMARK    1  A    between atoms: N_1  and  C_2
REMARK                            x       y       z     vdW  Elec       q    Type
REMARK                         _______ _______ _______ _____ _____    ______ ____
ROOT
ATOM      1  C   UNL     1       3.057   1.839  18.149  0.00  0.00    +0.000 C 
ATOM      2  N   UNL     1       2.302   2.195  19.342  0.00  0.00    +0.000 N 
ATOM      3  C   UNL     1       2.250   3.596  19.488  0.00  0.00    +0.000 A 
ATOM      4  C   UNL     1       1.518   4.232  20.484  0.00  0.00    +0.000 A 
ATOM      5  C   UNL     1       1.613   5.620  20.623  0.00  0.00    +0.000 A 
ATOM      6  C   UNL     1       2.442   6.366  19.777  0.00  0.00    +0.000 A 
ATOM      7  C   UNL     1       3.182   5.727  18.780  0.00  0.00    +0.000 A 
ATOM      8  C   UNL     1       3.077   4.351  18.656  0.00  0.00    +0.000 A 
ATOM      9  S   UNL     1       3.900   3.321  17.495  0.00  0.00    +0.000 S 
ATOM     10  H   UNL     1       1.377   1.778  19.382  0.00  0.00    +0.000 HD
ENDROOT
BRANCH   1  11
ATOM     11  N   UNL     1       4.050   0.812  18.344  0.00  0.00    +0.000 NA
ATOM     12  H   UNL     1       4.930   1.285  18.526  0.00  0.00    +0.000 HD
ATOM     13  H   UNL     1       4.163   0.385  17.427  0.00  0.00    +0.000 HD
ENDBRANCH   1  11
TORSDOF 1
ENDMDL
