MODEL 1
REMARK VINA RESULT:      -7.6      0.000      0.000
REMARK  Name = 
REMARK  8 active torsions:
REMARK  status: ('A' for Active; 'I' for Inactive)
REMARK    1  A    between atoms: C_1  and  C_2
REMARK    2  A    between atoms: C_7  and  C_8
REMARK    3  A    between atoms: C_8  and  C_9
REMARK    4  A    between atoms: C_8  and  N_18
REMARK    5  A    between atoms: N_11  and  C_12
REMARK    6  A    between atoms: N_18  and  C_28
REMARK    7  A    between atoms: C_19  and  C_21
REMARK    8  A    between atoms: C_21  and  C_22
REMARK                            x       y       z     vdW  Elec       q    Type
REMARK                         _______ _______ _______ _____ _____    ______ ____
ROOT
ATOM      1  C   UNL     1      -0.295  10.533  19.959  0.00  0.00    +0.000 C 
ENDROOT
BRANCH   1   8
ATOM      2  C   UNL     1       0.865   8.161  21.624  0.00  0.00    +0.000 C 
ATOM      3  C   UNL     1       1.219   8.441  20.187  0.00  0.00    +0.000 A 
ATOM      4  C   UNL     1       1.992   7.485  19.503  0.00  0.00    +0.000 A 
ATOM      5  C   UNL     1       2.526   7.767  18.250  0.00  0.00    +0.000 A 
ATOM      6  C   UNL     1       2.441   9.058  17.758  0.00  0.00    +0.000 A 
ATOM      7  C   UNL     1       1.703  10.012  18.453  0.00  0.00    +0.000 A 
ATOM      8  C   UNL     1       0.904   9.661  19.549  0.00  0.00    +0.000 A 
ENDBRANCH   1   8
BRANCH   1   9
ATOM      9  C   UNL     1      -0.242  11.067  21.413  0.00  0.00    +0.000 C 
ATOM     10  O   UNL     1       0.789  11.062  22.081  0.00  0.00    +0.000 OA
ATOM     11  N   UNL     1      -1.416  11.623  21.867  0.00  0.00    +0.000 N 
ATOM     12  H   UNL     1      -2.249  11.333  21.384  0.00  0.00    +0.000 HD
BRANCH  11  13
ATOM     13  C   UNL     1      -1.617  12.171  23.201  0.00  0.00    +0.000 C 
ATOM     14  C   UNL     1      -1.127  13.631  23.216  0.00  0.00    +0.000 C 
ATOM     15  C   UNL     1      -2.029  14.561  22.396  0.00  0.00    +0.000 C 
ATOM     16  C   UNL     1      -3.492  14.448  22.806  0.00  0.00    +0.000 C 
ATOM     17  C   UNL     1      -3.981  13.002  22.786  0.00  0.00    +0.000 C 
ATOM     18  C   UNL     1      -3.089  12.081  23.626  0.00  0.00    +0.000 C 
ENDBRANCH  11  13
ENDBRANCH   1   9
BRANCH   1  19
ATOM     19  N   UNL     1      -0.724  11.568  18.888  0.00  0.00    +0.000 N 
ATOM     20  C   UNL     1      -0.177  12.832  18.579  0.00  0.00    +0.000 C 
ATOM     21  O   UNL     1      -0.569  13.509  17.616  0.00  0.00    +0.000 OA
BRANCH  19  22
ATOM     22  C   UNL     1      -1.904  11.176  18.131  0.00  0.00    +0.000 A 
ATOM     23  C   UNL     1      -3.177  11.667  18.471  0.00  0.00    +0.000 A 
ATOM     24  C   UNL     1      -4.302  11.384  17.687  0.00  0.00    +0.000 A 
ATOM     25  C   UNL     1      -4.180  10.579  16.561  0.00  0.00    +0.000 A 
ATOM     26  C   UNL     1      -2.935  10.064  16.230  0.00  0.00    +0.000 A 
ATOM     27  F   UNL     1      -2.816   9.278  15.153  0.00  0.00    +0.000 F 
ATOM     28  C   UNL     1      -1.807  10.350  16.997  0.00  0.00    +0.000 A 
ENDBRANCH  19  22
BRANCH  20  29
ATOM     29  C   UNL     1       0.771  13.558  19.515  0.00  0.00    +0.000 C 
BRANCH  29  30
ATOM     30  C   UNL     1       1.889  14.344  18.902  0.00  0.00    +0.000 A 
ATOM     31  C   UNL     1       1.788  15.721  18.793  0.00  0.00    +0.000 A 
ATOM     32  N   UNL     1       2.755  16.516  18.302  0.00  0.00    +0.000 NA
ATOM     33  C   UNL     1       3.869  15.889  17.908  0.00  0.00    +0.000 A 
ATOM     34  N   UNL     1       4.097  14.568  17.975  0.00  0.00    +0.000 NA
ATOM     35  C   UNL     1       3.090  13.816  18.474  0.00  0.00    +0.000 A 
ENDBRANCH  29  30
ENDBRANCH  20  29
ENDBRANCH   1  19
TORSDOF 7
ENDMDL
MODEL 2
REMARK VINA RESULT:      -7.3      0.872      1.134
REMARK  Name = 
REMARK  8 active torsions:
REMARK  status: ('A' for Active; 'I' for Inactive)
REMARK    1  A    between atoms: C_1  and  C_2
REMARK    2  A    between atoms: C_7  and  C_8
REMARK    3  A    between atoms: C_8  and  C_9
REMARK    4  A    between atoms: C_8  and  N_18
REMARK    5  A    between atoms: N_11  and  C_12
REMARK    6  A    between atoms: N_18  and  C_28
REMARK    7  A    between atoms: C_19  and  C_21
REMARK    8  A    between atoms: C_21  and  C_22
REMARK                            x       y       z     vdW  Elec       q    Type
REMARK                         _______ _______ _______ _____ _____    ______ ____
ROOT
ATOM      1  C   UNL     1      -0.930  11.118  20.599  0.00  0.00    +0.000 C 
ENDROOT
BRANCH   1   8
ATOM      2  C   UNL     1      -0.132   9.263  22.979  0.00  0.00    +0.000 C 
ATOM      3  C   UNL     1       0.356   9.085  21.564  0.00  0.00    +0.000 A 
ATOM      4  C   UNL     1       1.084   7.920  21.263  0.00  0.00    +0.000 A 
ATOM      5  C   UNL     1       1.737   7.785  20.042  0.00  0.00    +0.000 A 
ATOM      6  C   UNL     1       1.813   8.878  19.197  0.00  0.00    +0.000 A 
ATOM      7  C   UNL     1       1.119  10.043  19.513  0.00  0.00    +0.000 A 
ATOM      8  C   UNL     1       0.208  10.084  20.577  0.00  0.00    +0.000 A 
ENDBRANCH   1   8
BRANCH   1   9
ATOM      9  C   UNL     1      -0.995  11.984  21.882  0.00  0.00    +0.000 C 
ATOM     10  O   UNL     1       0.009  12.449  22.417  0.00  0.00    +0.000 OA
ATOM     11  N   UNL     1      -2.267  12.262  22.327  0.00  0.00    +0.000 N 
ATOM     12  H   UNL     1      -2.984  11.630  22.015  0.00  0.00    +0.000 HD
BRANCH  11  13
ATOM     13  C   UNL     1      -2.582  13.037  23.520  0.00  0.00    +0.000 C 
ATOM     14  C   UNL     1      -2.621  14.530  23.145  0.00  0.00    +0.000 C 
ATOM     15  C   UNL     1      -3.822  14.882  22.260  0.00  0.00    +0.000 C 
ATOM     16  C   UNL     1      -5.138  14.415  22.869  0.00  0.00    +0.000 C 
ATOM     17  C   UNL     1      -5.105  12.933  23.237  0.00  0.00    +0.000 C 
ATOM     18  C   UNL     1      -3.914  12.591  24.139  0.00  0.00    +0.000 C 
ENDBRANCH  11  13
ENDBRANCH   1   9
BRANCH   1  19
ATOM     19  N   UNL     1      -1.111  11.891  19.268  0.00  0.00    +0.000 N 
ATOM     20  C   UNL     1      -0.380  12.980  18.744  0.00  0.00    +0.000 C 
ATOM     21  O   UNL     1      -0.581  13.431  17.607  0.00  0.00    +0.000 OA
BRANCH  19  22
ATOM     22  C   UNL     1      -2.246  11.440  18.475  0.00  0.00    +0.000 A 
ATOM     23  C   UNL     1      -3.539  11.936  18.718  0.00  0.00    +0.000 A 
ATOM     24  C   UNL     1      -4.619  11.593  17.895  0.00  0.00    +0.000 A 
ATOM     25  C   UNL     1      -4.431  10.721  16.828  0.00  0.00    +0.000 A 
ATOM     26  C   UNL     1      -3.165  10.202  16.595  0.00  0.00    +0.000 A 
ATOM     27  F   UNL     1      -2.983   9.352  15.578  0.00  0.00    +0.000 F 
ATOM     28  C   UNL     1      -2.083  10.547  17.402  0.00  0.00    +0.000 A 
ENDBRANCH  19  22
BRANCH  20  29
ATOM     29  C   UNL     1       0.550  13.820  19.601  0.00  0.00    +0.000 C 
BRANCH  29  30
ATOM     30  C   UNL     1       1.771  14.392  18.948  0.00  0.00    +0.000 A 
ATOM     31  C   UNL     1       1.832  15.747  18.663  0.00  0.00    +0.000 A 
ATOM     32  N   UNL     1       2.900  16.360  18.123  0.00  0.00    +0.000 NA
ATOM     33  C   UNL     1       3.947  15.568  17.862  0.00  0.00    +0.000 A 
ATOM     34  N   UNL     1       4.018  14.250  18.104  0.00  0.00    +0.000 NA
ATOM     35  C   UNL     1       2.916  13.684  18.645  0.00  0.00    +0.000 A 
ENDBRANCH  29  30
ENDBRANCH  20  29
ENDBRANCH   1  19
TORSDOF 7
ENDMDL
MODEL 3
REMARK VINA RESULT:      -7.2      2.276      5.201
REMARK  Name = 
REMARK  8 active torsions:
REMARK  status: ('A' for Active; 'I' for Inactive)
REMARK    1  A    between atoms: C_1  and  C_2
REMARK    2  A    between atoms: C_7  and  C_8
REMARK    3  A    between atoms: C_8  and  C_9
REMARK    4  A    between atoms: C_8  and  N_18
REMARK    5  A    between atoms: N_11  and  C_12
REMARK    6  A    between atoms: N_18  and  C_28
REMARK    7  A    between atoms: C_19  and  C_21
REMARK    8  A    between atoms: C_21  and  C_22
REMARK                            x       y       z     vdW  Elec       q    Type
REMARK                         _______ _______ _______ _____ _____    ______ ____
ROOT
ATOM      1  C   UNL     1      -1.534  11.874  19.886  0.00  0.00    +0.000 C 
ENDROOT
BRANCH   1   8
ATOM      2  C   UNL     1      -1.282  11.129  22.907  0.00  0.00    +0.000 C 
ATOM      3  C   UNL     1      -1.496  12.529  22.394  0.00  0.00    +0.000 A 
ATOM      4  C   UNL     1      -1.416  13.586  23.318  0.00  0.00    +0.000 A 
ATOM      5  C   UNL     1      -1.802  14.874  22.962  0.00  0.00    +0.000 A 
ATOM      6  C   UNL     1      -2.432  15.074  21.746  0.00  0.00    +0.000 A 
ATOM      7  C   UNL     1      -2.541  14.018  20.845  0.00  0.00    +0.000 A 
ATOM      8  C   UNL     1      -1.881  12.801  21.063  0.00  0.00    +0.000 A 
ENDBRANCH   1   8
BRANCH   1   9
ATOM      9  C   UNL     1      -2.530  11.928  18.701  0.00  0.00    +0.000 C 
ATOM     10  O   UNL     1      -2.168  11.846  17.529  0.00  0.00    +0.000 OA
ATOM     11  N   UNL     1      -3.856  11.988  19.063  0.00  0.00    +0.000 N 
ATOM     12  H   UNL     1      -4.037  12.331  19.991  0.00  0.00    +0.000 HD
BRANCH  11  13
ATOM     13  C   UNL     1      -4.972  12.068  18.131  0.00  0.00    +0.000 C 
ATOM     14  C   UNL     1      -5.713  10.717  18.129  0.00  0.00    +0.000 C 
ATOM     15  C   UNL     1      -6.465  10.459  19.440  0.00  0.00    +0.000 C 
ATOM     16  C   UNL     1      -7.389  11.614  19.807  0.00  0.00    +0.000 C 
ATOM     17  C   UNL     1      -6.655  12.953  19.816  0.00  0.00    +0.000 C 
ATOM     18  C   UNL     1      -5.923  13.215  18.495  0.00  0.00    +0.000 C 
ENDBRANCH  11  13
ENDBRANCH   1   9
BRANCH   1  19
ATOM     19  N   UNL     1      -0.034  11.882  19.493  0.00  0.00    +0.000 N 
ATOM     20  C   UNL     1       0.816  12.965  19.180  0.00  0.00    +0.000 C 
ATOM     21  O   UNL     1       2.032  12.821  18.981  0.00  0.00    +0.000 OA
BRANCH  19  22
ATOM     22  C   UNL     1       0.553  10.554  19.385  0.00  0.00    +0.000 A 
ATOM     23  C   UNL     1       1.027  10.070  18.153  0.00  0.00    +0.000 A 
ATOM     24  C   UNL     1       1.690   8.841  18.058  0.00  0.00    +0.000 A 
ATOM     25  C   UNL     1       1.866   8.055  19.191  0.00  0.00    +0.000 A 
ATOM     26  C   UNL     1       1.377   8.508  20.409  0.00  0.00    +0.000 A 
ATOM     27  F   UNL     1       1.533   7.748  21.500  0.00  0.00    +0.000 F 
ATOM     28  C   UNL     1       0.727   9.735  20.515  0.00  0.00    +0.000 A 
ENDBRANCH  19  22
BRANCH  20  29
ATOM     29  C   UNL     1       0.282  14.347  18.850  0.00  0.00    +0.000 C 
BRANCH  29  30
ATOM     30  C   UNL     1       1.030  15.529  19.386  0.00  0.00    +0.000 A 
ATOM     31  C   UNL     1       1.707  16.370  18.519  0.00  0.00    +0.000 A 
ATOM     32  N   UNL     1       2.366  17.479  18.898  0.00  0.00    +0.000 NA
ATOM     33  C   UNL     1       2.334  17.746  20.209  0.00  0.00    +0.000 A 
ATOM     34  N   UNL     1       1.703  17.022  21.147  0.00  0.00    +0.000 NA
ATOM     35  C   UNL     1       1.060  15.916  20.710  0.00  0.00    +0.000 A 
ENDBRANCH  29  30
ENDBRANCH  20  29
ENDBRANCH   1  19
TORSDOF 7
ENDMDL
MODEL 4
REMARK VINA RESULT:      -7.1      2.076      5.140
REMARK  Name = 
REMARK  8 active torsions:
REMARK  status: ('A' for Active; 'I' for Inactive)
REMARK    1  A    between atoms: C_1  and  C_2
REMARK    2  A    between atoms: C_7  and  C_8
REMARK    3  A    between atoms: C_8  and  C_9
REMARK    4  A    between atoms: C_8  and  N_18
REMARK    5  A    between atoms: N_11  and  C_12
REMARK    6  A    between atoms: N_18  and  C_28
REMARK    7  A    between atoms: C_19  and  C_21
REMARK    8  A    between atoms: C_21  and  C_22
REMARK                            x       y       z     vdW  Elec       q    Type
REMARK                         _______ _______ _______ _____ _____    ______ ____
ROOT
ATOM      1  C   UNL     1      -1.505  11.850  19.997  0.00  0.00    +0.000 C 
ENDROOT
BRANCH   1   8
ATOM      2  C   UNL     1      -1.340  11.101  23.022  0.00  0.00    +0.000 C 
ATOM      3  C   UNL     1      -1.595  12.493  22.506  0.00  0.00    +0.000 A 
ATOM      4  C   UNL     1      -1.599  13.548  23.437  0.00  0.00    +0.000 A 
ATOM      5  C   UNL     1      -2.027  14.819  23.070  0.00  0.00    +0.000 A 
ATOM      6  C   UNL     1      -2.617  14.997  21.832  0.00  0.00    +0.000 A 
ATOM      7  C   UNL     1      -2.644  13.943  20.923  0.00  0.00    +0.000 A 
ATOM      8  C   UNL     1      -1.939  12.755  21.162  0.00  0.00    +0.000 A 
ENDBRANCH   1   8
BRANCH   1   9
ATOM      9  C   UNL     1      -2.460  11.860  18.777  0.00  0.00    +0.000 C 
ATOM     10  O   UNL     1      -2.053  11.799  17.619  0.00  0.00    +0.000 OA
ATOM     11  N   UNL     1      -3.799  11.854  19.092  0.00  0.00    +0.000 N 
ATOM     12  H   UNL     1      -4.030  12.184  20.013  0.00  0.00    +0.000 HD
BRANCH  11  13
ATOM     13  C   UNL     1      -4.884  11.882  18.120  0.00  0.00    +0.000 C 
ATOM     14  C   UNL     1      -5.659  10.554  18.204  0.00  0.00    +0.000 C 
ATOM     15  C   UNL     1      -6.456  10.421  19.506  0.00  0.00    +0.000 C 
ATOM     16  C   UNL     1      -7.361  11.622  19.748  0.00  0.00    +0.000 C 
ATOM     17  C   UNL     1      -6.594  12.941  19.672  0.00  0.00    +0.000 C 
ATOM     18  C   UNL     1      -5.816  13.077  18.358  0.00  0.00    +0.000 C 
ENDBRANCH  11  13
ENDBRANCH   1   9
BRANCH   1  19
ATOM     19  N   UNL     1       0.006  11.934  19.657  0.00  0.00    +0.000 N 
ATOM     20  C   UNL     1       0.799  13.052  19.320  0.00  0.00    +0.000 C 
ATOM     21  O   UNL     1       2.028  12.975  19.173  0.00  0.00    +0.000 OA
BRANCH  19  22
ATOM     22  C   UNL     1       0.676  10.641  19.639  0.00  0.00    +0.000 A 
ATOM     23  C   UNL     1       0.787   9.867  20.807  0.00  0.00    +0.000 A 
ATOM     24  C   UNL     1       1.333   8.578  20.779  0.00  0.00    +0.000 A 
ATOM     25  C   UNL     1       1.808   8.049  19.584  0.00  0.00    +0.000 A 
ATOM     26  C   UNL     1       1.731   8.815  18.429  0.00  0.00    +0.000 A 
ATOM     27  F   UNL     1       2.200   8.314  17.280  0.00  0.00    +0.000 F 
ATOM     28  C   UNL     1       1.179  10.094  18.445  0.00  0.00    +0.000 A 
ENDBRANCH  19  22
BRANCH  20  29
ATOM     29  C   UNL     1       0.195  14.379  18.901  0.00  0.00    +0.000 C 
BRANCH  29  30
ATOM     30  C   UNL     1       0.849  15.631  19.401  0.00  0.00    +0.000 A 
ATOM     31  C   UNL     1       1.569  16.431  18.529  0.00  0.00    +0.000 A 
ATOM     32  N   UNL     1       2.151  17.594  18.872  0.00  0.00    +0.000 NA
ATOM     33  C   UNL     1       1.994  17.960  20.149  0.00  0.00    +0.000 A 
ATOM     34  N   UNL     1       1.309  17.285  21.085  0.00  0.00    +0.000 NA
ATOM     35  C   UNL     1       0.747  16.121  20.687  0.00  0.00    +0.000 A 
ENDBRANCH  29  30
ENDBRANCH  20  29
ENDBRANCH   1  19
TORSDOF 7
ENDMDL
MODEL 5
REMARK VINA RESULT:      -7.1      2.405      5.102
REMARK  Name = 
REMARK  8 active torsions:
REMARK  status: ('A' for Active; 'I' for Inactive)
REMARK    1  A    between atoms: C_1  and  C_2
REMARK    2  A    between atoms: C_7  and  C_8
REMARK    3  A    between atoms: C_8  and  C_9
REMARK    4  A    between atoms: C_8  and  N_18
REMARK    5  A    between atoms: N_11  and  C_12
REMARK    6  A    between atoms: N_18  and  C_28
REMARK    7  A    between atoms: C_19  and  C_21
REMARK    8  A    between atoms: C_21  and  C_22
REMARK                            x       y       z     vdW  Elec       q    Type
REMARK                         _______ _______ _______ _____ _____    ______ ____
ROOT
ATOM      1  C   UNL     1      -0.095  11.755  19.654  0.00  0.00    +0.000 C 
ENDROOT
BRANCH   1   8
ATOM      2  C   UNL     1      -1.679  12.776  22.142  0.00  0.00    +0.000 C 
ATOM      3  C   UNL     1      -0.930  11.470  22.091  0.00  0.00    +0.000 A 
ATOM      4  C   UNL     1      -1.086  10.581  23.170  0.00  0.00    +0.000 A 
ATOM      5  C   UNL     1      -0.275   9.458  23.290  0.00  0.00    +0.000 A 
ATOM      6  C   UNL     1       0.805   9.316  22.436  0.00  0.00    +0.000 A 
ATOM      7  C   UNL     1       0.979  10.216  21.389  0.00  0.00    +0.000 A 
ATOM      8  C   UNL     1      -0.004  11.163  21.070  0.00  0.00    +0.000 A 
ENDBRANCH   1   8
BRANCH   1   9
ATOM      9  C   UNL     1       1.047  12.735  19.284  0.00  0.00    +0.000 C 
ATOM     10  O   UNL     1       1.475  12.848  18.138  0.00  0.00    +0.000 OA
ATOM     11  N   UNL     1       1.487  13.526  20.320  0.00  0.00    +0.000 N 
ATOM     12  H   UNL     1       1.295  13.178  21.244  0.00  0.00    +0.000 HD
BRANCH  11  13
ATOM     13  C   UNL     1       2.562  14.505  20.223  0.00  0.00    +0.000 C 
ATOM     14  C   UNL     1       2.077  15.689  19.366  0.00  0.00    +0.000 C 
ATOM     15  C   UNL     1       1.005  16.525  20.073  0.00  0.00    +0.000 C 
ATOM     16  C   UNL     1       1.448  16.972  21.460  0.00  0.00    +0.000 C 
ATOM     17  C   UNL     1       1.923  15.799  22.314  0.00  0.00    +0.000 C 
ATOM     18  C   UNL     1       3.011  14.979  21.611  0.00  0.00    +0.000 C 
ENDBRANCH  11  13
ENDBRANCH   1   9
BRANCH   1  19
ATOM     19  N   UNL     1      -0.465  10.724  18.557  0.00  0.00    +0.000 N 
ATOM     20  C   UNL     1       0.300   9.675  18.003  0.00  0.00    +0.000 C 
ATOM     21  O   UNL     1      -0.172   8.860  17.196  0.00  0.00    +0.000 OA
BRANCH  19  22
ATOM     22  C   UNL     1      -1.792  10.919  17.989  0.00  0.00    +0.000 A 
ATOM     23  C   UNL     1      -2.835  11.465  18.758  0.00  0.00    +0.000 A 
ATOM     24  C   UNL     1      -4.082  11.757  18.194  0.00  0.00    +0.000 A 
ATOM     25  C   UNL     1      -4.320  11.481  16.852  0.00  0.00    +0.000 A 
ATOM     26  C   UNL     1      -3.309  10.916  16.089  0.00  0.00    +0.000 A 
ATOM     27  F   UNL     1      -3.539  10.636  14.800  0.00  0.00    +0.000 F 
ATOM     28  C   UNL     1      -2.060  10.632  16.639  0.00  0.00    +0.000 A 
ENDBRANCH  19  22
BRANCH  20  29
ATOM     29  C   UNL     1       1.805   9.588  18.179  0.00  0.00    +0.000 C 
BRANCH  29  30
ATOM     30  C   UNL     1       2.405   8.231  18.389  0.00  0.00    +0.000 A 
ATOM     31  C   UNL     1       3.338   7.740  17.491  0.00  0.00    +0.000 A 
ATOM     32  N   UNL     1       3.965   6.558  17.619  0.00  0.00    +0.000 NA
ATOM     33  C   UNL     1       3.633   5.846  18.703  0.00  0.00    +0.000 A 
ATOM     34  N   UNL     1       2.759   6.215  19.652  0.00  0.00    +0.000 NA
ATOM     35  C   UNL     1       2.156   7.411  19.471  0.00  0.00    +0.000 A 
ENDBRANCH  29  30
ENDBRANCH  20  29
ENDBRANCH   1  19
TORSDOF 7
ENDMDL
MODEL 6
REMARK VINA RESULT:      -7.1      2.670      6.468
REMARK  Name = 
REMARK  8 active torsions:
REMARK  status: ('A' for Active; 'I' for Inactive)
REMARK    1  A    between atoms: C_1  and  C_2
REMARK    2  A    between atoms: C_7  and  C_8
REMARK    3  A    between atoms: C_8  and  C_9
REMARK    4  A    between atoms: C_8  and  N_18
REMARK    5  A    between atoms: N_11  and  C_12
REMARK    6  A    between atoms: N_18  and  C_28
REMARK    7  A    between atoms: C_19  and  C_21
REMARK    8  A    between atoms: C_21  and  C_22
REMARK                            x       y       z     vdW  Elec       q    Type
REMARK                         _______ _______ _______ _____ _____    ______ ____
ROOT
ATOM      1  C   UNL     1      -2.178  12.281  20.225  0.00  0.00    +0.000 C 
ENDROOT
BRANCH   1   8
ATOM      2  C   UNL     1      -2.460  11.847  23.303  0.00  0.00    +0.000 C 
ATOM      3  C   UNL     1      -2.819  13.125  22.590  0.00  0.00    +0.000 A 
ATOM      4  C   UNL     1      -3.146  14.245  23.376  0.00  0.00    +0.000 A 
ATOM      5  C   UNL     1      -3.682  15.389  22.796  0.00  0.00    +0.000 A 
ATOM      6  C   UNL     1      -4.056  15.354  21.464  0.00  0.00    +0.000 A 
ATOM      7  C   UNL     1      -3.762  14.232  20.695  0.00  0.00    +0.000 A 
ATOM      8  C   UNL     1      -2.946  13.204  21.186  0.00  0.00    +0.000 A 
ENDBRANCH   1   8
BRANCH   1   9
ATOM      9  C   UNL     1      -2.936  11.930  18.919  0.00  0.00    +0.000 C 
ATOM     10  O   UNL     1      -2.375  11.865  17.828  0.00  0.00    +0.000 OA
ATOM     11  N   UNL     1      -4.263  11.613  19.090  0.00  0.00    +0.000 N 
ATOM     12  H   UNL     1      -4.688  11.959  19.933  0.00  0.00    +0.000 HD
BRANCH  11  13
ATOM     13  C   UNL     1      -5.183  11.269  18.013  0.00  0.00    +0.000 C 
ATOM     14  C   UNL     1      -6.418  10.576  18.619  0.00  0.00    +0.000 C 
ATOM     15  C   UNL     1      -7.290  11.538  19.433  0.00  0.00    +0.000 C 
ATOM     16  C   UNL     1      -7.670  12.780  18.637  0.00  0.00    +0.000 C 
ATOM     17  C   UNL     1      -6.447  13.473  18.040  0.00  0.00    +0.000 C 
ATOM     18  C   UNL     1      -5.590  12.511  17.209  0.00  0.00    +0.000 C 
ENDBRANCH  11  13
ENDBRANCH   1   9
BRANCH   1  19
ATOM     19  N   UNL     1      -0.684  12.654  20.045  0.00  0.00    +0.000 N 
ATOM     20  C   UNL     1       0.453  11.823  19.953  0.00  0.00    +0.000 C 
ATOM     21  O   UNL     1       1.584  12.267  19.705  0.00  0.00    +0.000 OA
BRANCH  19  22
ATOM     22  C   UNL     1      -0.434  14.088  20.022  0.00  0.00    +0.000 A 
ATOM     23  C   UNL     1       0.033  14.759  21.165  0.00  0.00    +0.000 A 
ATOM     24  C   UNL     1       0.380  16.115  21.126  0.00  0.00    +0.000 A 
ATOM     25  C   UNL     1       0.237  16.835  19.945  0.00  0.00    +0.000 A 
ATOM     26  C   UNL     1      -0.251  16.192  18.817  0.00  0.00    +0.000 A 
ATOM     27  F   UNL     1      -0.402  16.885  17.682  0.00  0.00    +0.000 F 
ATOM     28  C   UNL     1      -0.587  14.840  18.843  0.00  0.00    +0.000 A 
ENDBRANCH  19  22
BRANCH  20  29
ATOM     29  C   UNL     1       0.425  10.361  20.360  0.00  0.00    +0.000 C 
BRANCH  29  30
ATOM     30  C   UNL     1       1.220   9.393  19.537  0.00  0.00    +0.000 A 
ATOM     31  C   UNL     1       1.667   8.210  20.102  0.00  0.00    +0.000 A 
ATOM     32  N   UNL     1       2.345   7.260  19.434  0.00  0.00    +0.000 NA
ATOM     33  C   UNL     1       2.578   7.521  18.142  0.00  0.00    +0.000 A 
ATOM     34  N   UNL     1       2.186   8.619  17.475  0.00  0.00    +0.000 NA
ATOM     35  C   UNL     1       1.511   9.541  18.197  0.00  0.00    +0.000 A 
ENDBRANCH  29  30
ENDBRANCH  20  29
ENDBRANCH   1  19
TORSDOF 7
ENDMDL
MODEL 7
REMARK VINA RESULT:      -7.1      1.403      1.689
REMARK  Name = 
REMARK  8 active torsions:
REMARK  status: ('A' for Active; 'I' for Inactive)
REMARK    1  A    between atoms: C_1  and  C_2
REMARK    2  A    between atoms: C_7  and  C_8
REMARK    3  A    between atoms: C_8  and  C_9
REMARK    4  A    between atoms: C_8  and  N_18
REMARK    5  A    between atoms: N_11  and  C_12
REMARK    6  A    between atoms: N_18  and  C_28
REMARK    7  A    between atoms: C_19  and  C_21
REMARK    8  A    between atoms: C_21  and  C_22
REMARK                            x       y       z     vdW  Elec       q    Type
REMARK                         _______ _______ _______ _____ _____    ______ ____
ROOT
ATOM      1  C   UNL     1      -0.312  10.663  19.929  0.00  0.00    +0.000 C 
ENDROOT
BRANCH   1   8
ATOM      2  C   UNL     1       0.912   8.502  21.819  0.00  0.00    +0.000 C 
ATOM      3  C   UNL     1       1.205   8.603  20.345  0.00  0.00    +0.000 A 
ATOM      4  C   UNL     1       1.947   7.566  19.750  0.00  0.00    +0.000 A 
ATOM      5  C   UNL     1       2.428   7.690  18.451  0.00  0.00    +0.000 A 
ATOM      6  C   UNL     1       2.325   8.912  17.811  0.00  0.00    +0.000 A 
ATOM      7  C   UNL     1       1.620   9.949  18.415  0.00  0.00    +0.000 A 
ATOM      8  C   UNL     1       0.866   9.739  19.578  0.00  0.00    +0.000 A 
ENDBRANCH   1   8
BRANCH   1   9
ATOM      9  C   UNL     1      -0.235  11.307  21.336  0.00  0.00    +0.000 C 
ATOM     10  O   UNL     1       0.833  11.569  21.885  0.00  0.00    +0.000 OA
ATOM     11  N   UNL     1      -1.451  11.641  21.885  0.00  0.00    +0.000 N 
ATOM     12  H   UNL     1      -2.246  11.149  21.514  0.00  0.00    +0.000 HD
BRANCH  11  13
ATOM     13  C   UNL     1      -1.636  12.238  23.201  0.00  0.00    +0.000 C 
ATOM     14  C   UNL     1      -1.287  13.736  23.120  0.00  0.00    +0.000 C 
ATOM     15  C   UNL     1      -2.314  14.533  22.308  0.00  0.00    +0.000 C 
ATOM     16  C   UNL     1      -3.737  14.307  22.804  0.00  0.00    +0.000 C 
ATOM     17  C   UNL     1      -4.087  12.823  22.880  0.00  0.00    +0.000 C 
ATOM     18  C   UNL     1      -3.068  12.034  23.711  0.00  0.00    +0.000 C 
ENDBRANCH  11  13
ENDBRANCH   1   9
BRANCH   1  19
ATOM     19  N   UNL     1      -0.732  11.619  18.783  0.00  0.00    +0.000 N 
ATOM     20  C   UNL     1      -0.093  12.777  18.288  0.00  0.00    +0.000 C 
ATOM     21  O   UNL     1      -0.502  13.387  17.289  0.00  0.00    +0.000 OA
BRANCH  19  22
ATOM     22  C   UNL     1      -2.010  11.281  18.173  0.00  0.00    +0.000 A 
ATOM     23  C   UNL     1      -3.210  11.831  18.657  0.00  0.00    +0.000 A 
ATOM     24  C   UNL     1      -4.432  11.599  18.012  0.00  0.00    +0.000 A 
ATOM     25  C   UNL     1      -4.480  10.786  16.886  0.00  0.00    +0.000 A 
ATOM     26  C   UNL     1      -3.307  10.213  16.415  0.00  0.00    +0.000 A 
ATOM     27  F   UNL     1      -3.352   9.419  15.339  0.00  0.00    +0.000 F 
ATOM     28  C   UNL     1      -2.085  10.448  17.043  0.00  0.00    +0.000 A 
ENDBRANCH  19  22
BRANCH  20  29
ATOM     29  C   UNL     1       1.005  13.490  19.056  0.00  0.00    +0.000 C 
BRANCH  29  30
ATOM     30  C   UNL     1       0.640  14.743  19.791  0.00  0.00    +0.000 A 
ATOM     31  C   UNL     1       1.303  15.078  20.960  0.00  0.00    +0.000 A 
ATOM     32  N   UNL     1       1.081  16.202  21.664  0.00  0.00    +0.000 NA
ATOM     33  C   UNL     1       0.149  17.019  21.160  0.00  0.00    +0.000 A 
ATOM     34  N   UNL     1      -0.551  16.819  20.032  0.00  0.00    +0.000 NA
ATOM     35  C   UNL     1      -0.289  15.671  19.367  0.00  0.00    +0.000 A 
ENDBRANCH  29  30
ENDBRANCH  20  29
ENDBRANCH   1  19
TORSDOF 7
ENDMDL
MODEL 8
REMARK VINA RESULT:      -7.1      7.417     10.244
REMARK  Name = 
REMARK  8 active torsions:
REMARK  status: ('A' for Active; 'I' for Inactive)
REMARK    1  A    between atoms: C_1  and  C_2
REMARK    2  A    between atoms: C_7  and  C_8
REMARK    3  A    between atoms: C_8  and  C_9
REMARK    4  A    between atoms: C_8  and  N_18
REMARK    5  A    between atoms: N_11  and  C_12
REMARK    6  A    between atoms: N_18  and  C_28
REMARK    7  A    between atoms: C_19  and  C_21
REMARK    8  A    between atoms: C_21  and  C_22
REMARK                            x       y       z     vdW  Elec       q    Type
REMARK                         _______ _______ _______ _____ _____    ______ ____
ROOT
ATOM      1  C   UNL     1       8.524  13.304  20.497  0.00  0.00    +0.000 C 
ENDROOT
BRANCH   1   8
ATOM      2  C   UNL     1       8.371  12.030  17.651  0.00  0.00    +0.000 C 
ATOM      3  C   UNL     1       9.646  12.206  18.435  0.00  0.00    +0.000 A 
ATOM      4  C   UNL     1      10.861  11.929  17.782  0.00  0.00    +0.000 A 
ATOM      5  C   UNL     1      12.054  11.870  18.494  0.00  0.00    +0.000 A 
ATOM      6  C   UNL     1      12.014  11.910  19.876  0.00  0.00    +0.000 A 
ATOM      7  C   UNL     1      10.805  12.151  20.523  0.00  0.00    +0.000 A 
ATOM      8  C   UNL     1       9.657  12.522  19.810  0.00  0.00    +0.000 A 
ENDBRANCH   1   8
BRANCH   1   9
ATOM      9  C   UNL     1       8.390  13.051  22.019  0.00  0.00    +0.000 C 
ATOM     10  O   UNL     1       8.194  11.931  22.488  0.00  0.00    +0.000 OA
ATOM     11  N   UNL     1       8.592  14.159  22.809  0.00  0.00    +0.000 N 
ATOM     12  H   UNL     1       8.462  15.046  22.353  0.00  0.00    +0.000 HD
BRANCH  11  13
ATOM     13  C   UNL     1       8.498  14.175  24.263  0.00  0.00    +0.000 C 
ATOM     14  C   UNL     1       9.281  15.390  24.796  0.00  0.00    +0.000 C 
ATOM     15  C   UNL     1       8.598  16.720  24.460  0.00  0.00    +0.000 C 
ATOM     16  C   UNL     1       7.141  16.745  24.903  0.00  0.00    +0.000 C 
ATOM     17  C   UNL     1       6.361  15.544  24.370  0.00  0.00    +0.000 C 
ATOM     18  C   UNL     1       7.037  14.216  24.728  0.00  0.00    +0.000 C 
ENDBRANCH  11  13
ENDBRANCH   1   9
BRANCH   1  19
ATOM     19  N   UNL     1       8.421  14.788  20.059  0.00  0.00    +0.000 N 
ATOM     20  C   UNL     1       7.321  15.671  20.098  0.00  0.00    +0.000 C 
ATOM     21  O   UNL     1       7.420  16.872  19.805  0.00  0.00    +0.000 OA
BRANCH  19  22
ATOM     22  C   UNL     1       9.646  15.314  19.474  0.00  0.00    +0.000 A 
ATOM     23  C   UNL     1      10.773  15.580  20.271  0.00  0.00    +0.000 A 
ATOM     24  C   UNL     1      11.989  15.984  19.706  0.00  0.00    +0.000 A 
ATOM     25  C   UNL     1      12.093  16.158  18.331  0.00  0.00    +0.000 A 
ATOM     26  C   UNL     1      10.980  15.927  17.535  0.00  0.00    +0.000 A 
ATOM     27  F   UNL     1      11.072  16.106  16.212  0.00  0.00    +0.000 F 
ATOM     28  C   UNL     1       9.769  15.513  18.087  0.00  0.00    +0.000 A 
ENDBRANCH  19  22
BRANCH  20  29
ATOM     29  C   UNL     1       5.896  15.184  20.289  0.00  0.00    +0.000 C 
BRANCH  29  30
ATOM     30  C   UNL     1       4.864  15.650  19.308  0.00  0.00    +0.000 A 
ATOM     31  C   UNL     1       4.053  16.730  19.617  0.00  0.00    +0.000 A 
ATOM     32  N   UNL     1       3.133  17.250  18.786  0.00  0.00    +0.000 NA
ATOM     33  C   UNL     1       3.033  16.652  17.593  0.00  0.00    +0.000 A 
ATOM     34  N   UNL     1       3.767  15.612  17.168  0.00  0.00    +0.000 NA
ATOM     35  C   UNL     1       4.675  15.128  18.045  0.00  0.00    +0.000 A 
ENDBRANCH  29  30
ENDBRANCH  20  29
ENDBRANCH   1  19
TORSDOF 7
ENDMDL
MODEL 9
REMARK VINA RESULT:      -7.1      1.338      1.939
REMARK  Name = 
REMARK  8 active torsions:
REMARK  status: ('A' for Active; 'I' for Inactive)
REMARK    1  A    between atoms: C_1  and  C_2
REMARK    2  A    between atoms: C_7  and  C_8
REMARK    3  A    between atoms: C_8  and  C_9
REMARK    4  A    between atoms: C_8  and  N_18
REMARK    5  A    between atoms: N_11  and  C_12
REMARK    6  A    between atoms: N_18  and  C_28
REMARK    7  A    between atoms: C_19  and  C_21
REMARK    8  A    between atoms: C_21  and  C_22
REMARK                            x       y       z     vdW  Elec       q    Type
REMARK                         _______ _______ _______ _____ _____    ______ ____
ROOT
ATOM      1  C   UNL     1      -0.966  11.198  20.676  0.00  0.00    +0.000 C 
ENDROOT
BRANCH   1   8
ATOM      2  C   UNL     1      -0.167   9.383  23.087  0.00  0.00    +0.000 C 
ATOM      3  C   UNL     1       0.309   9.173  21.673  0.00  0.00    +0.000 A 
ATOM      4  C   UNL     1       1.024   7.995  21.389  0.00  0.00    +0.000 A 
ATOM      5  C   UNL     1       1.667   7.830  20.167  0.00  0.00    +0.000 A 
ATOM      6  C   UNL     1       1.746   8.905  19.300  0.00  0.00    +0.000 A 
ATOM      7  C   UNL     1       1.065  10.082  19.597  0.00  0.00    +0.000 A 
ATOM      8  C   UNL     1       0.163  10.153  20.667  0.00  0.00    +0.000 A 
ENDBRANCH   1   8
BRANCH   1   9
ATOM      9  C   UNL     1      -1.036  12.066  21.957  0.00  0.00    +0.000 C 
ATOM     10  O   UNL     1      -0.037  12.565  22.472  0.00  0.00    +0.000 OA
ATOM     11  N   UNL     1      -2.307  12.306  22.423  0.00  0.00    +0.000 N 
ATOM     12  H   UNL     1      -3.010  11.650  22.127  0.00  0.00    +0.000 HD
BRANCH  11  13
ATOM     13  C   UNL     1      -2.625  13.076  23.619  0.00  0.00    +0.000 C 
ATOM     14  C   UNL     1      -2.697  14.568  23.243  0.00  0.00    +0.000 C 
ATOM     15  C   UNL     1      -3.914  14.895  22.371  0.00  0.00    +0.000 C 
ATOM     16  C   UNL     1      -5.214  14.403  22.994  0.00  0.00    +0.000 C 
ATOM     17  C   UNL     1      -5.148  12.923  23.362  0.00  0.00    +0.000 C 
ATOM     18  C   UNL     1      -3.941  12.605  24.252  0.00  0.00    +0.000 C 
ENDBRANCH  11  13
ENDBRANCH   1   9
BRANCH   1  19
ATOM     19  N   UNL     1      -1.127  11.970  19.341  0.00  0.00    +0.000 N 
ATOM     20  C   UNL     1      -0.355  13.023  18.804  0.00  0.00    +0.000 C 
ATOM     21  O   UNL     1      -0.548  13.476  17.666  0.00  0.00    +0.000 OA
BRANCH  19  22
ATOM     22  C   UNL     1      -2.289  11.564  18.564  0.00  0.00    +0.000 A 
ATOM     23  C   UNL     1      -2.171  10.629  17.521  0.00  0.00    +0.000 A 
ATOM     24  C   UNL     1      -3.296  10.151  16.838  0.00  0.00    +0.000 A 
ATOM     25  C   UNL     1      -4.562  10.624  17.167  0.00  0.00    +0.000 A 
ATOM     26  C   UNL     1      -4.689  11.568  18.175  0.00  0.00    +0.000 A 
ATOM     27  F   UNL     1      -5.905  12.035  18.485  0.00  0.00    +0.000 F 
ATOM     28  C   UNL     1      -3.577  12.041  18.868  0.00  0.00    +0.000 A 
ENDBRANCH  19  22
BRANCH  20  29
ATOM     29  C   UNL     1       0.620  13.826  19.645  0.00  0.00    +0.000 C 
BRANCH  29  30
ATOM     30  C   UNL     1       1.520  14.791  18.937  0.00  0.00    +0.000 A 
ATOM     31  C   UNL     1       2.690  14.341  18.347  0.00  0.00    +0.000 A 
ATOM     32  N   UNL     1       3.537  15.120  17.651  0.00  0.00    +0.000 NA
ATOM     33  C   UNL     1       3.181  16.406  17.547  0.00  0.00    +0.000 A 
ATOM     34  N   UNL     1       2.071  16.961  18.057  0.00  0.00    +0.000 NA
ATOM     35  C   UNL     1       1.257  16.133  18.750  0.00  0.00    +0.000 A 
ENDBRANCH  29  30
ENDBRANCH  20  29
ENDBRANCH   1  19
TORSDOF 7
ENDMDL
