MODEL 1
REMARK VINA RESULT:      -8.1      0.000      0.000
REMARK  Name = 
REMARK  10 active torsions:
REMARK  status: ('A' for Active; 'I' for Inactive)
REMARK    1  A    between atoms: C_1  and  C_2
REMARK    2  A    between atoms: C_5  and  O_6
REMARK    3  A    between atoms: O_6  and  C_7
REMARK    4  A    between atoms: C_7  and  C_8
REMARK    5  A    between atoms: C_18  and  C_19
REMARK    6  A    between atoms: N_21  and  C_22
REMARK    7  A    between atoms: C_22  and  C_23
REMARK    8  A    between atoms: C_22  and  C_24
REMARK    9  A    between atoms: C_28  and  C_29
REMARK   10  A    between atoms: C_29  and  O_31
REMARK                            x       y       z     vdW  Elec       q    Type
REMARK                         _______ _______ _______ _____ _____    ______ ____
ROOT
ATOM      1  C   UNL     1       0.091   8.800  21.798  0.00  0.00    +0.000 C 
ATOM      2  C   UNL     1       0.609  10.015  21.120  0.00  0.00    +0.000 A 
ATOM      3  N   UNL     1       0.566  11.234  21.756  0.00  0.00    +0.000 NA
ATOM      4  C   UNL     1       1.059  12.110  20.904  0.00  0.00    +0.000 A 
ATOM      5  C   UNL     1       1.245  13.543  20.986  0.00  0.00    +0.000 A 
ATOM      6  C   UNL     1       1.757  14.187  19.912  0.00  0.00    +0.000 A 
ATOM      7  C   UNL     1       2.097  13.501  18.682  0.00  0.00    +0.000 A 
ATOM      8  C   UNL     1       1.928  12.174  18.600  0.00  0.00    +0.000 A 
ATOM      9  N   UNL     1       1.433  11.471  19.707  0.00  0.00    +0.000 N 
ATOM     10  C   UNL     1       1.184  10.111  19.857  0.00  0.00    +0.000 A 
ENDROOT
BRANCH  10  11
ATOM     11  C   UNL     1       1.361   9.024  18.912  0.00  0.00    +0.000 C 
ATOM     12  O   UNL     1       0.809   9.012  17.813  0.00  0.00    +0.000 OA
ATOM     13  N   UNL     1       2.147   7.960  19.312  0.00  0.00    +0.000 N 
ATOM     14  H   UNL     1       2.355   7.855  20.293  0.00  0.00    +0.000 HD
BRANCH  13  15
ATOM     15  C   UNL     1       2.413   6.827  18.427  0.00  0.00    +0.000 C 
ATOM     16  C   UNL     1       3.754   7.024  17.707  0.00  0.00    +0.000 C 
BRANCH  15  17
ATOM     17  C   UNL     1       2.340   5.490  19.159  0.00  0.00    +0.000 A 
ATOM     18  C   UNL     1       1.632   5.341  20.363  0.00  0.00    +0.000 A 
ATOM     19  C   UNL     1       1.676   4.144  21.082  0.00  0.00    +0.000 A 
ATOM     20  C   UNL     1       2.416   3.066  20.602  0.00  0.00    +0.000 A 
ATOM     21  C   UNL     1       3.104   3.172  19.390  0.00  0.00    +0.000 A 
ATOM     22  C   UNL     1       3.060   4.378  18.667  0.00  0.00    +0.000 A 
BRANCH  21  23
ATOM     23  C   UNL     1       3.934   2.004  18.974  0.00  0.00    +0.000 C 
ATOM     24  O   UNL     1       3.695   1.348  17.975  0.00  0.00    +0.000 OA
BRANCH  23  25
ATOM     25  O   UNL     1       4.999   1.774  19.771  0.00  0.00    +0.000 OA
ATOM     26  H   UNL     1       5.013   0.902  20.212  0.00  0.00    +0.000 HD
ENDBRANCH  23  25
ENDBRANCH  21  23
ENDBRANCH  15  17
ENDBRANCH  13  15
ENDBRANCH  10  11
BRANCH   5  27
ATOM     27  O   UNL     1       0.860  14.143  22.187  0.00  0.00    +0.000 OA
BRANCH  27  28
ATOM     28  C   UNL     1      -0.459  14.711  22.197  0.00  0.00    +0.000 C 
BRANCH  28  29
ATOM     29  C   UNL     1      -1.413  14.068  23.220  0.00  0.00    +0.000 C 
ATOM     30  C   UNL     1      -2.257  12.983  22.522  0.00  0.00    +0.000 C 
ATOM     31  C   UNL     1      -3.139  12.232  23.514  0.00  0.00    +0.000 C 
ATOM     32  C   UNL     1      -4.030  13.180  24.312  0.00  0.00    +0.000 C 
ATOM     33  C   UNL     1      -3.244  14.336  24.931  0.00  0.00    +0.000 C 
ATOM     34  C   UNL     1      -2.358  15.060  23.909  0.00  0.00    +0.000 C 
ENDBRANCH  28  29
ENDBRANCH  27  28
ENDBRANCH   5  27
TORSDOF 8
ENDMDL
MODEL 2
REMARK VINA RESULT:      -8.1      3.037     10.107
REMARK  Name = 
REMARK  10 active torsions:
REMARK  status: ('A' for Active; 'I' for Inactive)
REMARK    1  A    between atoms: C_1  and  C_2
REMARK    2  A    between atoms: C_5  and  O_6
REMARK    3  A    between atoms: O_6  and  C_7
REMARK    4  A    between atoms: C_7  and  C_8
REMARK    5  A    between atoms: C_18  and  C_19
REMARK    6  A    between atoms: N_21  and  C_22
REMARK    7  A    between atoms: C_22  and  C_23
REMARK    8  A    between atoms: C_22  and  C_24
REMARK    9  A    between atoms: C_28  and  C_29
REMARK   10  A    between atoms: C_29  and  O_31
REMARK                            x       y       z     vdW  Elec       q    Type
REMARK                         _______ _______ _______ _____ _____    ______ ____
ROOT
ATOM      1  C   UNL     1      -0.001   9.435  23.306  0.00  0.00    +0.000 C 
ATOM      2  C   UNL     1       0.481   9.263  21.911  0.00  0.00    +0.000 A 
ATOM      3  N   UNL     1       1.214   8.152  21.566  0.00  0.00    +0.000 NA
ATOM      4  C   UNL     1       1.519   8.295  20.291  0.00  0.00    +0.000 A 
ATOM      5  C   UNL     1       2.290   7.477  19.381  0.00  0.00    +0.000 A 
ATOM      6  C   UNL     1       2.460   7.912  18.111  0.00  0.00    +0.000 A 
ATOM      7  C   UNL     1       1.923   9.174  17.643  0.00  0.00    +0.000 A 
ATOM      8  C   UNL     1       1.207   9.936  18.480  0.00  0.00    +0.000 A 
ATOM      9  N   UNL     1       0.983   9.497  19.793  0.00  0.00    +0.000 N 
ATOM     10  C   UNL     1       0.274  10.105  20.823  0.00  0.00    +0.000 A 
ENDROOT
BRANCH  10  11
ATOM     11  C   UNL     1      -0.435  11.371  20.843  0.00  0.00    +0.000 C 
ATOM     12  O   UNL     1       0.146  12.449  20.953  0.00  0.00    +0.000 OA
ATOM     13  N   UNL     1      -1.815  11.324  20.782  0.00  0.00    +0.000 N 
ATOM     14  H   UNL     1      -2.278  10.448  20.974  0.00  0.00    +0.000 HD
BRANCH  13  15
ATOM     15  C   UNL     1      -2.625  12.541  20.767  0.00  0.00    +0.000 C 
ATOM     16  C   UNL     1      -3.478  12.591  19.493  0.00  0.00    +0.000 C 
BRANCH  15  17
ATOM     17  C   UNL     1      -3.465  12.694  22.033  0.00  0.00    +0.000 A 
ATOM     18  C   UNL     1      -2.883  12.725  23.310  0.00  0.00    +0.000 A 
ATOM     19  C   UNL     1      -3.673  12.742  24.462  0.00  0.00    +0.000 A 
ATOM     20  C   UNL     1      -5.062  12.747  24.359  0.00  0.00    +0.000 A 
ATOM     21  C   UNL     1      -5.671  12.750  23.101  0.00  0.00    +0.000 A 
ATOM     22  C   UNL     1      -4.874  12.731  21.941  0.00  0.00    +0.000 A 
BRANCH  21  23
ATOM     23  C   UNL     1      -7.161  12.680  23.066  0.00  0.00    +0.000 C 
ATOM     24  O   UNL     1      -7.845  13.494  22.468  0.00  0.00    +0.000 OA
BRANCH  23  25
ATOM     25  O   UNL     1      -7.678  11.611  23.708  0.00  0.00    +0.000 OA
ATOM     26  H   UNL     1      -7.033  10.922  23.962  0.00  0.00    +0.000 HD
ENDBRANCH  23  25
ENDBRANCH  21  23
ENDBRANCH  15  17
ENDBRANCH  13  15
ENDBRANCH  10  11
BRANCH   5  27
ATOM     27  O   UNL     1       2.810   6.293  19.911  0.00  0.00    +0.000 OA
BRANCH  27  28
ATOM     28  C   UNL     1       2.648   5.127  19.089  0.00  0.00    +0.000 C 
BRANCH  28  29
ATOM     29  C   UNL     1       3.961   4.593  18.490  0.00  0.00    +0.000 C 
ATOM     30  C   UNL     1       5.149   5.384  19.075  0.00  0.00    +0.000 C 
ATOM     31  C   UNL     1       6.486   4.819  18.603  0.00  0.00    +0.000 C 
ATOM     32  C   UNL     1       6.572   4.761  17.081  0.00  0.00    +0.000 C 
ATOM     33  C   UNL     1       5.355   4.081  16.454  0.00  0.00    +0.000 C 
ATOM     34  C   UNL     1       4.029   4.662  16.959  0.00  0.00    +0.000 C 
ENDBRANCH  28  29
ENDBRANCH  27  28
ENDBRANCH   5  27
TORSDOF 8
ENDMDL
MODEL 3
REMARK VINA RESULT:      -8.1      1.238      2.474
REMARK  Name = 
REMARK  10 active torsions:
REMARK  status: ('A' for Active; 'I' for Inactive)
REMARK    1  A    between atoms: C_1  and  C_2
REMARK    2  A    between atoms: C_5  and  O_6
REMARK    3  A    between atoms: O_6  and  C_7
REMARK    4  A    between atoms: C_7  and  C_8
REMARK    5  A    between atoms: C_18  and  C_19
REMARK    6  A    between atoms: N_21  and  C_22
REMARK    7  A    between atoms: C_22  and  C_23
REMARK    8  A    between atoms: C_22  and  C_24
REMARK    9  A    between atoms: C_28  and  C_29
REMARK   10  A    between atoms: C_29  and  O_31
REMARK                            x       y       z     vdW  Elec       q    Type
REMARK                         _______ _______ _______ _____ _____    ______ ____
ROOT
ATOM      1  C   UNL     1       2.206  11.691  18.059  0.00  0.00    +0.000 C 
ATOM      2  C   UNL     1       1.439  11.124  19.198  0.00  0.00    +0.000 A 
ATOM      3  N   UNL     1       0.948  11.952  20.180  0.00  0.00    +0.000 NA
ATOM      4  C   UNL     1       0.351  11.169  21.056  0.00  0.00    +0.000 A 
ATOM      5  C   UNL     1      -0.323  11.448  22.306  0.00  0.00    +0.000 A 
ATOM      6  C   UNL     1      -0.818  10.408  23.015  0.00  0.00    +0.000 A 
ATOM      7  C   UNL     1      -0.675   9.032  22.583  0.00  0.00    +0.000 A 
ATOM      8  C   UNL     1      -0.053   8.767  21.427  0.00  0.00    +0.000 A 
ATOM      9  N   UNL     1       0.441   9.824  20.650  0.00  0.00    +0.000 N 
ATOM     10  C   UNL     1       1.105   9.794  19.428  0.00  0.00    +0.000 A 
ENDROOT
BRANCH  10  11
ATOM     11  C   UNL     1       1.483   8.661  18.604  0.00  0.00    +0.000 C 
ATOM     12  O   UNL     1       1.063   8.513  17.458  0.00  0.00    +0.000 OA
ATOM     13  N   UNL     1       2.309   7.710  19.175  0.00  0.00    +0.000 N 
ATOM     14  H   UNL     1       2.412   7.700  20.178  0.00  0.00    +0.000 HD
BRANCH  13  15
ATOM     15  C   UNL     1       2.773   6.545  18.423  0.00  0.00    +0.000 C 
ATOM     16  C   UNL     1       4.229   6.747  17.984  0.00  0.00    +0.000 C 
BRANCH  15  17
ATOM     17  C   UNL     1       2.575   5.243  19.194  0.00  0.00    +0.000 A 
ATOM     18  C   UNL     1       1.537   5.082  20.126  0.00  0.00    +0.000 A 
ATOM     19  C   UNL     1       1.444   3.930  20.910  0.00  0.00    +0.000 A 
ATOM     20  C   UNL     1       2.378   2.906  20.764  0.00  0.00    +0.000 A 
ATOM     21  C   UNL     1       3.403   3.022  19.821  0.00  0.00    +0.000 A 
ATOM     22  C   UNL     1       3.497   4.184  19.033  0.00  0.00    +0.000 A 
BRANCH  21  23
ATOM     23  C   UNL     1       4.410   1.922  19.771  0.00  0.00    +0.000 C 
ATOM     24  O   UNL     1       5.199   1.710  20.676  0.00  0.00    +0.000 OA
BRANCH  23  25
ATOM     25  O   UNL     1       4.332   1.154  18.664  0.00  0.00    +0.000 OA
ATOM     26  H   UNL     1       3.440   0.818  18.447  0.00  0.00    +0.000 HD
ENDBRANCH  23  25
ENDBRANCH  21  23
ENDBRANCH  15  17
ENDBRANCH  13  15
ENDBRANCH  10  11
BRANCH   5  27
ATOM     27  O   UNL     1      -0.391  12.792  22.678  0.00  0.00    +0.000 OA
BRANCH  27  28
ATOM     28  C   UNL     1      -1.538  13.508  22.197  0.00  0.00    +0.000 C 
BRANCH  28  29
ATOM     29  C   UNL     1      -2.883  12.940  22.683  0.00  0.00    +0.000 C 
ATOM     30  C   UNL     1      -4.030  13.574  21.869  0.00  0.00    +0.000 C 
ATOM     31  C   UNL     1      -5.380  12.961  22.230  0.00  0.00    +0.000 C 
ATOM     32  C   UNL     1      -5.663  13.053  23.727  0.00  0.00    +0.000 C 
ATOM     33  C   UNL     1      -4.500  12.536  24.573  0.00  0.00    +0.000 C 
ATOM     34  C   UNL     1      -3.157  13.162  24.176  0.00  0.00    +0.000 C 
ENDBRANCH  28  29
ENDBRANCH  27  28
ENDBRANCH   5  27
TORSDOF 8
ENDMDL
MODEL 4
REMARK VINA RESULT:      -7.8      2.499      9.652
REMARK  Name = 
REMARK  10 active torsions:
REMARK  status: ('A' for Active; 'I' for Inactive)
REMARK    1  A    between atoms: C_1  and  C_2
REMARK    2  A    between atoms: C_5  and  O_6
REMARK    3  A    between atoms: O_6  and  C_7
REMARK    4  A    between atoms: C_7  and  C_8
REMARK    5  A    between atoms: C_18  and  C_19
REMARK    6  A    between atoms: N_21  and  C_22
REMARK    7  A    between atoms: C_22  and  C_23
REMARK    8  A    between atoms: C_22  and  C_24
REMARK    9  A    between atoms: C_28  and  C_29
REMARK   10  A    between atoms: C_29  and  O_31
REMARK                            x       y       z     vdW  Elec       q    Type
REMARK                         _______ _______ _______ _____ _____    ______ ____
ROOT
ATOM      1  C   UNL     1      -0.225   9.712  23.344  0.00  0.00    +0.000 C 
ATOM      2  C   UNL     1       0.271   9.601  21.949  0.00  0.00    +0.000 A 
ATOM      3  N   UNL     1       1.005   8.504  21.561  0.00  0.00    +0.000 NA
ATOM      4  C   UNL     1       1.324   8.704  20.298  0.00  0.00    +0.000 A 
ATOM      5  C   UNL     1       2.103   7.925  19.360  0.00  0.00    +0.000 A 
ATOM      6  C   UNL     1       2.289   8.417  18.113  0.00  0.00    +0.000 A 
ATOM      7  C   UNL     1       1.761   9.700  17.697  0.00  0.00    +0.000 A 
ATOM      8  C   UNL     1       1.038  10.426  18.560  0.00  0.00    +0.000 A 
ATOM      9  N   UNL     1       0.798   9.929  19.849  0.00  0.00    +0.000 N 
ATOM     10  C   UNL     1       0.080  10.492  20.898  0.00  0.00    +0.000 A 
ENDROOT
BRANCH  10  11
ATOM     11  C   UNL     1      -0.626  11.759  20.968  0.00  0.00    +0.000 C 
ATOM     12  O   UNL     1      -1.837  11.847  20.776  0.00  0.00    +0.000 OA
ATOM     13  N   UNL     1       0.129  12.891  21.213  0.00  0.00    +0.000 N 
ATOM     14  H   UNL     1       1.129  12.841  21.089  0.00  0.00    +0.000 HD
BRANCH  13  15
ATOM     15  C   UNL     1      -0.486  14.212  21.331  0.00  0.00    +0.000 C 
ATOM     16  C   UNL     1      -0.303  14.753  22.755  0.00  0.00    +0.000 C 
BRANCH  15  17
ATOM     17  C   UNL     1       0.025  15.185  20.272  0.00  0.00    +0.000 A 
ATOM     18  C   UNL     1      -0.821  16.121  19.654  0.00  0.00    +0.000 A 
ATOM     19  C   UNL     1      -0.367  16.919  18.602  0.00  0.00    +0.000 A 
ATOM     20  C   UNL     1       0.949  16.810  18.158  0.00  0.00    +0.000 A 
ATOM     21  C   UNL     1       1.825  15.912  18.775  0.00  0.00    +0.000 A 
ATOM     22  C   UNL     1       1.366  15.107  19.833  0.00  0.00    +0.000 A 
BRANCH  21  23
ATOM     23  C   UNL     1       3.197  15.796  18.199  0.00  0.00    +0.000 C 
ATOM     24  O   UNL     1       4.095  16.572  18.476  0.00  0.00    +0.000 OA
BRANCH  23  25
ATOM     25  O   UNL     1       3.366  14.728  17.391  0.00  0.00    +0.000 OA
ATOM     26  H   UNL     1       3.754  14.922  16.515  0.00  0.00    +0.000 HD
ENDBRANCH  23  25
ENDBRANCH  21  23
ENDBRANCH  15  17
ENDBRANCH  13  15
ENDBRANCH  10  11
BRANCH   5  27
ATOM     27  O   UNL     1       2.613   6.716  19.841  0.00  0.00    +0.000 OA
BRANCH  27  28
ATOM     28  C   UNL     1       3.253   5.884  18.862  0.00  0.00    +0.000 C 
BRANCH  28  29
ATOM     29  C   UNL     1       2.485   4.591  18.537  0.00  0.00    +0.000 C 
ATOM     30  C   UNL     1       1.688   4.143  19.779  0.00  0.00    +0.000 C 
ATOM     31  C   UNL     1       0.815   2.928  19.479  0.00  0.00    +0.000 C 
ATOM     32  C   UNL     1       1.631   1.769  18.913  0.00  0.00    +0.000 C 
ATOM     33  C   UNL     1       2.521   2.198  17.746  0.00  0.00    +0.000 C 
ATOM     34  C   UNL     1       3.374   3.429  18.077  0.00  0.00    +0.000 C 
ENDBRANCH  28  29
ENDBRANCH  27  28
ENDBRANCH   5  27
TORSDOF 8
ENDMDL
MODEL 5
REMARK VINA RESULT:      -7.7      2.657     10.207
REMARK  Name = 
REMARK  10 active torsions:
REMARK  status: ('A' for Active; 'I' for Inactive)
REMARK    1  A    between atoms: C_1  and  C_2
REMARK    2  A    between atoms: C_5  and  O_6
REMARK    3  A    between atoms: O_6  and  C_7
REMARK    4  A    between atoms: C_7  and  C_8
REMARK    5  A    between atoms: C_18  and  C_19
REMARK    6  A    between atoms: N_21  and  C_22
REMARK    7  A    between atoms: C_22  and  C_23
REMARK    8  A    between atoms: C_22  and  C_24
REMARK    9  A    between atoms: C_28  and  C_29
REMARK   10  A    between atoms: C_29  and  O_31
REMARK                            x       y       z     vdW  Elec       q    Type
REMARK                         _______ _______ _______ _____ _____    ______ ____
ROOT
ATOM      1  C   UNL     1      -0.074   9.655  23.317  0.00  0.00    +0.000 C 
ATOM      2  C   UNL     1       0.403   9.416  21.931  0.00  0.00    +0.000 A 
ATOM      3  N   UNL     1       1.127   8.285  21.635  0.00  0.00    +0.000 NA
ATOM      4  C   UNL     1       1.430   8.368  20.355  0.00  0.00    +0.000 A 
ATOM      5  C   UNL     1       2.193   7.503  19.481  0.00  0.00    +0.000 A 
ATOM      6  C   UNL     1       2.364   7.879  18.193  0.00  0.00    +0.000 A 
ATOM      7  C   UNL     1       1.836   9.123  17.668  0.00  0.00    +0.000 A 
ATOM      8  C   UNL     1       1.128   9.928  18.472  0.00  0.00    +0.000 A 
ATOM      9  N   UNL     1       0.902   9.551  19.803  0.00  0.00    +0.000 N 
ATOM     10  C   UNL     1       0.201  10.210  20.806  0.00  0.00    +0.000 A 
ENDROOT
BRANCH  10  11
ATOM     11  C   UNL     1      -0.498  11.482  20.770  0.00  0.00    +0.000 C 
ATOM     12  O   UNL     1      -1.718  11.557  20.643  0.00  0.00    +0.000 OA
ATOM     13  N   UNL     1       0.271  12.628  20.837  0.00  0.00    +0.000 N 
ATOM     14  H   UNL     1       1.262  12.557  20.660  0.00  0.00    +0.000 HD
BRANCH  13  15
ATOM     15  C   UNL     1      -0.334  13.959  20.837  0.00  0.00    +0.000 C 
ATOM     16  C   UNL     1      -0.362  14.526  22.263  0.00  0.00    +0.000 C 
BRANCH  15  17
ATOM     17  C   UNL     1       0.346  14.905  19.851  0.00  0.00    +0.000 A 
ATOM     18  C   UNL     1       1.742  14.934  19.694  0.00  0.00    +0.000 A 
ATOM     19  C   UNL     1       2.355  15.888  18.878  0.00  0.00    +0.000 A 
ATOM     20  C   UNL     1       1.584  16.822  18.190  0.00  0.00    +0.000 A 
ATOM     21  C   UNL     1       0.190  16.797  18.300  0.00  0.00    +0.000 A 
ATOM     22  C   UNL     1      -0.427  15.836  19.123  0.00  0.00    +0.000 A 
BRANCH  21  23
ATOM     23  C   UNL     1      -0.567  17.871  17.594  0.00  0.00    +0.000 C 
ATOM     24  O   UNL     1      -1.606  18.338  18.028  0.00  0.00    +0.000 OA
BRANCH  23  25
ATOM     25  O   UNL     1       0.027  18.314  16.466  0.00  0.00    +0.000 OA
ATOM     26  H   UNL     1       0.881  17.892  16.248  0.00  0.00    +0.000 HD
ENDBRANCH  23  25
ENDBRANCH  21  23
ENDBRANCH  15  17
ENDBRANCH  13  15
ENDBRANCH  10  11
BRANCH   5  27
ATOM     27  O   UNL     1       2.703   6.340  20.063  0.00  0.00    +0.000 OA
BRANCH  27  28
ATOM     28  C   UNL     1       1.742   5.303  20.313  0.00  0.00    +0.000 C 
BRANCH  28  29
ATOM     29  C   UNL     1       2.078   3.959  19.642  0.00  0.00    +0.000 C 
ATOM     30  C   UNL     1       3.533   3.571  19.974  0.00  0.00    +0.000 C 
ATOM     31  C   UNL     1       3.883   2.189  19.429  0.00  0.00    +0.000 C 
ATOM     32  C   UNL     1       3.625   2.088  17.929  0.00  0.00    +0.000 C 
ATOM     33  C   UNL     1       2.226   2.571  17.544  0.00  0.00    +0.000 C 
ATOM     34  C   UNL     1       1.901   3.956  18.118  0.00  0.00    +0.000 C 
ENDBRANCH  28  29
ENDBRANCH  27  28
ENDBRANCH   5  27
TORSDOF 8
ENDMDL
MODEL 6
REMARK VINA RESULT:      -7.7      2.262     10.136
REMARK  Name = 
REMARK  10 active torsions:
REMARK  status: ('A' for Active; 'I' for Inactive)
REMARK    1  A    between atoms: C_1  and  C_2
REMARK    2  A    between atoms: C_5  and  O_6
REMARK    3  A    between atoms: O_6  and  C_7
REMARK    4  A    between atoms: C_7  and  C_8
REMARK    5  A    between atoms: C_18  and  C_19
REMARK    6  A    between atoms: N_21  and  C_22
REMARK    7  A    between atoms: C_22  and  C_23
REMARK    8  A    between atoms: C_22  and  C_24
REMARK    9  A    between atoms: C_28  and  C_29
REMARK   10  A    between atoms: C_29  and  O_31
REMARK                            x       y       z     vdW  Elec       q    Type
REMARK                         _______ _______ _______ _____ _____    ______ ____
ROOT
ATOM      1  C   UNL     1       0.191   9.439  23.293  0.00  0.00    +0.000 C 
ATOM      2  C   UNL     1       0.644   9.244  21.892  0.00  0.00    +0.000 A 
ATOM      3  N   UNL     1       1.288   8.084  21.529  0.00  0.00    +0.000 NA
ATOM      4  C   UNL     1       1.590   8.216  20.253  0.00  0.00    +0.000 A 
ATOM      5  C   UNL     1       2.288   7.351  19.327  0.00  0.00    +0.000 A 
ATOM      6  C   UNL     1       2.478   7.784  18.059  0.00  0.00    +0.000 A 
ATOM      7  C   UNL     1       2.033   9.088  17.608  0.00  0.00    +0.000 A 
ATOM      8  C   UNL     1       1.386   9.894  18.460  0.00  0.00    +0.000 A 
ATOM      9  N   UNL     1       1.141   9.460  19.771  0.00  0.00    +0.000 N 
ATOM     10  C   UNL     1       0.492  10.110  20.814  0.00  0.00    +0.000 A 
ENDROOT
BRANCH  10  11
ATOM     11  C   UNL     1      -0.119  11.426  20.853  0.00  0.00    +0.000 C 
ATOM     12  O   UNL     1       0.546  12.460  20.854  0.00  0.00    +0.000 OA
ATOM     13  N   UNL     1      -1.498  11.481  20.940  0.00  0.00    +0.000 N 
ATOM     14  H   UNL     1      -1.998  10.650  21.218  0.00  0.00    +0.000 HD
BRANCH  13  15
ATOM     15  C   UNL     1      -2.216  12.755  20.957  0.00  0.00    +0.000 C 
ATOM     16  C   UNL     1      -3.440  12.682  20.035  0.00  0.00    +0.000 C 
BRANCH  15  17
ATOM     17  C   UNL     1      -2.582  13.194  22.372  0.00  0.00    +0.000 A 
ATOM     18  C   UNL     1      -3.800  12.832  22.970  0.00  0.00    +0.000 A 
ATOM     19  C   UNL     1      -4.172  13.342  24.216  0.00  0.00    +0.000 A 
ATOM     20  C   UNL     1      -3.324  14.213  24.897  0.00  0.00    +0.000 A 
ATOM     21  C   UNL     1      -2.090  14.566  24.344  0.00  0.00    +0.000 A 
ATOM     22  C   UNL     1      -1.717  14.052  23.088  0.00  0.00    +0.000 A 
BRANCH  21  23
ATOM     23  C   UNL     1      -1.267  15.559  25.093  0.00  0.00    +0.000 C 
ATOM     24  O   UNL     1      -1.627  16.051  26.149  0.00  0.00    +0.000 OA
BRANCH  23  25
ATOM     25  O   UNL     1      -0.070  15.823  24.527  0.00  0.00    +0.000 OA
ATOM     26  H   UNL     1       0.529  16.388  25.054  0.00  0.00    +0.000 HD
ENDBRANCH  23  25
ENDBRANCH  21  23
ENDBRANCH  15  17
ENDBRANCH  13  15
ENDBRANCH  10  11
BRANCH   5  27
ATOM     27  O   UNL     1       2.721   6.126  19.841  0.00  0.00    +0.000 OA
BRANCH  27  28
ATOM     28  C   UNL     1       2.700   5.028  18.915  0.00  0.00    +0.000 C 
BRANCH  28  29
ATOM     29  C   UNL     1       4.092   4.590  18.428  0.00  0.00    +0.000 C 
ATOM     30  C   UNL     1       5.172   5.431  19.139  0.00  0.00    +0.000 C 
ATOM     31  C   UNL     1       6.578   4.960  18.780  0.00  0.00    +0.000 C 
ATOM     32  C   UNL     1       6.806   4.952  17.271  0.00  0.00    +0.000 C 
ATOM     33  C   UNL     1       5.694   4.220  16.518  0.00  0.00    +0.000 C 
ATOM     34  C   UNL     1       4.295   4.707  16.912  0.00  0.00    +0.000 C 
ENDBRANCH  28  29
ENDBRANCH  27  28
ENDBRANCH   5  27
TORSDOF 8
ENDMDL
MODEL 7
REMARK VINA RESULT:      -7.7      2.906     10.106
REMARK  Name = 
REMARK  10 active torsions:
REMARK  status: ('A' for Active; 'I' for Inactive)
REMARK    1  A    between atoms: C_1  and  C_2
REMARK    2  A    between atoms: C_5  and  O_6
REMARK    3  A    between atoms: O_6  and  C_7
REMARK    4  A    between atoms: C_7  and  C_8
REMARK    5  A    between atoms: C_18  and  C_19
REMARK    6  A    between atoms: N_21  and  C_22
REMARK    7  A    between atoms: C_22  and  C_23
REMARK    8  A    between atoms: C_22  and  C_24
REMARK    9  A    between atoms: C_28  and  C_29
REMARK   10  A    between atoms: C_29  and  O_31
REMARK                            x       y       z     vdW  Elec       q    Type
REMARK                         _______ _______ _______ _____ _____    ______ ____
ROOT
ATOM      1  C   UNL     1      -0.348   9.571  23.376  0.00  0.00    +0.000 C 
ATOM      2  C   UNL     1       0.197   9.692  22.000  0.00  0.00    +0.000 A 
ATOM      3  N   UNL     1       0.814   8.617  21.404  0.00  0.00    +0.000 NA
ATOM      4  C   UNL     1       1.214   9.034  20.219  0.00  0.00    +0.000 A 
ATOM      5  C   UNL     1       1.940   8.376  19.154  0.00  0.00    +0.000 A 
ATOM      6  C   UNL     1       2.241   9.090  18.044  0.00  0.00    +0.000 A 
ATOM      7  C   UNL     1       1.888  10.488  17.899  0.00  0.00    +0.000 A 
ATOM      8  C   UNL     1       1.215  11.102  18.881  0.00  0.00    +0.000 A 
ATOM      9  N   UNL     1       0.857  10.382  20.029  0.00  0.00    +0.000 N 
ATOM     10  C   UNL     1       0.162  10.799  21.158  0.00  0.00    +0.000 A 
ENDROOT
BRANCH  10  11
ATOM     11  C   UNL     1      -0.393  12.102  21.480  0.00  0.00    +0.000 C 
ATOM     12  O   UNL     1       0.260  12.969  22.057  0.00  0.00    +0.000 OA
ATOM     13  N   UNL     1      -1.718  12.323  21.155  0.00  0.00    +0.000 N 
ATOM     14  H   UNL     1      -2.304  11.528  20.947  0.00  0.00    +0.000 HD
BRANCH  13  15
ATOM     15  C   UNL     1      -2.366  13.608  21.409  0.00  0.00    +0.000 C 
ATOM     16  C   UNL     1      -1.877  14.655  20.400  0.00  0.00    +0.000 C 
BRANCH  15  17
ATOM     17  C   UNL     1      -3.888  13.495  21.434  0.00  0.00    +0.000 A 
ATOM     18  C   UNL     1      -4.681  13.921  20.356  0.00  0.00    +0.000 A 
ATOM     19  C   UNL     1      -6.075  13.923  20.443  0.00  0.00    +0.000 A 
ATOM     20  C   UNL     1      -6.705  13.481  21.605  0.00  0.00    +0.000 A 
ATOM     21  C   UNL     1      -5.944  13.018  22.682  0.00  0.00    +0.000 A 
ATOM     22  C   UNL     1      -4.539  13.018  22.594  0.00  0.00    +0.000 A 
BRANCH  21  23
ATOM     23  C   UNL     1      -6.681  12.630  23.920  0.00  0.00    +0.000 C 
ATOM     24  O   UNL     1      -6.877  11.468  24.233  0.00  0.00    +0.000 OA
BRANCH  23  25
ATOM     25  O   UNL     1      -7.064  13.675  24.683  0.00  0.00    +0.000 OA
ATOM     26  H   UNL     1      -6.663  14.535  24.449  0.00  0.00    +0.000 HD
ENDBRANCH  23  25
ENDBRANCH  21  23
ENDBRANCH  15  17
ENDBRANCH  13  15
ENDBRANCH  10  11
BRANCH   5  27
ATOM     27  O   UNL     1       2.281   7.040  19.378  0.00  0.00    +0.000 OA
BRANCH  27  28
ATOM     28  C   UNL     1       2.570   6.272  18.200  0.00  0.00    +0.000 C 
BRANCH  28  29
ATOM     29  C   UNL     1       2.663   4.756  18.445  0.00  0.00    +0.000 C 
ATOM     30  C   UNL     1       3.701   4.144  17.481  0.00  0.00    +0.000 C 
ATOM     31  C   UNL     1       3.919   2.660  17.759  0.00  0.00    +0.000 C 
ATOM     32  C   UNL     1       2.610   1.876  17.714  0.00  0.00    +0.000 C 
ATOM     33  C   UNL     1       1.518   2.514  18.572  0.00  0.00    +0.000 C 
ATOM     34  C   UNL     1       1.334   4.008  18.278  0.00  0.00    +0.000 C 
ENDBRANCH  28  29
ENDBRANCH  27  28
ENDBRANCH   5  27
TORSDOF 8
ENDMDL
MODEL 8
REMARK VINA RESULT:      -7.7      2.920      9.704
REMARK  Name = 
REMARK  10 active torsions:
REMARK  status: ('A' for Active; 'I' for Inactive)
REMARK    1  A    between atoms: C_1  and  C_2
REMARK    2  A    between atoms: C_5  and  O_6
REMARK    3  A    between atoms: O_6  and  C_7
REMARK    4  A    between atoms: C_7  and  C_8
REMARK    5  A    between atoms: C_18  and  C_19
REMARK    6  A    between atoms: N_21  and  C_22
REMARK    7  A    between atoms: C_22  and  C_23
REMARK    8  A    between atoms: C_22  and  C_24
REMARK    9  A    between atoms: C_28  and  C_29
REMARK   10  A    between atoms: C_29  and  O_31
REMARK                            x       y       z     vdW  Elec       q    Type
REMARK                         _______ _______ _______ _____ _____    ______ ____
ROOT
ATOM      1  C   UNL     1       2.515   9.465  17.724  0.00  0.00    +0.000 C 
ATOM      2  C   UNL     1       2.413   8.174  18.449  0.00  0.00    +0.000 A 
ATOM      3  N   UNL     1       2.908   7.022  17.883  0.00  0.00    +0.000 NA
ATOM      4  C   UNL     1       2.647   6.052  18.737  0.00  0.00    +0.000 A 
ATOM      5  C   UNL     1       2.895   4.627  18.690  0.00  0.00    +0.000 A 
ATOM      6  C   UNL     1       2.472   3.867  19.726  0.00  0.00    +0.000 A 
ATOM      7  C   UNL     1       1.760   4.422  20.860  0.00  0.00    +0.000 A 
ATOM      8  C   UNL     1       1.527   5.741  20.909  0.00  0.00    +0.000 A 
ATOM      9  N   UNL     1       1.984   6.562  19.868  0.00  0.00    +0.000 N 
ATOM     10  C   UNL     1       1.869   7.938  19.708  0.00  0.00    +0.000 A 
ENDROOT
BRANCH  10  11
ATOM     11  C   UNL     1       1.240   8.926  20.567  0.00  0.00    +0.000 C 
ATOM     12  O   UNL     1       1.311   8.870  21.793  0.00  0.00    +0.000 OA
ATOM     13  N   UNL     1       0.505   9.922  19.953  0.00  0.00    +0.000 N 
ATOM     14  H   UNL     1       0.227   9.795  18.991  0.00  0.00    +0.000 HD
BRANCH  13  15
ATOM     15  C   UNL     1      -0.145  10.981  20.722  0.00  0.00    +0.000 C 
ATOM     16  C   UNL     1       0.848  12.118  20.998  0.00  0.00    +0.000 C 
BRANCH  15  17
ATOM     17  C   UNL     1      -1.425  11.480  20.056  0.00  0.00    +0.000 A 
ATOM     18  C   UNL     1      -2.394  12.209  20.764  0.00  0.00    +0.000 A 
ATOM     19  C   UNL     1      -3.613  12.551  20.172  0.00  0.00    +0.000 A 
ATOM     20  C   UNL     1      -3.878  12.187  18.854  0.00  0.00    +0.000 A 
ATOM     21  C   UNL     1      -2.919  11.491  18.113  0.00  0.00    +0.000 A 
ATOM     22  C   UNL     1      -1.693  11.144  18.710  0.00  0.00    +0.000 A 
BRANCH  21  23
ATOM     23  C   UNL     1      -3.300  11.069  16.733  0.00  0.00    +0.000 C 
ATOM     24  O   UNL     1      -4.458  11.025  16.353  0.00  0.00    +0.000 OA
BRANCH  23  25
ATOM     25  O   UNL     1      -2.249  10.794  15.932  0.00  0.00    +0.000 OA
ATOM     26  H   UNL     1      -1.409  11.228  16.177  0.00  0.00    +0.000 HD
ENDBRANCH  23  25
ENDBRANCH  21  23
ENDBRANCH  15  17
ENDBRANCH  13  15
ENDBRANCH  10  11
BRANCH   5  27
ATOM     27  O   UNL     1       3.552   4.156  17.551  0.00  0.00    +0.000 OA
BRANCH  27  28
ATOM     28  C   UNL     1       4.813   3.513  17.789  0.00  0.00    +0.000 C 
BRANCH  28  29
ATOM     29  C   UNL     1       6.030   4.445  17.653  0.00  0.00    +0.000 C 
ATOM     30  C   UNL     1       6.331   5.097  19.018  0.00  0.00    +0.000 C 
ATOM     31  C   UNL     1       7.600   5.942  18.969  0.00  0.00    +0.000 C 
ATOM     32  C   UNL     1       7.537   6.998  17.868  0.00  0.00    +0.000 C 
ATOM     33  C   UNL     1       7.131   6.407  16.518  0.00  0.00    +0.000 C 
ATOM     34  C   UNL     1       5.861   5.552  16.605  0.00  0.00    +0.000 C 
ENDBRANCH  28  29
ENDBRANCH  27  28
ENDBRANCH   5  27
TORSDOF 8
ENDMDL
MODEL 9
REMARK VINA RESULT:      -7.6      0.833      1.139
REMARK  Name = 
REMARK  10 active torsions:
REMARK  status: ('A' for Active; 'I' for Inactive)
REMARK    1  A    between atoms: C_1  and  C_2
REMARK    2  A    between atoms: C_5  and  O_6
REMARK    3  A    between atoms: O_6  and  C_7
REMARK    4  A    between atoms: C_7  and  C_8
REMARK    5  A    between atoms: C_18  and  C_19
REMARK    6  A    between atoms: N_21  and  C_22
REMARK    7  A    between atoms: C_22  and  C_23
REMARK    8  A    between atoms: C_22  and  C_24
REMARK    9  A    between atoms: C_28  and  C_29
REMARK   10  A    between atoms: C_29  and  O_31
REMARK                            x       y       z     vdW  Elec       q    Type
REMARK                         _______ _______ _______ _____ _____    ______ ____
ROOT
ATOM      1  C   UNL     1      -0.034   8.951  21.795  0.00  0.00    +0.000 C 
ATOM      2  C   UNL     1       0.489  10.182  21.150  0.00  0.00    +0.000 A 
ATOM      3  N   UNL     1       0.446  11.384  21.817  0.00  0.00    +0.000 NA
ATOM      4  C   UNL     1       0.945  12.281  20.990  0.00  0.00    +0.000 A 
ATOM      5  C   UNL     1       1.134  13.711  21.110  0.00  0.00    +0.000 A 
ATOM      6  C   UNL     1       1.652  14.381  20.055  0.00  0.00    +0.000 A 
ATOM      7  C   UNL     1       1.997  13.726  18.809  0.00  0.00    +0.000 A 
ATOM      8  C   UNL     1       1.825  12.403  18.692  0.00  0.00    +0.000 A 
ATOM      9  N   UNL     1       1.323  11.672  19.778  0.00  0.00    +0.000 N 
ATOM     10  C   UNL     1       1.071  10.310  19.892  0.00  0.00    +0.000 A 
ENDROOT
BRANCH  10  11
ATOM     11  C   UNL     1       1.250   9.247  18.920  0.00  0.00    +0.000 C 
ATOM     12  O   UNL     1       0.673   9.246  17.834  0.00  0.00    +0.000 OA
ATOM     13  N   UNL     1       2.066   8.191  19.280  0.00  0.00    +0.000 N 
ATOM     14  H   UNL     1       2.297   8.070  20.255  0.00  0.00    +0.000 HD
BRANCH  13  15
ATOM     15  C   UNL     1       2.336   7.083  18.365  0.00  0.00    +0.000 C 
ATOM     16  C   UNL     1       3.693   7.285  17.679  0.00  0.00    +0.000 C 
BRANCH  15  17
ATOM     17  C   UNL     1       2.232   5.725  19.054  0.00  0.00    +0.000 A 
ATOM     18  C   UNL     1       1.951   5.608  20.425  0.00  0.00    +0.000 A 
ATOM     19  C   UNL     1       1.979   4.365  21.063  0.00  0.00    +0.000 A 
ATOM     20  C   UNL     1       2.273   3.212  20.338  0.00  0.00    +0.000 A 
ATOM     21  C   UNL     1       2.523   3.292  18.965  0.00  0.00    +0.000 A 
ATOM     22  C   UNL     1       2.496   4.545  18.324  0.00  0.00    +0.000 A 
BRANCH  21  23
ATOM     23  C   UNL     1       2.902   2.029  18.268  0.00  0.00    +0.000 C 
ATOM     24  O   UNL     1       3.808   1.309  18.654  0.00  0.00    +0.000 OA
BRANCH  23  25
ATOM     25  O   UNL     1       2.123   1.730  17.207  0.00  0.00    +0.000 OA
ATOM     26  H   UNL     1       1.160   1.816  17.356  0.00  0.00    +0.000 HD
ENDBRANCH  23  25
ENDBRANCH  21  23
ENDBRANCH  15  17
ENDBRANCH  13  15
ENDBRANCH  10  11
BRANCH   5  27
ATOM     27  O   UNL     1       0.745  14.281  22.324  0.00  0.00    +0.000 OA
BRANCH  27  28
ATOM     28  C   UNL     1      -0.563  14.873  22.336  0.00  0.00    +0.000 C 
BRANCH  28  29
ATOM     29  C   UNL     1      -1.715  13.852  22.327  0.00  0.00    +0.000 C 
ATOM     30  C   UNL     1      -2.724  14.230  21.223  0.00  0.00    +0.000 C 
ATOM     31  C   UNL     1      -3.829  13.186  21.092  0.00  0.00    +0.000 C 
ATOM     32  C   UNL     1      -4.544  12.945  22.419  0.00  0.00    +0.000 C 
ATOM     33  C   UNL     1      -3.568  12.676  23.565  0.00  0.00    +0.000 C 
ATOM     34  C   UNL     1      -2.464  13.736  23.661  0.00  0.00    +0.000 C 
ENDBRANCH  28  29
ENDBRANCH  27  28
ENDBRANCH   5  27
TORSDOF 8
ENDMDL
