MODEL 1
REMARK VINA RESULT:      -7.3      0.000      0.000
REMARK  Name = 
REMARK  10 active torsions:
REMARK  status: ('A' for Active; 'I' for Inactive)
REMARK    1  A    between atoms: C_1  and  C_2
REMARK    2  A    between atoms: C_4  and  C_5
REMARK    3  A    between atoms: C_8  and  C_9
REMARK    4  A    between atoms: C_9  and  C_10
REMARK    5  A    between atoms: C_9  and  C_11
REMARK    6  A    between atoms: C_9  and  C_12
REMARK    7  A    between atoms: C_16  and  C_17
REMARK    8  A    between atoms: N_22  and  C_23
REMARK    9  A    between atoms: C_23  and  C_24
REMARK   10  A    between atoms: C_24  and  N_25
REMARK                            x       y       z     vdW  Elec       q    Type
REMARK                         _______ _______ _______ _____ _____    ______ ____
ROOT
ATOM      1  C   UNL     1       3.363   4.148  19.783  0.00  0.00    +0.000 C 
ATOM      2  C   UNL     1       3.337   5.522  19.212  0.00  0.00    +0.000 A 
ATOM      3  N   UNL     1       2.357   6.387  19.671  0.00  0.00    +0.000 NA
ATOM      4  C   UNL     1       2.391   7.526  19.012  0.00  0.00    +0.000 A 
ATOM      5  S   UNL     1       3.693   7.669  17.906  0.00  0.00    +0.000 S 
ATOM      6  C   UNL     1       4.149   6.033  18.207  0.00  0.00    +0.000 A 
ENDROOT
BRANCH   6   7
ATOM      7  C   UNL     1       5.215   5.383  17.435  0.00  0.00    +0.000 A 
ATOM      8  C   UNL     1       6.431   5.044  17.991  0.00  0.00    +0.000 A 
ATOM      9  C   UNL     1       7.363   4.553  17.119  0.00  0.00    +0.000 A 
ATOM     10  N   UNL     1       7.136   4.396  15.806  0.00  0.00    +0.000 NA
ATOM     11  C   UNL     1       5.922   4.734  15.352  0.00  0.00    +0.000 A 
ATOM     12  N   UNL     1       5.623   4.569  14.011  0.00  0.00    +0.000 N 
ATOM     13  N   UNL     1       4.945   5.212  16.123  0.00  0.00    +0.000 NA
ATOM     14  H   UNL     1       4.616   4.551  13.893  0.00  0.00    +0.000 HD
BRANCH  12  15
ATOM     15  C   UNL     1       6.361   3.537  13.296  0.00  0.00    +0.000 C 
BRANCH  15  16
ATOM     16  C   UNL     1       5.662   3.090  11.995  0.00  0.00    +0.000 C 
BRANCH  16  17
ATOM     17  N   UNL     1       6.020   1.720  11.604  0.00  0.00    +0.000 NA
ATOM     18  H   UNL     1       5.955   1.122  12.428  0.00  0.00    +0.000 HD
ATOM     19  H   UNL     1       7.003   1.705  11.332  0.00  0.00    +0.000 HD
ENDBRANCH  16  17
ENDBRANCH  15  16
ENDBRANCH  12  15
ENDBRANCH   6   7
BRANCH   4  20
ATOM     20  C   UNL     1       1.426   8.613  19.217  0.00  0.00    +0.000 A 
ATOM     21  C   UNL     1       1.018   9.358  18.107  0.00  0.00    +0.000 A 
ATOM     22  C   UNL     1       0.132  10.429  18.243  0.00  0.00    +0.000 A 
ATOM     23  C   UNL     1      -0.377  10.807  19.495  0.00  0.00    +0.000 A 
ATOM     24  C   UNL     1       0.053  10.067  20.611  0.00  0.00    +0.000 A 
ATOM     25  C   UNL     1       0.937   8.984  20.475  0.00  0.00    +0.000 A 
BRANCH  23  26
ATOM     26  C   UNL     1      -1.382  11.963  19.652  0.00  0.00    +0.000 C 
ATOM     27  C   UNL     1      -0.812  13.322  19.184  0.00  0.00    +0.000 C 
ATOM     28  C   UNL     1      -2.638  11.670  18.805  0.00  0.00    +0.000 C 
ATOM     29  C   UNL     1      -1.804  12.132  21.127  0.00  0.00    +0.000 C 
ENDBRANCH  23  26
ENDBRANCH   4  20
TORSDOF 6
ENDMDL
MODEL 2
REMARK VINA RESULT:      -7.2      4.548     10.938
REMARK  Name = 
REMARK  10 active torsions:
REMARK  status: ('A' for Active; 'I' for Inactive)
REMARK    1  A    between atoms: C_1  and  C_2
REMARK    2  A    between atoms: C_4  and  C_5
REMARK    3  A    between atoms: C_8  and  C_9
REMARK    4  A    between atoms: C_9  and  C_10
REMARK    5  A    between atoms: C_9  and  C_11
REMARK    6  A    between atoms: C_9  and  C_12
REMARK    7  A    between atoms: C_16  and  C_17
REMARK    8  A    between atoms: N_22  and  C_23
REMARK    9  A    between atoms: C_23  and  C_24
REMARK   10  A    between atoms: C_24  and  N_25
REMARK                            x       y       z     vdW  Elec       q    Type
REMARK                         _______ _______ _______ _____ _____    ______ ____
ROOT
ATOM      1  C   UNL     1      -1.854  12.016  18.685  0.00  0.00    +0.000 C 
ATOM      2  C   UNL     1      -0.787  11.323  19.456  0.00  0.00    +0.000 A 
ATOM      3  N   UNL     1      -0.040  10.363  18.792  0.00  0.00    +0.000 NA
ATOM      4  C   UNL     1       0.795   9.767  19.618  0.00  0.00    +0.000 A 
ATOM      5  S   UNL     1       0.826  10.427  21.199  0.00  0.00    +0.000 S 
ATOM      6  C   UNL     1      -0.484  11.477  20.804  0.00  0.00    +0.000 A 
ENDROOT
BRANCH   6   7
ATOM      7  C   UNL     1      -1.120  12.322  21.821  0.00  0.00    +0.000 A 
ATOM      8  C   UNL     1      -0.529  13.470  22.305  0.00  0.00    +0.000 A 
ATOM      9  C   UNL     1      -1.189  14.086  23.332  0.00  0.00    +0.000 A 
ATOM     10  N   UNL     1      -2.337  13.629  23.852  0.00  0.00    +0.000 NA
ATOM     11  C   UNL     1      -2.851  12.516  23.313  0.00  0.00    +0.000 A 
ATOM     12  N   UNL     1      -4.048  12.013  23.792  0.00  0.00    +0.000 N 
ATOM     13  N   UNL     1      -2.289  11.850  22.303  0.00  0.00    +0.000 NA
ATOM     14  H   UNL     1      -4.454  11.397  23.097  0.00  0.00    +0.000 HD
BRANCH  12  15
ATOM     15  C   UNL     1      -4.964  12.968  24.401  0.00  0.00    +0.000 C 
BRANCH  15  16
ATOM     16  C   UNL     1      -6.445  12.655  24.102  0.00  0.00    +0.000 C 
BRANCH  16  17
ATOM     17  N   UNL     1      -6.676  12.323  22.690  0.00  0.00    +0.000 NA
ATOM     18  H   UNL     1      -7.439  12.904  22.342  0.00  0.00    +0.000 HD
ATOM     19  H   UNL     1      -7.017  11.363  22.633  0.00  0.00    +0.000 HD
ENDBRANCH  16  17
ENDBRANCH  15  16
ENDBRANCH  12  15
ENDBRANCH   6   7
BRANCH   4  20
ATOM     20  C   UNL     1       1.665   8.650  19.227  0.00  0.00    +0.000 A 
ATOM     21  C   UNL     1       2.293   8.702  17.980  0.00  0.00    +0.000 A 
ATOM     22  C   UNL     1       3.102   7.654  17.535  0.00  0.00    +0.000 A 
ATOM     23  C   UNL     1       3.311   6.505  18.313  0.00  0.00    +0.000 A 
ATOM     24  C   UNL     1       2.660   6.449  19.560  0.00  0.00    +0.000 A 
ATOM     25  C   UNL     1       1.854   7.506  20.012  0.00  0.00    +0.000 A 
BRANCH  23  26
ATOM     26  C   UNL     1       4.229   5.361  17.849  0.00  0.00    +0.000 C 
ATOM     27  C   UNL     1       3.456   4.058  17.542  0.00  0.00    +0.000 C 
ATOM     28  C   UNL     1       4.961   5.781  16.557  0.00  0.00    +0.000 C 
ATOM     29  C   UNL     1       5.279   5.022  18.928  0.00  0.00    +0.000 C 
ENDBRANCH  23  26
ENDBRANCH   4  20
TORSDOF 6
ENDMDL
MODEL 3
REMARK VINA RESULT:      -7.2      1.217      1.363
REMARK  Name = 
REMARK  10 active torsions:
REMARK  status: ('A' for Active; 'I' for Inactive)
REMARK    1  A    between atoms: C_1  and  C_2
REMARK    2  A    between atoms: C_4  and  C_5
REMARK    3  A    between atoms: C_8  and  C_9
REMARK    4  A    between atoms: C_9  and  C_10
REMARK    5  A    between atoms: C_9  and  C_11
REMARK    6  A    between atoms: C_9  and  C_12
REMARK    7  A    between atoms: C_16  and  C_17
REMARK    8  A    between atoms: N_22  and  C_23
REMARK    9  A    between atoms: C_23  and  C_24
REMARK   10  A    between atoms: C_24  and  N_25
REMARK                            x       y       z     vdW  Elec       q    Type
REMARK                         _______ _______ _______ _____ _____    ______ ____
ROOT
ATOM      1  C   UNL     1       2.755   3.332  17.734  0.00  0.00    +0.000 C 
ATOM      2  C   UNL     1       3.118   4.762  17.931  0.00  0.00    +0.000 A 
ATOM      3  N   UNL     1       2.243   5.548  18.665  0.00  0.00    +0.000 NA
ATOM      4  C   UNL     1       2.639   6.804  18.674  0.00  0.00    +0.000 A 
ATOM      5  S   UNL     1       4.156   7.078  17.926  0.00  0.00    +0.000 S 
ATOM      6  C   UNL     1       4.215   5.435  17.406  0.00  0.00    +0.000 A 
ENDROOT
BRANCH   6   7
ATOM      7  C   UNL     1       5.281   4.951  16.522  0.00  0.00    +0.000 A 
ATOM      8  C   UNL     1       6.594   4.850  16.931  0.00  0.00    +0.000 A 
ATOM      9  C   UNL     1       7.490   4.495  15.960  0.00  0.00    +0.000 A 
ATOM     10  N   UNL     1       7.143   4.250  14.688  0.00  0.00    +0.000 NA
ATOM     11  C   UNL     1       5.843   4.355  14.379  0.00  0.00    +0.000 A 
ATOM     12  N   UNL     1       5.423   4.089  13.088  0.00  0.00    +0.000 N 
ATOM     13  N   UNL     1       4.894   4.685  15.255  0.00  0.00    +0.000 NA
ATOM     14  H   UNL     1       4.429   3.891  13.094  0.00  0.00    +0.000 HD
BRANCH  12  15
ATOM     15  C   UNL     1       6.244   3.173  12.307  0.00  0.00    +0.000 C 
BRANCH  15  16
ATOM     16  C   UNL     1       5.411   2.131  11.532  0.00  0.00    +0.000 C 
BRANCH  16  17
ATOM     17  N   UNL     1       6.139   0.873  11.319  0.00  0.00    +0.000 NA
ATOM     18  H   UNL     1       5.562   0.104  11.661  0.00  0.00    +0.000 HD
ATOM     19  H   UNL     1       6.970   0.874  11.910  0.00  0.00    +0.000 HD
ENDBRANCH  16  17
ENDBRANCH  15  16
ENDBRANCH  12  15
ENDBRANCH   6   7
BRANCH   4  20
ATOM     20  C   UNL     1       1.878   7.890  19.303  0.00  0.00    +0.000 A 
ATOM     21  C   UNL     1       1.601   9.032  18.546  0.00  0.00    +0.000 A 
ATOM     22  C   UNL     1       0.914  10.116  19.098  0.00  0.00    +0.000 A 
ATOM     23  C   UNL     1       0.482  10.108  20.433  0.00  0.00    +0.000 A 
ATOM     24  C   UNL     1       0.780   8.965  21.197  0.00  0.00    +0.000 A 
ATOM     25  C   UNL     1       1.463   7.871  20.640  0.00  0.00    +0.000 A 
BRANCH  23  26
ATOM     26  C   UNL     1      -0.307  11.281  21.041  0.00  0.00    +0.000 C 
ATOM     27  C   UNL     1       0.530  12.577  21.148  0.00  0.00    +0.000 C 
ATOM     28  C   UNL     1      -1.532  11.591  20.156  0.00  0.00    +0.000 C 
ATOM     29  C   UNL     1      -0.797  10.939  22.465  0.00  0.00    +0.000 C 
ENDBRANCH  23  26
ENDBRANCH   4  20
TORSDOF 6
ENDMDL
MODEL 4
REMARK VINA RESULT:      -7.1      1.868      3.029
REMARK  Name = 
REMARK  10 active torsions:
REMARK  status: ('A' for Active; 'I' for Inactive)
REMARK    1  A    between atoms: C_1  and  C_2
REMARK    2  A    between atoms: C_4  and  C_5
REMARK    3  A    between atoms: C_8  and  C_9
REMARK    4  A    between atoms: C_9  and  C_10
REMARK    5  A    between atoms: C_9  and  C_11
REMARK    6  A    between atoms: C_9  and  C_12
REMARK    7  A    between atoms: C_16  and  C_17
REMARK    8  A    between atoms: N_22  and  C_23
REMARK    9  A    between atoms: C_23  and  C_24
REMARK   10  A    between atoms: C_24  and  N_25
REMARK                            x       y       z     vdW  Elec       q    Type
REMARK                         _______ _______ _______ _____ _____    ______ ____
ROOT
ATOM      1  C   UNL     1       1.932   4.258  21.259  0.00  0.00    +0.000 C 
ATOM      2  C   UNL     1       1.937   5.606  20.628  0.00  0.00    +0.000 A 
ATOM      3  N   UNL     1       1.236   6.614  21.269  0.00  0.00    +0.000 NA
ATOM      4  C   UNL     1       1.245   7.719  20.552  0.00  0.00    +0.000 A 
ATOM      5  S   UNL     1       2.215   7.644  19.142  0.00  0.00    +0.000 S 
ATOM      6  C   UNL     1       2.515   5.969  19.417  0.00  0.00    +0.000 A 
ENDROOT
BRANCH   6   7
ATOM      7  C   UNL     1       3.244   5.153  18.440  0.00  0.00    +0.000 A 
ATOM      8  C   UNL     1       2.623   4.201  17.658  0.00  0.00    +0.000 A 
ATOM      9  C   UNL     1       3.453   3.441  16.881  0.00  0.00    +0.000 A 
ATOM     10  N   UNL     1       4.785   3.592  16.855  0.00  0.00    +0.000 NA
ATOM     11  C   UNL     1       5.305   4.551  17.632  0.00  0.00    +0.000 A 
ATOM     12  N   UNL     1       6.672   4.769  17.627  0.00  0.00    +0.000 N 
ATOM     13  N   UNL     1       4.581   5.349  18.417  0.00  0.00    +0.000 NA
ATOM     14  H   UNL     1       6.864   5.697  17.987  0.00  0.00    +0.000 HD
BRANCH  12  15
ATOM     15  C   UNL     1       7.390   4.401  16.415  0.00  0.00    +0.000 C 
BRANCH  15  16
ATOM     16  C   UNL     1       6.877   5.145  15.164  0.00  0.00    +0.000 C 
BRANCH  16  17
ATOM     17  N   UNL     1       6.353   4.231  14.140  0.00  0.00    +0.000 NA
ATOM     18  H   UNL     1       7.085   4.065  13.450  0.00  0.00    +0.000 HD
ATOM     19  H   UNL     1       5.603   4.703  13.635  0.00  0.00    +0.000 HD
ENDBRANCH  16  17
ENDBRANCH  15  16
ENDBRANCH  12  15
ENDBRANCH   6   7
BRANCH   4  20
ATOM     20  C   UNL     1       0.520   8.938  20.931  0.00  0.00    +0.000 A 
ATOM     21  C   UNL     1       0.206   9.133  22.279  0.00  0.00    +0.000 A 
ATOM     22  C   UNL     1      -0.515  10.253  22.698  0.00  0.00    +0.000 A 
ATOM     23  C   UNL     1      -0.960  11.223  21.786  0.00  0.00    +0.000 A 
ATOM     24  C   UNL     1      -0.659  11.012  20.428  0.00  0.00    +0.000 A 
ATOM     25  C   UNL     1       0.073   9.890  20.007  0.00  0.00    +0.000 A 
BRANCH  23  26
ATOM     26  C   UNL     1      -1.724  12.480  22.241  0.00  0.00    +0.000 C 
ATOM     27  C   UNL     1      -2.798  12.176  23.310  0.00  0.00    +0.000 C 
ATOM     28  C   UNL     1      -0.732  13.491  22.852  0.00  0.00    +0.000 C 
ATOM     29  C   UNL     1      -2.446  13.149  21.051  0.00  0.00    +0.000 C 
ENDBRANCH  23  26
ENDBRANCH   4  20
TORSDOF 6
ENDMDL
MODEL 5
REMARK VINA RESULT:      -7.1      0.199      1.275
REMARK  Name = 
REMARK  10 active torsions:
REMARK  status: ('A' for Active; 'I' for Inactive)
REMARK    1  A    between atoms: C_1  and  C_2
REMARK    2  A    between atoms: C_4  and  C_5
REMARK    3  A    between atoms: C_8  and  C_9
REMARK    4  A    between atoms: C_9  and  C_10
REMARK    5  A    between atoms: C_9  and  C_11
REMARK    6  A    between atoms: C_9  and  C_12
REMARK    7  A    between atoms: C_16  and  C_17
REMARK    8  A    between atoms: N_22  and  C_23
REMARK    9  A    between atoms: C_23  and  C_24
REMARK   10  A    between atoms: C_24  and  N_25
REMARK                            x       y       z     vdW  Elec       q    Type
REMARK                         _______ _______ _______ _____ _____    ______ ____
ROOT
ATOM      1  C   UNL     1       3.178   4.191  19.525  0.00  0.00    +0.000 C 
ATOM      2  C   UNL     1       3.234   5.587  19.012  0.00  0.00    +0.000 A 
ATOM      3  N   UNL     1       2.274   6.476  19.470  0.00  0.00    +0.000 NA
ATOM      4  C   UNL     1       2.384   7.638  18.862  0.00  0.00    +0.000 A 
ATOM      5  S   UNL     1       3.735   7.768  17.815  0.00  0.00    +0.000 S 
ATOM      6  C   UNL     1       4.108   6.103  18.062  0.00  0.00    +0.000 A 
ENDROOT
BRANCH   6   7
ATOM      7  C   UNL     1       5.175   5.438  17.306  0.00  0.00    +0.000 A 
ATOM      8  C   UNL     1       6.380   5.088  17.876  0.00  0.00    +0.000 A 
ATOM      9  C   UNL     1       7.317   4.583  17.017  0.00  0.00    +0.000 A 
ATOM     10  N   UNL     1       7.103   4.423  15.702  0.00  0.00    +0.000 NA
ATOM     11  C   UNL     1       5.898   4.773  15.233  0.00  0.00    +0.000 A 
ATOM     12  N   UNL     1       5.613   4.607  13.889  0.00  0.00    +0.000 N 
ATOM     13  N   UNL     1       4.918   5.265  15.991  0.00  0.00    +0.000 NA
ATOM     14  H   UNL     1       4.608   4.600  13.759  0.00  0.00    +0.000 HD
BRANCH  12  15
ATOM     15  C   UNL     1       6.348   3.564  13.187  0.00  0.00    +0.000 C 
BRANCH  15  16
ATOM     16  C   UNL     1       5.584   3.008  11.967  0.00  0.00    +0.000 C 
BRANCH  16  17
ATOM     17  N   UNL     1       5.990   1.639  11.622  0.00  0.00    +0.000 NA
ATOM     18  H   UNL     1       5.890   1.054  12.451  0.00  0.00    +0.000 HD
ATOM     19  H   UNL     1       6.988   1.640  11.408  0.00  0.00    +0.000 HD
ENDBRANCH  16  17
ENDBRANCH  15  16
ENDBRANCH  12  15
ENDBRANCH   6   7
BRANCH   4  20
ATOM     20  C   UNL     1       1.459   8.758  19.076  0.00  0.00    +0.000 A 
ATOM     21  C   UNL     1       1.033   9.027  20.380  0.00  0.00    +0.000 A 
ATOM     22  C   UNL     1       0.124  10.053  20.645  0.00  0.00    +0.000 A 
ATOM     23  C   UNL     1      -0.404  10.851  19.617  0.00  0.00    +0.000 A 
ATOM     24  C   UNL     1       0.014  10.563  18.305  0.00  0.00    +0.000 A 
ATOM     25  C   UNL     1       0.934   9.537  18.039  0.00  0.00    +0.000 A 
BRANCH  23  26
ATOM     26  C   UNL     1      -1.378  12.008  19.901  0.00  0.00    +0.000 C 
ATOM     27  C   UNL     1      -2.709  11.876  19.128  0.00  0.00    +0.000 C 
ATOM     28  C   UNL     1      -1.716  12.038  21.407  0.00  0.00    +0.000 C 
ATOM     29  C   UNL     1      -0.756  13.364  19.505  0.00  0.00    +0.000 C 
ENDBRANCH  23  26
ENDBRANCH   4  20
TORSDOF 6
ENDMDL
MODEL 6
REMARK VINA RESULT:      -7.1      4.499     10.875
REMARK  Name = 
REMARK  10 active torsions:
REMARK  status: ('A' for Active; 'I' for Inactive)
REMARK    1  A    between atoms: C_1  and  C_2
REMARK    2  A    between atoms: C_4  and  C_5
REMARK    3  A    between atoms: C_8  and  C_9
REMARK    4  A    between atoms: C_9  and  C_10
REMARK    5  A    between atoms: C_9  and  C_11
REMARK    6  A    between atoms: C_9  and  C_12
REMARK    7  A    between atoms: C_16  and  C_17
REMARK    8  A    between atoms: N_22  and  C_23
REMARK    9  A    between atoms: C_23  and  C_24
REMARK   10  A    between atoms: C_24  and  N_25
REMARK                            x       y       z     vdW  Elec       q    Type
REMARK                         _______ _______ _______ _____ _____    ______ ____
ROOT
ATOM      1  C   UNL     1      -2.120  11.673  18.697  0.00  0.00    +0.000 C 
ATOM      2  C   UNL     1      -0.911  11.116  19.361  0.00  0.00    +0.000 A 
ATOM      3  N   UNL     1      -0.181  10.165  18.665  0.00  0.00    +0.000 NA
ATOM      4  C   UNL     1       0.798   9.691  19.408  0.00  0.00    +0.000 A 
ATOM      5  S   UNL     1       0.979  10.466  20.925  0.00  0.00    +0.000 S 
ATOM      6  C   UNL     1      -0.450  11.388  20.643  0.00  0.00    +0.000 A 
ENDROOT
BRANCH   6   7
ATOM      7  C   UNL     1      -1.015  12.259  21.681  0.00  0.00    +0.000 A 
ATOM      8  C   UNL     1      -0.416  13.440  22.065  0.00  0.00    +0.000 A 
ATOM      9  C   UNL     1      -0.997  14.081  23.124  0.00  0.00    +0.000 A 
ATOM     10  N   UNL     1      -2.081  13.618  23.763  0.00  0.00    +0.000 NA
ATOM     11  C   UNL     1      -2.611  12.472  23.315  0.00  0.00    +0.000 A 
ATOM     12  N   UNL     1      -3.745  11.960  23.920  0.00  0.00    +0.000 N 
ATOM     13  N   UNL     1      -2.124  11.779  22.286  0.00  0.00    +0.000 NA
ATOM     14  H   UNL     1      -4.195  11.307  23.289  0.00  0.00    +0.000 HD
BRANCH  12  15
ATOM     15  C   UNL     1      -4.629  12.916  24.573  0.00  0.00    +0.000 C 
BRANCH  15  16
ATOM     16  C   UNL     1      -6.015  13.008  23.903  0.00  0.00    +0.000 C 
BRANCH  16  17
ATOM     17  N   UNL     1      -6.067  12.305  22.615  0.00  0.00    +0.000 NA
ATOM     18  H   UNL     1      -7.015  11.955  22.475  0.00  0.00    +0.000 HD
ATOM     19  H   UNL     1      -5.475  11.476  22.672  0.00  0.00    +0.000 HD
ENDBRANCH  16  17
ENDBRANCH  15  16
ENDBRANCH  12  15
ENDBRANCH   6   7
BRANCH   4  20
ATOM     20  C   UNL     1       1.697   8.613  18.976  0.00  0.00    +0.000 A 
ATOM     21  C   UNL     1       1.929   7.551  19.853  0.00  0.00    +0.000 A 
ATOM     22  C   UNL     1       2.804   6.515  19.517  0.00  0.00    +0.000 A 
ATOM     23  C   UNL     1       3.489   6.500  18.292  0.00  0.00    +0.000 A 
ATOM     24  C   UNL     1       3.266   7.582  17.421  0.00  0.00    +0.000 A 
ATOM     25  C   UNL     1       2.381   8.620  17.755  0.00  0.00    +0.000 A 
BRANCH  23  26
ATOM     26  C   UNL     1       4.426   5.346  17.896  0.00  0.00    +0.000 C 
ATOM     27  C   UNL     1       5.380   5.718  16.738  0.00  0.00    +0.000 C 
ATOM     28  C   UNL     1       5.297   4.952  19.107  0.00  0.00    +0.000 C 
ATOM     29  C   UNL     1       3.620   4.111  17.440  0.00  0.00    +0.000 C 
ENDBRANCH  23  26
ENDBRANCH   4  20
TORSDOF 6
ENDMDL
MODEL 7
REMARK VINA RESULT:      -7.1      4.466     10.958
REMARK  Name = 
REMARK  10 active torsions:
REMARK  status: ('A' for Active; 'I' for Inactive)
REMARK    1  A    between atoms: C_1  and  C_2
REMARK    2  A    between atoms: C_4  and  C_5
REMARK    3  A    between atoms: C_8  and  C_9
REMARK    4  A    between atoms: C_9  and  C_10
REMARK    5  A    between atoms: C_9  and  C_11
REMARK    6  A    between atoms: C_9  and  C_12
REMARK    7  A    between atoms: C_16  and  C_17
REMARK    8  A    between atoms: N_22  and  C_23
REMARK    9  A    between atoms: C_23  and  C_24
REMARK   10  A    between atoms: C_24  and  N_25
REMARK                            x       y       z     vdW  Elec       q    Type
REMARK                         _______ _______ _______ _____ _____    ______ ____
ROOT
ATOM      1  C   UNL     1      -1.737  12.066  18.163  0.00  0.00    +0.000 C 
ATOM      2  C   UNL     1      -0.731  11.367  19.007  0.00  0.00    +0.000 A 
ATOM      3  N   UNL     1       0.032  10.378  18.406  0.00  0.00    +0.000 NA
ATOM      4  C   UNL     1       0.805   9.782  19.289  0.00  0.00    +0.000 A 
ATOM      5  S   UNL     1       0.760  10.473  20.857  0.00  0.00    +0.000 S 
ATOM      6  C   UNL     1      -0.502  11.541  20.367  0.00  0.00    +0.000 A 
ENDROOT
BRANCH   6   7
ATOM      7  C   UNL     1      -1.177  12.419  21.330  0.00  0.00    +0.000 A 
ATOM      8  C   UNL     1      -0.850  13.752  21.472  0.00  0.00    +0.000 A 
ATOM      9  C   UNL     1      -1.484  14.410  22.490  0.00  0.00    +0.000 A 
ATOM     10  N   UNL     1      -2.371  13.825  23.308  0.00  0.00    +0.000 NA
ATOM     11  C   UNL     1      -2.643  12.532  23.090  0.00  0.00    +0.000 A 
ATOM     12  N   UNL     1      -3.570  11.884  23.888  0.00  0.00    +0.000 N 
ATOM     13  N   UNL     1      -2.086  11.808  22.119  0.00  0.00    +0.000 NA
ATOM     14  H   UNL     1      -3.897  11.052  23.410  0.00  0.00    +0.000 HD
BRANCH  12  15
ATOM     15  C   UNL     1      -4.603  12.710  24.497  0.00  0.00    +0.000 C 
BRANCH  15  16
ATOM     16  C   UNL     1      -5.857  12.855  23.610  0.00  0.00    +0.000 C 
BRANCH  16  17
ATOM     17  N   UNL     1      -6.996  12.075  24.111  0.00  0.00    +0.000 NA
ATOM     18  H   UNL     1      -7.383  11.534  23.337  0.00  0.00    +0.000 HD
ATOM     19  H   UNL     1      -7.735  12.720  24.390  0.00  0.00    +0.000 HD
ENDBRANCH  16  17
ENDBRANCH  15  16
ENDBRANCH  12  15
ENDBRANCH   6   7
BRANCH   4  20
ATOM     20  C   UNL     1       1.671   8.640  18.971  0.00  0.00    +0.000 A 
ATOM     21  C   UNL     1       1.815   7.628  19.925  0.00  0.00    +0.000 A 
ATOM     22  C   UNL     1       2.655   6.536  19.697  0.00  0.00    +0.000 A 
ATOM     23  C   UNL     1       3.392   6.411  18.510  0.00  0.00    +0.000 A 
ATOM     24  C   UNL     1       3.259   7.441  17.561  0.00  0.00    +0.000 A 
ATOM     25  C   UNL     1       2.408   8.536  17.786  0.00  0.00    +0.000 A 
BRANCH  23  26
ATOM     26  C   UNL     1       4.292   5.193  18.233  0.00  0.00    +0.000 C 
ATOM     27  C   UNL     1       3.558   3.847  18.431  0.00  0.00    +0.000 C 
ATOM     28  C   UNL     1       4.789   5.242  16.773  0.00  0.00    +0.000 C 
ATOM     29  C   UNL     1       5.516   5.185  19.174  0.00  0.00    +0.000 C 
ENDBRANCH  23  26
ENDBRANCH   4  20
TORSDOF 6
ENDMDL
MODEL 8
REMARK VINA RESULT:      -7.0      4.363     10.824
REMARK  Name = 
REMARK  10 active torsions:
REMARK  status: ('A' for Active; 'I' for Inactive)
REMARK    1  A    between atoms: C_1  and  C_2
REMARK    2  A    between atoms: C_4  and  C_5
REMARK    3  A    between atoms: C_8  and  C_9
REMARK    4  A    between atoms: C_9  and  C_10
REMARK    5  A    between atoms: C_9  and  C_11
REMARK    6  A    between atoms: C_9  and  C_12
REMARK    7  A    between atoms: C_16  and  C_17
REMARK    8  A    between atoms: N_22  and  C_23
REMARK    9  A    between atoms: C_23  and  C_24
REMARK   10  A    between atoms: C_24  and  N_25
REMARK                            x       y       z     vdW  Elec       q    Type
REMARK                         _______ _______ _______ _____ _____    ______ ____
ROOT
ATOM      1  C   UNL     1      -0.909  11.924  18.477  0.00  0.00    +0.000 C 
ATOM      2  C   UNL     1      -0.131  11.060  19.406  0.00  0.00    +0.000 A 
ATOM      3  N   UNL     1       0.552   9.986  18.859  0.00  0.00    +0.000 NA
ATOM      4  C   UNL     1       1.111   9.257  19.803  0.00  0.00    +0.000 A 
ATOM      5  S   UNL     1       0.965   9.905  21.382  0.00  0.00    +0.000 S 
ATOM      6  C   UNL     1      -0.056  11.162  20.790  0.00  0.00    +0.000 A 
ENDROOT
BRANCH   6   7
ATOM      7  C   UNL     1      -0.715  12.104  21.702  0.00  0.00    +0.000 A 
ATOM      8  C   UNL     1      -0.204  13.357  21.969  0.00  0.00    +0.000 A 
ATOM      9  C   UNL     1      -0.866  14.073  22.928  0.00  0.00    +0.000 A 
ATOM     10  N   UNL     1      -1.946  13.615  23.577  0.00  0.00    +0.000 NA
ATOM     11  C   UNL     1      -2.387  12.395  23.245  0.00  0.00    +0.000 A 
ATOM     12  N   UNL     1      -3.513  11.881  23.865  0.00  0.00    +0.000 N 
ATOM     13  N   UNL     1      -1.817  11.624  22.319  0.00  0.00    +0.000 NA
ATOM     14  H   UNL     1      -3.896  11.135  23.297  0.00  0.00    +0.000 HD
BRANCH  12  15
ATOM     15  C   UNL     1      -4.478  12.846  24.374  0.00  0.00    +0.000 C 
BRANCH  15  16
ATOM     16  C   UNL     1      -5.612  13.148  23.371  0.00  0.00    +0.000 C 
BRANCH  16  17
ATOM     17  N   UNL     1      -6.712  12.179  23.456  0.00  0.00    +0.000 NA
ATOM     18  H   UNL     1      -6.832  11.746  22.540  0.00  0.00    +0.000 HD
ATOM     19  H   UNL     1      -7.579  12.685  23.634  0.00  0.00    +0.000 HD
ENDBRANCH  16  17
ENDBRANCH  15  16
ENDBRANCH  12  15
ENDBRANCH   6   7
BRANCH   4  20
ATOM     20  C   UNL     1       1.838   8.008  19.541  0.00  0.00    +0.000 A 
ATOM     21  C   UNL     1       2.541   7.888  18.339  0.00  0.00    +0.000 A 
ATOM     22  C   UNL     1       3.219   6.711  18.015  0.00  0.00    +0.000 A 
ATOM     23  C   UNL     1       3.218   5.601  18.874  0.00  0.00    +0.000 A 
ATOM     24  C   UNL     1       2.493   5.721  20.073  0.00  0.00    +0.000 A 
ATOM     25  C   UNL     1       1.817   6.907  20.404  0.00  0.00    +0.000 A 
BRANCH  23  26
ATOM     26  C   UNL     1       3.993   4.313  18.543  0.00  0.00    +0.000 C 
ATOM     27  C   UNL     1       5.526   4.507  18.583  0.00  0.00    +0.000 C 
ATOM     28  C   UNL     1       3.636   3.220  19.573  0.00  0.00    +0.000 C 
ATOM     29  C   UNL     1       3.637   3.801  17.131  0.00  0.00    +0.000 C 
ENDBRANCH  23  26
ENDBRANCH   4  20
TORSDOF 6
ENDMDL
MODEL 9
REMARK VINA RESULT:      -7.0      1.907      2.771
REMARK  Name = 
REMARK  10 active torsions:
REMARK  status: ('A' for Active; 'I' for Inactive)
REMARK    1  A    between atoms: C_1  and  C_2
REMARK    2  A    between atoms: C_4  and  C_5
REMARK    3  A    between atoms: C_8  and  C_9
REMARK    4  A    between atoms: C_9  and  C_10
REMARK    5  A    between atoms: C_9  and  C_11
REMARK    6  A    between atoms: C_9  and  C_12
REMARK    7  A    between atoms: C_16  and  C_17
REMARK    8  A    between atoms: N_22  and  C_23
REMARK    9  A    between atoms: C_23  and  C_24
REMARK   10  A    between atoms: C_24  and  N_25
REMARK                            x       y       z     vdW  Elec       q    Type
REMARK                         _______ _______ _______ _____ _____    ______ ____
ROOT
ATOM      1  C   UNL     1       2.027   4.208  21.317  0.00  0.00    +0.000 C 
ATOM      2  C   UNL     1       1.997   5.567  20.712  0.00  0.00    +0.000 A 
ATOM      3  N   UNL     1       1.278   6.547  21.377  0.00  0.00    +0.000 NA
ATOM      4  C   UNL     1       1.257   7.665  20.682  0.00  0.00    +0.000 A 
ATOM      5  S   UNL     1       2.219   7.640  19.264  0.00  0.00    +0.000 S 
ATOM      6  C   UNL     1       2.559   5.967  19.505  0.00  0.00    +0.000 A 
ENDROOT
BRANCH   6   7
ATOM      7  C   UNL     1       3.299   5.186  18.507  0.00  0.00    +0.000 A 
ATOM      8  C   UNL     1       2.680   4.298  17.653  0.00  0.00    +0.000 A 
ATOM      9  C   UNL     1       3.516   3.560  16.861  0.00  0.00    +0.000 A 
ATOM     10  N   UNL     1       4.852   3.674  16.889  0.00  0.00    +0.000 NA
ATOM     11  C   UNL     1       5.371   4.572  17.736  0.00  0.00    +0.000 A 
ATOM     12  N   UNL     1       6.742   4.751  17.789  0.00  0.00    +0.000 N 
ATOM     13  N   UNL     1       4.640   5.345  18.541  0.00  0.00    +0.000 NA
ATOM     14  H   UNL     1       6.946   5.651  18.207  0.00  0.00    +0.000 HD
BRANCH  12  15
ATOM     15  C   UNL     1       7.492   4.431  16.582  0.00  0.00    +0.000 C 
BRANCH  15  16
ATOM     16  C   UNL     1       7.014   5.227  15.349  0.00  0.00    +0.000 C 
BRANCH  16  17
ATOM     17  N   UNL     1       6.546   4.357  14.263  0.00  0.00    +0.000 NA
ATOM     18  H   UNL     1       5.863   3.703  14.644  0.00  0.00    +0.000 HD
ATOM     19  H   UNL     1       7.327   3.784  13.945  0.00  0.00    +0.000 HD
ENDBRANCH  16  17
ENDBRANCH  15  16
ENDBRANCH  12  15
ENDBRANCH   6   7
BRANCH   4  20
ATOM     20  C   UNL     1       0.507   8.860  21.089  0.00  0.00    +0.000 A 
ATOM     21  C   UNL     1       0.152   9.788  20.106  0.00  0.00    +0.000 A 
ATOM     22  C   UNL     1      -0.527  10.963  20.434  0.00  0.00    +0.000 A 
ATOM     23  C   UNL     1      -0.874  11.266  21.760  0.00  0.00    +0.000 A 
ATOM     24  C   UNL     1      -0.496  10.338  22.748  0.00  0.00    +0.000 A 
ATOM     25  C   UNL     1       0.179   9.152  22.418  0.00  0.00    +0.000 A 
BRANCH  23  26
ATOM     26  C   UNL     1      -1.654  12.540  22.129  0.00  0.00    +0.000 C 
ATOM     27  C   UNL     1      -0.749  13.653  22.705  0.00  0.00    +0.000 C 
ATOM     28  C   UNL     1      -2.341  13.105  20.868  0.00  0.00    +0.000 C 
ATOM     29  C   UNL     1      -2.734  12.239  23.191  0.00  0.00    +0.000 C 
ENDBRANCH  23  26
ENDBRANCH   4  20
TORSDOF 6
ENDMDL
