MODEL 1
REMARK VINA RESULT:      -8.1      0.000      0.000
REMARK  Name = 
REMARK  9 active torsions:
REMARK  status: ('A' for Active; 'I' for Inactive)
REMARK    1  A    between atoms: C_2  and  C_3
REMARK    2  A    between atoms: C_2  and  C_4
REMARK    3  A    between atoms: C_8  and  C_9
REMARK    4  A    between atoms: C_9  and  C_10
REMARK    5  A    between atoms: C_9  and  C_11
REMARK    6  A    between atoms: C_9  and  N_12
REMARK    7  A    between atoms: N_15  and  C_16
REMARK    8  A    between atoms: C_19  and  O_20
REMARK    9  A    between atoms: O_20  and  C_21
REMARK                            x       y       z     vdW  Elec       q    Type
REMARK                         _______ _______ _______ _____ _____    ______ ____
ROOT
ATOM      1  N   UNL     1       4.745   6.091  16.522  0.00  0.00    +0.000 N 
ATOM      2  C   UNL     1       3.874   6.369  17.548  0.00  0.00    +0.000 C 
ATOM      3  O   UNL     1       3.594   5.551  18.414  0.00  0.00    +0.000 OA
ATOM      4  N   UNL     1       3.314   7.622  17.468  0.00  0.00    +0.000 N 
ATOM      5  H   UNL     1       5.221   6.869  16.091  0.00  0.00    +0.000 HD
ATOM      6  H   UNL     1       3.332   8.059  16.551  0.00  0.00    +0.000 HD
ENDROOT
BRANCH   4   7
ATOM      7  C   UNL     1       2.387   8.124  18.415  0.00  0.00    +0.000 A 
ATOM      8  C   UNL     1       1.573   9.234  18.176  0.00  0.00    +0.000 A 
ATOM      9  C   UNL     1       0.764   9.749  19.187  0.00  0.00    +0.000 A 
ATOM     10  C   UNL     1       0.764   9.104  20.410  0.00  0.00    +0.000 A 
ATOM     11  N   UNL     1       1.486   7.988  20.664  0.00  0.00    +0.000 NA
ATOM     12  C   UNL     1       2.275   7.527  19.664  0.00  0.00    +0.000 A 
BRANCH  10  13
ATOM     13  O   UNL     1      -0.012   9.662  21.400  0.00  0.00    +0.000 OA
ATOM     14  C   UNL     1       0.490   9.378  22.702  0.00  0.00    +0.000 C 
ENDBRANCH  10  13
ENDBRANCH   4   7
BRANCH   1  15
ATOM     15  C   UNL     1       5.417   4.771  16.444  0.00  0.00    +0.000 C 
ATOM     16  C   UNL     1       4.379   3.641  16.645  0.00  0.00    +0.000 C 
ATOM     17  C   UNL     1       6.500   4.666  17.551  0.00  0.00    +0.000 C 
BRANCH  15  22
ATOM     18  C   UNL     1       5.958   3.673  12.745  0.00  0.00    +0.000 A 
ATOM     19  C   UNL     1       7.150   4.342  12.450  0.00  0.00    +0.000 A 
ATOM     20  C   UNL     1       7.787   5.122  13.419  0.00  0.00    +0.000 A 
ATOM     21  C   UNL     1       7.245   5.243  14.700  0.00  0.00    +0.000 A 
ATOM     22  C   UNL     1       6.043   4.602  15.038  0.00  0.00    +0.000 A 
ATOM     23  C   UNL     1       5.427   3.820  14.036  0.00  0.00    +0.000 A 
BRANCH  18  25
ATOM     24  C   UNL     1       5.876   1.622  11.354  0.00  0.00    +0.000 C 
ATOM     25  C   UNL     1       5.299   2.763  11.769  0.00  0.00    +0.000 C 
ATOM     26  C   UNL     1       3.967   3.199  11.223  0.00  0.00    +0.000 C 
ENDBRANCH  18  25
ENDBRANCH  15  22
ENDBRANCH   1  15
TORSDOF 5
ENDMDL
MODEL 2
REMARK VINA RESULT:      -8.1      5.347      7.205
REMARK  Name = 
REMARK  9 active torsions:
REMARK  status: ('A' for Active; 'I' for Inactive)
REMARK    1  A    between atoms: C_2  and  C_3
REMARK    2  A    between atoms: C_2  and  C_4
REMARK    3  A    between atoms: C_8  and  C_9
REMARK    4  A    between atoms: C_9  and  C_10
REMARK    5  A    between atoms: C_9  and  C_11
REMARK    6  A    between atoms: C_9  and  N_12
REMARK    7  A    between atoms: N_15  and  C_16
REMARK    8  A    between atoms: C_19  and  O_20
REMARK    9  A    between atoms: O_20  and  C_21
REMARK                            x       y       z     vdW  Elec       q    Type
REMARK                         _______ _______ _______ _____ _____    ______ ____
ROOT
ATOM      1  N   UNL     1       6.804   7.557  17.073  0.00  0.00    +0.000 N 
ATOM      2  C   UNL     1       7.821   8.071  17.840  0.00  0.00    +0.000 C 
ATOM      3  O   UNL     1       8.497   7.377  18.589  0.00  0.00    +0.000 OA
ATOM      4  N   UNL     1       7.961   9.434  17.724  0.00  0.00    +0.000 N 
ATOM      5  H   UNL     1       6.555   8.055  16.232  0.00  0.00    +0.000 HD
ATOM      6  H   UNL     1       7.150   9.936  17.376  0.00  0.00    +0.000 HD
ENDROOT
BRANCH   4   7
ATOM      7  C   UNL     1       8.944  10.179  18.422  0.00  0.00    +0.000 A 
ATOM      8  C   UNL     1       8.952  10.321  19.812  0.00  0.00    +0.000 A 
ATOM      9  C   UNL     1       9.878  11.159  20.431  0.00  0.00    +0.000 A 
ATOM     10  C   UNL     1      10.803  11.806  19.634  0.00  0.00    +0.000 A 
ATOM     11  N   UNL     1      10.873  11.645  18.292  0.00  0.00    +0.000 NA
ATOM     12  C   UNL     1       9.946  10.839  17.722  0.00  0.00    +0.000 A 
BRANCH  10  13
ATOM     13  O   UNL     1      11.675  12.659  20.271  0.00  0.00    +0.000 OA
ATOM     14  C   UNL     1      12.333  13.535  19.362  0.00  0.00    +0.000 C 
ENDBRANCH  10  13
ENDBRANCH   4   7
BRANCH   1  15
ATOM     15  C   UNL     1       6.500   6.105  17.101  0.00  0.00    +0.000 C 
ATOM     16  C   UNL     1       7.339   5.415  18.205  0.00  0.00    +0.000 C 
ATOM     17  C   UNL     1       6.847   5.468  15.730  0.00  0.00    +0.000 C 
BRANCH  15  22
ATOM     18  C   UNL     1       3.118   4.422  18.058  0.00  0.00    +0.000 A 
ATOM     19  C   UNL     1       2.286   5.544  18.131  0.00  0.00    +0.000 A 
ATOM     20  C   UNL     1       2.785   6.821  17.863  0.00  0.00    +0.000 A 
ATOM     21  C   UNL     1       4.127   6.998  17.515  0.00  0.00    +0.000 A 
ATOM     22  C   UNL     1       5.004   5.905  17.444  0.00  0.00    +0.000 A 
ATOM     23  C   UNL     1       4.465   4.629  17.717  0.00  0.00    +0.000 A 
BRANCH  18  25
ATOM     24  C   UNL     1       3.398   1.961  18.150  0.00  0.00    +0.000 C 
ATOM     25  C   UNL     1       2.602   3.040  18.248  0.00  0.00    +0.000 C 
ATOM     26  C   UNL     1       1.129   2.894  18.512  0.00  0.00    +0.000 C 
ENDBRANCH  18  25
ENDBRANCH  15  22
ENDBRANCH   1  15
TORSDOF 5
ENDMDL
MODEL 3
REMARK VINA RESULT:      -8.0      2.576      4.321
REMARK  Name = 
REMARK  9 active torsions:
REMARK  status: ('A' for Active; 'I' for Inactive)
REMARK    1  A    between atoms: C_2  and  C_3
REMARK    2  A    between atoms: C_2  and  C_4
REMARK    3  A    between atoms: C_8  and  C_9
REMARK    4  A    between atoms: C_9  and  C_10
REMARK    5  A    between atoms: C_9  and  C_11
REMARK    6  A    between atoms: C_9  and  N_12
REMARK    7  A    between atoms: N_15  and  C_16
REMARK    8  A    between atoms: C_19  and  O_20
REMARK    9  A    between atoms: O_20  and  C_21
REMARK                            x       y       z     vdW  Elec       q    Type
REMARK                         _______ _______ _______ _____ _____    ______ ____
ROOT
ATOM      1  N   UNL     1       3.037   4.583  19.767  0.00  0.00    +0.000 N 
ATOM      2  C   UNL     1       2.413   5.765  19.449  0.00  0.00    +0.000 C 
ATOM      3  O   UNL     1       2.162   6.089  18.296  0.00  0.00    +0.000 OA
ATOM      4  N   UNL     1       2.158   6.561  20.541  0.00  0.00    +0.000 N 
ATOM      5  H   UNL     1       2.874   4.202  20.687  0.00  0.00    +0.000 HD
ATOM      6  H   UNL     1       2.713   6.371  21.370  0.00  0.00    +0.000 HD
ENDROOT
BRANCH   4   7
ATOM      7  C   UNL     1       1.523   7.825  20.453  0.00  0.00    +0.000 A 
ATOM      8  C   UNL     1       0.618   8.296  21.407  0.00  0.00    +0.000 A 
ATOM      9  C   UNL     1      -0.059   9.498  21.208  0.00  0.00    +0.000 A 
ATOM     10  C   UNL     1       0.224  10.220  20.064  0.00  0.00    +0.000 A 
ATOM     11  N   UNL     1       1.141   9.834  19.146  0.00  0.00    +0.000 NA
ATOM     12  C   UNL     1       1.766   8.652  19.363  0.00  0.00    +0.000 A 
BRANCH  10  13
ATOM     13  O   UNL     1      -0.492  11.380  19.875  0.00  0.00    +0.000 OA
ATOM     14  C   UNL     1       0.353  12.515  19.712  0.00  0.00    +0.000 C 
ENDBRANCH  10  13
ENDBRANCH   4   7
BRANCH   1  15
ATOM     15  C   UNL     1       3.409   3.619  18.702  0.00  0.00    +0.000 C 
ATOM     16  C   UNL     1       2.166   3.283  17.842  0.00  0.00    +0.000 C 
ATOM     17  C   UNL     1       3.949   2.313  19.341  0.00  0.00    +0.000 C 
BRANCH  15  22
ATOM     18  C   UNL     1       6.487   5.667  17.474  0.00  0.00    +0.000 A 
ATOM     19  C   UNL     1       6.445   5.395  16.103  0.00  0.00    +0.000 A 
ATOM     20  C   UNL     1       5.442   4.584  15.568  0.00  0.00    +0.000 A 
ATOM     21  C   UNL     1       4.460   4.033  16.395  0.00  0.00    +0.000 A 
ATOM     22  C   UNL     1       4.470   4.266  17.779  0.00  0.00    +0.000 A 
ATOM     23  C   UNL     1       5.496   5.091  18.285  0.00  0.00    +0.000 A 
BRANCH  18  25
ATOM     24  C   UNL     1       7.753   7.798  17.525  0.00  0.00    +0.000 C 
ATOM     25  C   UNL     1       7.487   6.597  18.066  0.00  0.00    +0.000 C 
ATOM     26  C   UNL     1       8.229   6.114  19.282  0.00  0.00    +0.000 C 
ENDBRANCH  18  25
ENDBRANCH  15  22
ENDBRANCH   1  15
TORSDOF 5
ENDMDL
MODEL 4
REMARK VINA RESULT:      -8.0      0.855      1.187
REMARK  Name = 
REMARK  9 active torsions:
REMARK  status: ('A' for Active; 'I' for Inactive)
REMARK    1  A    between atoms: C_2  and  C_3
REMARK    2  A    between atoms: C_2  and  C_4
REMARK    3  A    between atoms: C_8  and  C_9
REMARK    4  A    between atoms: C_9  and  C_10
REMARK    5  A    between atoms: C_9  and  C_11
REMARK    6  A    between atoms: C_9  and  N_12
REMARK    7  A    between atoms: N_15  and  C_16
REMARK    8  A    between atoms: C_19  and  O_20
REMARK    9  A    between atoms: O_20  and  C_21
REMARK                            x       y       z     vdW  Elec       q    Type
REMARK                         _______ _______ _______ _____ _____    ______ ____
ROOT
ATOM      1  N   UNL     1       4.851   6.058  16.223  0.00  0.00    +0.000 N 
ATOM      2  C   UNL     1       4.181   6.418  17.367  0.00  0.00    +0.000 C 
ATOM      3  O   UNL     1       4.247   5.767  18.402  0.00  0.00    +0.000 OA
ATOM      4  N   UNL     1       3.395   7.536  17.214  0.00  0.00    +0.000 N 
ATOM      5  H   UNL     1       5.072   6.788  15.563  0.00  0.00    +0.000 HD
ATOM      6  H   UNL     1       3.137   7.771  16.261  0.00  0.00    +0.000 HD
ENDROOT
BRANCH   4   7
ATOM      7  C   UNL     1       2.614   8.088  18.259  0.00  0.00    +0.000 A 
ATOM      8  C   UNL     1       2.389   7.436  19.475  0.00  0.00    +0.000 A 
ATOM      9  C   UNL     1       1.521   7.979  20.419  0.00  0.00    +0.000 A 
ATOM     10  C   UNL     1       0.926   9.193  20.131  0.00  0.00    +0.000 A 
ATOM     11  N   UNL     1       1.165   9.890  18.996  0.00  0.00    +0.000 NA
ATOM     12  C   UNL     1       2.000   9.323  18.093  0.00  0.00    +0.000 A 
BRANCH  10  13
ATOM     13  O   UNL     1       0.040   9.682  21.065  0.00  0.00    +0.000 OA
ATOM     14  C   UNL     1      -0.737  10.762  20.557  0.00  0.00    +0.000 C 
ENDBRANCH  10  13
ENDBRANCH   4   7
BRANCH   1  15
ATOM     15  C   UNL     1       5.724   4.859  16.208  0.00  0.00    +0.000 C 
ATOM     16  C   UNL     1       4.906   3.610  16.622  0.00  0.00    +0.000 C 
ATOM     17  C   UNL     1       6.896   5.049  17.206  0.00  0.00    +0.000 C 
BRANCH  15  22
ATOM     18  C   UNL     1       6.011   3.602  12.531  0.00  0.00    +0.000 A 
ATOM     19  C   UNL     1       7.175   4.262  12.125  0.00  0.00    +0.000 A 
ATOM     20  C   UNL     1       7.874   5.085  13.012  0.00  0.00    +0.000 A 
ATOM     21  C   UNL     1       7.421   5.260  14.322  0.00  0.00    +0.000 A 
ATOM     22  C   UNL     1       6.250   4.630  14.770  0.00  0.00    +0.000 A 
ATOM     23  C   UNL     1       5.571   3.804  13.849  0.00  0.00    +0.000 A 
BRANCH  18  25
ATOM     24  C   UNL     1       5.830   1.475  11.272  0.00  0.00    +0.000 C 
ATOM     25  C   UNL     1       5.292   2.649  11.644  0.00  0.00    +0.000 C 
ATOM     26  C   UNL     1       3.942   3.077  11.137  0.00  0.00    +0.000 C 
ENDBRANCH  18  25
ENDBRANCH  15  22
ENDBRANCH   1  15
TORSDOF 5
ENDMDL
MODEL 5
REMARK VINA RESULT:      -8.0      2.820      4.507
REMARK  Name = 
REMARK  9 active torsions:
REMARK  status: ('A' for Active; 'I' for Inactive)
REMARK    1  A    between atoms: C_2  and  C_3
REMARK    2  A    between atoms: C_2  and  C_4
REMARK    3  A    between atoms: C_8  and  C_9
REMARK    4  A    between atoms: C_9  and  C_10
REMARK    5  A    between atoms: C_9  and  C_11
REMARK    6  A    between atoms: C_9  and  N_12
REMARK    7  A    between atoms: N_15  and  C_16
REMARK    8  A    between atoms: C_19  and  O_20
REMARK    9  A    between atoms: O_20  and  C_21
REMARK                            x       y       z     vdW  Elec       q    Type
REMARK                         _______ _______ _______ _____ _____    ______ ____
ROOT
ATOM      1  N   UNL     1       2.831   4.796  20.303  0.00  0.00    +0.000 N 
ATOM      2  C   UNL     1       2.227   5.932  19.821  0.00  0.00    +0.000 C 
ATOM      3  O   UNL     1       1.960   6.085  18.636  0.00  0.00    +0.000 OA
ATOM      4  N   UNL     1       2.010   6.889  20.785  0.00  0.00    +0.000 N 
ATOM      5  H   UNL     1       2.679   4.561  21.272  0.00  0.00    +0.000 HD
ATOM      6  H   UNL     1       2.578   6.812  21.623  0.00  0.00    +0.000 HD
ENDROOT
BRANCH   4   7
ATOM      7  C   UNL     1       1.401   8.140  20.518  0.00  0.00    +0.000 A 
ATOM      8  C   UNL     1       0.436   8.715  21.349  0.00  0.00    +0.000 A 
ATOM      9  C   UNL     1      -0.208   9.893  20.975  0.00  0.00    +0.000 A 
ATOM     10  C   UNL     1       0.167  10.488  19.786  0.00  0.00    +0.000 A 
ATOM     11  N   UNL     1       1.143  10.002  18.984  0.00  0.00    +0.000 NA
ATOM     12  C   UNL     1       1.733   8.846  19.369  0.00  0.00    +0.000 A 
BRANCH  10  13
ATOM     13  O   UNL     1      -0.518  11.626  19.424  0.00  0.00    +0.000 OA
ATOM     14  C   UNL     1      -1.869  11.351  19.068  0.00  0.00    +0.000 C 
ENDBRANCH  10  13
ENDBRANCH   4   7
BRANCH   1  15
ATOM     15  C   UNL     1       3.160   3.675  19.389  0.00  0.00    +0.000 C 
ATOM     16  C   UNL     1       1.893   3.240  18.614  0.00  0.00    +0.000 C 
ATOM     17  C   UNL     1       3.691   2.468  20.207  0.00  0.00    +0.000 C 
BRANCH  15  22
ATOM     18  C   UNL     1       6.321   5.334  17.826  0.00  0.00    +0.000 A 
ATOM     19  C   UNL     1       6.166   4.968  16.485  0.00  0.00    +0.000 A 
ATOM     20  C   UNL     1       5.061   4.218  16.075  0.00  0.00    +0.000 A 
ATOM     21  C   UNL     1       4.091   3.822  16.999  0.00  0.00    +0.000 A 
ATOM     22  C   UNL     1       4.212   4.151  18.357  0.00  0.00    +0.000 A 
ATOM     23  C   UNL     1       5.338   4.913  18.737  0.00  0.00    +0.000 A 
BRANCH  18  25
ATOM     24  C   UNL     1       8.213   5.881  19.331  0.00  0.00    +0.000 C 
ATOM     25  C   UNL     1       7.435   6.207  18.284  0.00  0.00    +0.000 C 
ATOM     26  C   UNL     1       7.630   7.505  17.549  0.00  0.00    +0.000 C 
ENDBRANCH  18  25
ENDBRANCH  15  22
ENDBRANCH   1  15
TORSDOF 5
ENDMDL
MODEL 6
REMARK VINA RESULT:      -8.0      1.746      3.049
REMARK  Name = 
REMARK  9 active torsions:
REMARK  status: ('A' for Active; 'I' for Inactive)
REMARK    1  A    between atoms: C_2  and  C_3
REMARK    2  A    between atoms: C_2  and  C_4
REMARK    3  A    between atoms: C_8  and  C_9
REMARK    4  A    between atoms: C_9  and  C_10
REMARK    5  A    between atoms: C_9  and  C_11
REMARK    6  A    between atoms: C_9  and  N_12
REMARK    7  A    between atoms: N_15  and  C_16
REMARK    8  A    between atoms: C_19  and  O_20
REMARK    9  A    between atoms: O_20  and  C_21
REMARK                            x       y       z     vdW  Elec       q    Type
REMARK                         _______ _______ _______ _____ _____    ______ ____
ROOT
ATOM      1  N   UNL     1       3.238   4.492  19.497  0.00  0.00    +0.000 N 
ATOM      2  C   UNL     1       2.629   5.685  19.190  0.00  0.00    +0.000 C 
ATOM      3  O   UNL     1       2.376   6.018  18.039  0.00  0.00    +0.000 OA
ATOM      4  N   UNL     1       2.390   6.478  20.288  0.00  0.00    +0.000 N 
ATOM      5  H   UNL     1       3.075   4.108  20.416  0.00  0.00    +0.000 HD
ATOM      6  H   UNL     1       2.947   6.276  21.112  0.00  0.00    +0.000 HD
ENDROOT
BRANCH   4   7
ATOM      7  C   UNL     1       1.773   7.751  20.210  0.00  0.00    +0.000 A 
ATOM      8  C   UNL     1       0.981   8.282  21.231  0.00  0.00    +0.000 A 
ATOM      9  C   UNL     1       0.309   9.489  21.051  0.00  0.00    +0.000 A 
ATOM     10  C   UNL     1       0.483  10.156  19.852  0.00  0.00    +0.000 A 
ATOM     11  N   UNL     1       1.291   9.710  18.862  0.00  0.00    +0.000 NA
ATOM     12  C   UNL     1       1.913   8.525  19.065  0.00  0.00    +0.000 A 
BRANCH  10  13
ATOM     13  O   UNL     1      -0.229  11.322  19.688  0.00  0.00    +0.000 OA
ATOM     14  C   UNL     1       0.406  12.433  20.313  0.00  0.00    +0.000 C 
ENDBRANCH  10  13
ENDBRANCH   4   7
BRANCH   1  15
ATOM     15  C   UNL     1       3.591   3.530  18.426  0.00  0.00    +0.000 C 
ATOM     16  C   UNL     1       2.464   3.490  17.364  0.00  0.00    +0.000 C 
ATOM     17  C   UNL     1       3.766   2.111  19.029  0.00  0.00    +0.000 C 
BRANCH  15  22
ATOM     18  C   UNL     1       6.172   4.464  15.661  0.00  0.00    +0.000 A 
ATOM     19  C   UNL     1       7.236   4.918  16.446  0.00  0.00    +0.000 A 
ATOM     20  C   UNL     1       7.145   4.914  17.840  0.00  0.00    +0.000 A 
ATOM     21  C   UNL     1       5.989   4.451  18.473  0.00  0.00    +0.000 A 
ATOM     22  C   UNL     1       4.890   4.000  17.726  0.00  0.00    +0.000 A 
ATOM     23  C   UNL     1       5.016   4.016  16.321  0.00  0.00    +0.000 A 
BRANCH  18  25
ATOM     24  C   UNL     1       5.344   3.726  13.444  0.00  0.00    +0.000 C 
ATOM     25  C   UNL     1       6.267   4.371  14.179  0.00  0.00    +0.000 C 
ATOM     26  C   UNL     1       7.473   4.994  13.533  0.00  0.00    +0.000 C 
ENDBRANCH  18  25
ENDBRANCH  15  22
ENDBRANCH   1  15
TORSDOF 5
ENDMDL
MODEL 7
REMARK VINA RESULT:      -7.9      2.674      4.387
REMARK  Name = 
REMARK  9 active torsions:
REMARK  status: ('A' for Active; 'I' for Inactive)
REMARK    1  A    between atoms: C_2  and  C_3
REMARK    2  A    between atoms: C_2  and  C_4
REMARK    3  A    between atoms: C_8  and  C_9
REMARK    4  A    between atoms: C_9  and  C_10
REMARK    5  A    between atoms: C_9  and  C_11
REMARK    6  A    between atoms: C_9  and  N_12
REMARK    7  A    between atoms: N_15  and  C_16
REMARK    8  A    between atoms: C_19  and  O_20
REMARK    9  A    between atoms: O_20  and  C_21
REMARK                            x       y       z     vdW  Elec       q    Type
REMARK                         _______ _______ _______ _____ _____    ______ ____
ROOT
ATOM      1  N   UNL     1       2.919   4.731  20.063  0.00  0.00    +0.000 N 
ATOM      2  C   UNL     1       2.322   5.883  19.611  0.00  0.00    +0.000 C 
ATOM      3  O   UNL     1       2.103   6.091  18.425  0.00  0.00    +0.000 OA
ATOM      4  N   UNL     1       2.055   6.790  20.610  0.00  0.00    +0.000 N 
ATOM      5  H   UNL     1       2.730   4.448  21.012  0.00  0.00    +0.000 HD
ATOM      6  H   UNL     1       2.589   6.678  21.467  0.00  0.00    +0.000 HD
ENDROOT
BRANCH   4   7
ATOM      7  C   UNL     1       1.444   8.047  20.379  0.00  0.00    +0.000 A 
ATOM      8  C   UNL     1       1.634   8.788  19.209  0.00  0.00    +0.000 A 
ATOM      9  C   UNL     1       1.097  10.067  19.087  0.00  0.00    +0.000 A 
ATOM     10  C   UNL     1       0.344  10.558  20.137  0.00  0.00    +0.000 A 
ATOM     11  N   UNL     1       0.079   9.850  21.259  0.00  0.00    +0.000 NA
ATOM     12  C   UNL     1       0.633   8.618  21.352  0.00  0.00    +0.000 A 
BRANCH  10  13
ATOM     13  O   UNL     1      -0.136  11.841  20.003  0.00  0.00    +0.000 OA
ATOM     14  C   UNL     1      -0.865  12.021  18.793  0.00  0.00    +0.000 C 
ENDBRANCH  10  13
ENDBRANCH   4   7
BRANCH   1  15
ATOM     15  C   UNL     1       3.298   3.658  19.111  0.00  0.00    +0.000 C 
ATOM     16  C   UNL     1       2.053   3.199  18.314  0.00  0.00    +0.000 C 
ATOM     17  C   UNL     1       3.877   2.446  19.888  0.00  0.00    +0.000 C 
BRANCH  15  22
ATOM     18  C   UNL     1       6.374   5.531  17.621  0.00  0.00    +0.000 A 
ATOM     19  C   UNL     1       6.257   5.182  16.272  0.00  0.00    +0.000 A 
ATOM     20  C   UNL     1       5.205   4.375  15.833  0.00  0.00    +0.000 A 
ATOM     21  C   UNL     1       4.249   3.905  16.736  0.00  0.00    +0.000 A 
ATOM     22  C   UNL     1       4.332   4.216  18.102  0.00  0.00    +0.000 A 
ATOM     23  C   UNL     1       5.407   5.035  18.511  0.00  0.00    +0.000 A 
BRANCH  18  25
ATOM     24  C   UNL     1       7.716   7.610  17.476  0.00  0.00    +0.000 C 
ATOM     25  C   UNL     1       7.428   6.460  18.110  0.00  0.00    +0.000 C 
ATOM     26  C   UNL     1       8.197   6.036  19.331  0.00  0.00    +0.000 C 
ENDBRANCH  18  25
ENDBRANCH  15  22
ENDBRANCH   1  15
TORSDOF 5
ENDMDL
MODEL 8
REMARK VINA RESULT:      -7.9      3.573      8.495
REMARK  Name = 
REMARK  9 active torsions:
REMARK  status: ('A' for Active; 'I' for Inactive)
REMARK    1  A    between atoms: C_2  and  C_3
REMARK    2  A    between atoms: C_2  and  C_4
REMARK    3  A    between atoms: C_8  and  C_9
REMARK    4  A    between atoms: C_9  and  C_10
REMARK    5  A    between atoms: C_9  and  C_11
REMARK    6  A    between atoms: C_9  and  N_12
REMARK    7  A    between atoms: N_15  and  C_16
REMARK    8  A    between atoms: C_19  and  O_20
REMARK    9  A    between atoms: O_20  and  C_21
REMARK                            x       y       z     vdW  Elec       q    Type
REMARK                         _______ _______ _______ _____ _____    ______ ____
ROOT
ATOM      1  N   UNL     1       6.965   6.005  15.740  0.00  0.00    +0.000 N 
ATOM      2  C   UNL     1       6.673   4.847  15.061  0.00  0.00    +0.000 C 
ATOM      3  O   UNL     1       6.371   3.807  15.632  0.00  0.00    +0.000 OA
ATOM      4  N   UNL     1       6.811   4.961  13.697  0.00  0.00    +0.000 N 
ATOM      5  H   UNL     1       6.827   6.878  15.254  0.00  0.00    +0.000 HD
ATOM      6  H   UNL     1       7.396   5.724  13.372  0.00  0.00    +0.000 HD
ENDROOT
BRANCH   4   7
ATOM      7  C   UNL     1       6.565   3.895  12.798  0.00  0.00    +0.000 A 
ATOM      8  C   UNL     1       5.282   3.442  12.480  0.00  0.00    +0.000 A 
ATOM      9  C   UNL     1       5.107   2.317  11.676  0.00  0.00    +0.000 A 
ATOM     10  C   UNL     1       6.236   1.695  11.177  0.00  0.00    +0.000 A 
ATOM     11  N   UNL     1       7.494   2.138  11.405  0.00  0.00    +0.000 NA
ATOM     12  C   UNL     1       7.627   3.222  12.205  0.00  0.00    +0.000 A 
BRANCH  10  13
ATOM     13  O   UNL     1       6.032   0.561  10.423  0.00  0.00    +0.000 OA
ATOM     14  C   UNL     1       6.029  -0.621  11.217  0.00  0.00    +0.000 C 
ENDBRANCH  10  13
ENDBRANCH   4   7
BRANCH   1  15
ATOM     15  C   UNL     1       6.892   6.047  17.221  0.00  0.00    +0.000 C 
ATOM     16  C   UNL     1       7.577   7.334  17.744  0.00  0.00    +0.000 C 
ATOM     17  C   UNL     1       7.615   4.811  17.818  0.00  0.00    +0.000 C 
BRANCH  15  22
ATOM     18  C   UNL     1       3.472   5.042  18.796  0.00  0.00    +0.000 A 
ATOM     19  C   UNL     1       2.713   6.181  18.507  0.00  0.00    +0.000 A 
ATOM     20  C   UNL     1       3.272   7.251  17.806  0.00  0.00    +0.000 A 
ATOM     21  C   UNL     1       4.601   7.200  17.377  0.00  0.00    +0.000 A 
ATOM     22  C   UNL     1       5.407   6.086  17.656  0.00  0.00    +0.000 A 
ATOM     23  C   UNL     1       4.809   5.021  18.365  0.00  0.00    +0.000 A 
BRANCH  18  25
ATOM     24  C   UNL     1       3.641   2.962  20.133  0.00  0.00    +0.000 C 
ATOM     25  C   UNL     1       2.886   3.848  19.461  0.00  0.00    +0.000 C 
ATOM     26  C   UNL     1       1.403   3.645  19.312  0.00  0.00    +0.000 C 
ENDBRANCH  18  25
ENDBRANCH  15  22
ENDBRANCH   1  15
TORSDOF 5
ENDMDL
MODEL 9
REMARK VINA RESULT:      -7.9      1.692      2.922
REMARK  Name = 
REMARK  9 active torsions:
REMARK  status: ('A' for Active; 'I' for Inactive)
REMARK    1  A    between atoms: C_2  and  C_3
REMARK    2  A    between atoms: C_2  and  C_4
REMARK    3  A    between atoms: C_8  and  C_9
REMARK    4  A    between atoms: C_9  and  C_10
REMARK    5  A    between atoms: C_9  and  C_11
REMARK    6  A    between atoms: C_9  and  N_12
REMARK    7  A    between atoms: N_15  and  C_16
REMARK    8  A    between atoms: C_19  and  O_20
REMARK    9  A    between atoms: O_20  and  C_21
REMARK                            x       y       z     vdW  Elec       q    Type
REMARK                         _______ _______ _______ _____ _____    ______ ____
ROOT
ATOM      1  N   UNL     1       3.517   4.912  19.436  0.00  0.00    +0.000 N 
ATOM      2  C   UNL     1       2.719   5.959  19.041  0.00  0.00    +0.000 C 
ATOM      3  O   UNL     1       2.265   6.050  17.907  0.00  0.00    +0.000 OA
ATOM      4  N   UNL     1       2.535   6.908  20.018  0.00  0.00    +0.000 N 
ATOM      5  H   UNL     1       3.537   4.686  20.419  0.00  0.00    +0.000 HD
ATOM      6  H   UNL     1       3.225   6.919  20.763  0.00  0.00    +0.000 HD
ENDROOT
BRANCH   4   7
ATOM      7  C   UNL     1       1.751   8.074  19.835  0.00  0.00    +0.000 A 
ATOM      8  C   UNL     1       1.793   8.851  18.674  0.00  0.00    +0.000 A 
ATOM      9  C   UNL     1       1.084  10.048  18.597  0.00  0.00    +0.000 A 
ATOM     10  C   UNL     1       0.314  10.416  19.684  0.00  0.00    +0.000 A 
ATOM     11  N   UNL     1       0.193   9.663  20.802  0.00  0.00    +0.000 NA
ATOM     12  C   UNL     1       0.911   8.516  20.849  0.00  0.00    +0.000 A 
BRANCH  10  13
ATOM     13  O   UNL     1      -0.339  11.625  19.594  0.00  0.00    +0.000 OA
ATOM     14  C   UNL     1      -1.102  11.737  18.397  0.00  0.00    +0.000 C 
ENDBRANCH  10  13
ENDBRANCH   4   7
BRANCH   1  15
ATOM     15  C   UNL     1       3.837   3.814  18.492  0.00  0.00    +0.000 C 
ATOM     16  C   UNL     1       2.679   3.636  17.481  0.00  0.00    +0.000 C 
ATOM     17  C   UNL     1       4.033   2.488  19.275  0.00  0.00    +0.000 C 
BRANCH  15  22
ATOM     18  C   UNL     1       6.287   4.498  15.541  0.00  0.00    +0.000 A 
ATOM     19  C   UNL     1       7.423   4.915  16.242  0.00  0.00    +0.000 A 
ATOM     20  C   UNL     1       7.420   4.964  17.638  0.00  0.00    +0.000 A 
ATOM     21  C   UNL     1       6.282   4.593  18.358  0.00  0.00    +0.000 A 
ATOM     22  C   UNL     1       5.114   4.182  17.698  0.00  0.00    +0.000 A 
ATOM     23  C   UNL     1       5.152   4.142  16.287  0.00  0.00    +0.000 A 
BRANCH  18  25
ATOM     24  C   UNL     1       5.317   3.671  13.415  0.00  0.00    +0.000 C 
ATOM     25  C   UNL     1       6.282   4.348  14.061  0.00  0.00    +0.000 C 
ATOM     26  C   UNL     1       7.438   4.952  13.311  0.00  0.00    +0.000 C 
ENDBRANCH  18  25
ENDBRANCH  15  22
ENDBRANCH   1  15
TORSDOF 5
ENDMDL
