MODEL 1
REMARK VINA RESULT:      -7.9      0.000      0.000
REMARK  Name = 
REMARK  4 active torsions:
REMARK  status: ('A' for Active; 'I' for Inactive)
REMARK    1  A    between atoms: O_1  and  C_2
REMARK    2  A    between atoms: C_7  and  C_8
REMARK    3  A    between atoms: C_10  and  C_11
REMARK    4  A    between atoms: C_26  and  O_27
REMARK                            x       y       z     vdW  Elec       q    Type
REMARK                         _______ _______ _______ _____ _____    ______ ____
ROOT
ATOM      1  C   UNL     1       1.099  12.384  18.908  0.00  0.00    +0.000 A 
ATOM      2  C   UNL     1      -0.260  12.548  18.676  0.00  0.00    +0.000 A 
ATOM      3  C   UNL     1      -1.103  11.451  18.856  0.00  0.00    +0.000 A 
ATOM      4  N   UNL     1      -0.671  10.309  19.471  0.00  0.00    +0.000 NA
ATOM      5  C   UNL     1       0.671  10.186  19.661  0.00  0.00    +0.000 A 
ATOM      6  C   UNL     1       1.511  11.072  18.985  0.00  0.00    +0.000 A 
ATOM      7  C   UNL     1       1.915  10.203  17.721  0.00  0.00    +0.000 C 
ATOM      8  C   UNL     1       1.915   8.801  18.308  0.00  0.00    +0.000 A 
ATOM      9  C   UNL     1       2.533   7.645  17.867  0.00  0.00    +0.000 A 
ATOM     10  C   UNL     1       2.712   6.617  18.796  0.00  0.00    +0.000 A 
ATOM     11  C   UNL     1       2.317   6.789  20.136  0.00  0.00    +0.000 A 
ATOM     12  C   UNL     1       1.605   7.929  20.518  0.00  0.00    +0.000 A 
ATOM     13  C   UNL     1       1.287   8.873  19.563  0.00  0.00    +0.000 A 
ENDROOT
BRANCH   3  14
ATOM     14  C   UNL     1      -2.463  11.485  18.287  0.00  0.00    +0.000 A 
ATOM     15  C   UNL     1      -3.584  11.914  19.017  0.00  0.00    +0.000 A 
ATOM     16  C   UNL     1      -4.857  11.924  18.433  0.00  0.00    +0.000 A 
ATOM     17  C   UNL     1      -5.049  11.513  17.113  0.00  0.00    +0.000 A 
ATOM     18  C   UNL     1      -3.951  11.068  16.396  0.00  0.00    +0.000 A 
ATOM     19  F   UNL     1      -4.109  10.649  15.132  0.00  0.00    +0.000 F 
ATOM     20  C   UNL     1      -2.679  11.043  16.958  0.00  0.00    +0.000 A 
ENDBRANCH   3  14
BRANCH   1  26
ATOM     21  C   UNL     1       2.914  14.167  19.034  0.00  0.00    +0.000 A 
ATOM     22  C   UNL     1       3.546  15.204  19.733  0.00  0.00    +0.000 A 
ATOM     23  C   UNL     1       3.114  15.560  21.015  0.00  0.00    +0.000 A 
ATOM     24  C   UNL     1       2.068  14.865  21.606  0.00  0.00    +0.000 A 
ATOM     25  C   UNL     1       1.445  13.837  20.906  0.00  0.00    +0.000 A 
ATOM     26  C   UNL     1       1.828  13.482  19.587  0.00  0.00    +0.000 A 
BRANCH  21  27
ATOM     27  O   UNL     1       3.363  13.831  17.786  0.00  0.00    +0.000 OA
ATOM     28  H   UNL     1       4.328  13.735  17.824  0.00  0.00    +0.000 HD
ENDBRANCH  21  27
ENDBRANCH   1  26
BRANCH  12  29
ATOM     29  O   UNL     1       1.363   8.182  21.837  0.00  0.00    +0.000 OA
ATOM     30  H   UNL     1       0.899   9.035  21.894  0.00  0.00    +0.000 HD
ENDBRANCH  12  29
TORSDOF 4
ENDMDL
MODEL 2
REMARK VINA RESULT:      -7.9      0.898      1.265
REMARK  Name = 
REMARK  4 active torsions:
REMARK  status: ('A' for Active; 'I' for Inactive)
REMARK    1  A    between atoms: O_1  and  C_2
REMARK    2  A    between atoms: C_7  and  C_8
REMARK    3  A    between atoms: C_10  and  C_11
REMARK    4  A    between atoms: C_26  and  O_27
REMARK                            x       y       z     vdW  Elec       q    Type
REMARK                         _______ _______ _______ _____ _____    ______ ____
ROOT
ATOM      1  C   UNL     1       1.133  12.328  18.804  0.00  0.00    +0.000 A 
ATOM      2  C   UNL     1      -0.227  12.504  18.589  0.00  0.00    +0.000 A 
ATOM      3  C   UNL     1      -1.083  11.429  18.826  0.00  0.00    +0.000 A 
ATOM      4  N   UNL     1      -0.657  10.305  19.478  0.00  0.00    +0.000 NA
ATOM      5  C   UNL     1       0.686  10.169  19.651  0.00  0.00    +0.000 A 
ATOM      6  C   UNL     1       1.527  11.014  18.927  0.00  0.00    +0.000 A 
ATOM      7  C   UNL     1       1.897  10.090  17.692  0.00  0.00    +0.000 C 
ATOM      8  C   UNL     1       1.886   8.712  18.334  0.00  0.00    +0.000 A 
ATOM      9  C   UNL     1       2.479   7.530  17.928  0.00  0.00    +0.000 A 
ATOM     10  C   UNL     1       2.658   6.537  18.894  0.00  0.00    +0.000 A 
ATOM     11  C   UNL     1       2.289   6.767  20.232  0.00  0.00    +0.000 A 
ATOM     12  C   UNL     1       1.601   7.932  20.581  0.00  0.00    +0.000 A 
ATOM     13  C   UNL     1       1.280   8.843  19.595  0.00  0.00    +0.000 A 
ENDROOT
BRANCH   3  14
ATOM     14  C   UNL     1      -2.452  11.461  18.278  0.00  0.00    +0.000 A 
ATOM     15  C   UNL     1      -3.551  11.943  19.006  0.00  0.00    +0.000 A 
ATOM     16  C   UNL     1      -4.834  11.951  18.444  0.00  0.00    +0.000 A 
ATOM     17  C   UNL     1      -5.056  11.482  17.148  0.00  0.00    +0.000 A 
ATOM     18  C   UNL     1      -3.979  10.985  16.434  0.00  0.00    +0.000 A 
ATOM     19  F   UNL     1      -4.167  10.511  15.194  0.00  0.00    +0.000 F 
ATOM     20  C   UNL     1      -2.698  10.962  16.976  0.00  0.00    +0.000 A 
ENDBRANCH   3  14
BRANCH   1  26
ATOM     21  C   UNL     1       1.820  13.779  20.783  0.00  0.00    +0.000 A 
ATOM     22  C   UNL     1       2.576  14.837  21.304  0.00  0.00    +0.000 A 
ATOM     23  C   UNL     1       3.402  15.596  20.467  0.00  0.00    +0.000 A 
ATOM     24  C   UNL     1       3.454  15.311  19.110  0.00  0.00    +0.000 A 
ATOM     25  C   UNL     1       2.702  14.258  18.600  0.00  0.00    +0.000 A 
ATOM     26  C   UNL     1       1.890  13.440  19.428  0.00  0.00    +0.000 A 
BRANCH  21  27
ATOM     27  O   UNL     1       1.012  13.059  21.620  0.00  0.00    +0.000 OA
ATOM     28  H   UNL     1       1.567  12.644  22.299  0.00  0.00    +0.000 HD
ENDBRANCH  21  27
ENDBRANCH   1  26
BRANCH  12  29
ATOM     29  O   UNL     1       1.385   8.241  21.892  0.00  0.00    +0.000 OA
ATOM     30  H   UNL     1       0.915   7.492  22.299  0.00  0.00    +0.000 HD
ENDBRANCH  12  29
TORSDOF 4
ENDMDL
MODEL 3
REMARK VINA RESULT:      -7.7      0.927      1.296
REMARK  Name = 
REMARK  4 active torsions:
REMARK  status: ('A' for Active; 'I' for Inactive)
REMARK    1  A    between atoms: O_1  and  C_2
REMARK    2  A    between atoms: C_7  and  C_8
REMARK    3  A    between atoms: C_10  and  C_11
REMARK    4  A    between atoms: C_26  and  O_27
REMARK                            x       y       z     vdW  Elec       q    Type
REMARK                         _______ _______ _______ _____ _____    ______ ____
ROOT
ATOM      1  C   UNL     1       1.109  12.380  18.846  0.00  0.00    +0.000 A 
ATOM      2  C   UNL     1      -0.249  12.548  18.610  0.00  0.00    +0.000 A 
ATOM      3  C   UNL     1      -1.100  11.463  18.819  0.00  0.00    +0.000 A 
ATOM      4  N   UNL     1      -0.677  10.334  19.463  0.00  0.00    +0.000 NA
ATOM      5  C   UNL     1       0.665  10.206  19.657  0.00  0.00    +0.000 A 
ATOM      6  C   UNL     1       1.511  11.067  18.957  0.00  0.00    +0.000 A 
ATOM      7  C   UNL     1       1.908  10.163  17.717  0.00  0.00    +0.000 C 
ATOM      8  C   UNL     1       1.898   8.777  18.340  0.00  0.00    +0.000 A 
ATOM      9  C   UNL     1       2.506   7.605  17.928  0.00  0.00    +0.000 A 
ATOM     10  C   UNL     1       2.678   6.600  18.885  0.00  0.00    +0.000 A 
ATOM     11  C   UNL     1       2.285   6.809  20.219  0.00  0.00    +0.000 A 
ATOM     12  C   UNL     1       1.582   7.965  20.572  0.00  0.00    +0.000 A 
ATOM     13  C   UNL     1       1.270   8.886  19.593  0.00  0.00    +0.000 A 
ENDROOT
BRANCH   3  14
ATOM     14  C   UNL     1      -2.460  11.492  18.249  0.00  0.00    +0.000 A 
ATOM     15  C   UNL     1      -2.735  11.142  16.917  0.00  0.00    +0.000 A 
ATOM     16  C   UNL     1      -4.043  11.188  16.420  0.00  0.00    +0.000 A 
ATOM     17  C   UNL     1      -5.109  11.582  17.230  0.00  0.00    +0.000 A 
ATOM     18  C   UNL     1      -4.841  11.950  18.538  0.00  0.00    +0.000 A 
ATOM     19  F   UNL     1      -5.843  12.350  19.334  0.00  0.00    +0.000 F 
ATOM     20  C   UNL     1      -3.548  11.917  19.050  0.00  0.00    +0.000 A 
ENDBRANCH   3  14
BRANCH   1  26
ATOM     21  C   UNL     1       2.808  14.279  18.857  0.00  0.00    +0.000 A 
ATOM     22  C   UNL     1       3.455  15.320  19.535  0.00  0.00    +0.000 A 
ATOM     23  C   UNL     1       3.167  15.576  20.880  0.00  0.00    +0.000 A 
ATOM     24  C   UNL     1       2.252  14.778  21.551  0.00  0.00    +0.000 A 
ATOM     25  C   UNL     1       1.612  13.747  20.872  0.00  0.00    +0.000 A 
ATOM     26  C   UNL     1       1.846  13.490  19.497  0.00  0.00    +0.000 A 
BRANCH  21  27
ATOM     27  O   UNL     1       3.115  14.041  17.545  0.00  0.00    +0.000 OA
ATOM     28  H   UNL     1       3.970  13.583  17.510  0.00  0.00    +0.000 HD
ENDBRANCH  21  27
ENDBRANCH   1  26
BRANCH  12  29
ATOM     29  O   UNL     1       1.342   8.254  21.883  0.00  0.00    +0.000 OA
ATOM     30  H   UNL     1       1.719   7.534  22.419  0.00  0.00    +0.000 HD
ENDBRANCH  12  29
TORSDOF 4
ENDMDL
MODEL 4
REMARK VINA RESULT:      -7.7      7.573     10.321
REMARK  Name = 
REMARK  4 active torsions:
REMARK  status: ('A' for Active; 'I' for Inactive)
REMARK    1  A    between atoms: O_1  and  C_2
REMARK    2  A    between atoms: C_7  and  C_8
REMARK    3  A    between atoms: C_10  and  C_11
REMARK    4  A    between atoms: C_26  and  O_27
REMARK                            x       y       z     vdW  Elec       q    Type
REMARK                         _______ _______ _______ _____ _____    ______ ____
ROOT
ATOM      1  C   UNL     1       4.070   4.748  17.063  0.00  0.00    +0.000 A 
ATOM      2  C   UNL     1       4.359   4.109  15.865  0.00  0.00    +0.000 A 
ATOM      3  C   UNL     1       5.657   4.196  15.362  0.00  0.00    +0.000 A 
ATOM      4  N   UNL     1       6.688   4.680  16.118  0.00  0.00    +0.000 NA
ATOM      5  C   UNL     1       6.354   5.313  17.276  0.00  0.00    +0.000 A 
ATOM      6  C   UNL     1       5.017   5.664  17.466  0.00  0.00    +0.000 A 
ATOM      7  C   UNL     1       5.029   7.178  16.995  0.00  0.00    +0.000 C 
ATOM      8  C   UNL     1       6.427   7.610  17.408  0.00  0.00    +0.000 A 
ATOM      9  C   UNL     1       6.945   8.873  17.633  0.00  0.00    +0.000 A 
ATOM     10  C   UNL     1       8.115   8.961  18.392  0.00  0.00    +0.000 A 
ATOM     11  C   UNL     1       8.701   7.805  18.938  0.00  0.00    +0.000 A 
ATOM     12  C   UNL     1       8.207   6.540  18.603  0.00  0.00    +0.000 A 
ATOM     13  C   UNL     1       7.148   6.446  17.723  0.00  0.00    +0.000 A 
ENDROOT
BRANCH   3  14
ATOM     14  C   UNL     1       5.909   3.847  13.951  0.00  0.00    +0.000 A 
ATOM     15  C   UNL     1       7.164   4.002  13.341  0.00  0.00    +0.000 A 
ATOM     16  C   UNL     1       7.354   3.661  11.996  0.00  0.00    +0.000 A 
ATOM     17  C   UNL     1       6.305   3.156  11.225  0.00  0.00    +0.000 A 
ATOM     18  C   UNL     1       5.060   3.022  11.816  0.00  0.00    +0.000 A 
ATOM     19  F   UNL     1       4.030   2.558  11.094  0.00  0.00    +0.000 F 
ATOM     20  C   UNL     1       4.848   3.362  13.148  0.00  0.00    +0.000 A 
ENDBRANCH   3  14
BRANCH   1  26
ATOM     21  C   UNL     1       3.633   3.184  19.027  0.00  0.00    +0.000 A 
ATOM     22  C   UNL     1       2.736   2.573  19.911  0.00  0.00    +0.000 A 
ATOM     23  C   UNL     1       1.360   2.803  19.796  0.00  0.00    +0.000 A 
ATOM     24  C   UNL     1       0.883   3.625  18.784  0.00  0.00    +0.000 A 
ATOM     25  C   UNL     1       1.781   4.229  17.910  0.00  0.00    +0.000 A 
ATOM     26  C   UNL     1       3.184   4.053  18.028  0.00  0.00    +0.000 A 
BRANCH  21  27
ATOM     27  O   UNL     1       4.973   2.933  19.153  0.00  0.00    +0.000 OA
ATOM     28  H   UNL     1       5.350   2.835  18.264  0.00  0.00    +0.000 HD
ENDBRANCH  21  27
ENDBRANCH   1  26
BRANCH  12  29
ATOM     29  O   UNL     1       8.659   5.428  19.251  0.00  0.00    +0.000 OA
ATOM     30  H   UNL     1       8.017   5.212  19.950  0.00  0.00    +0.000 HD
ENDBRANCH  12  29
TORSDOF 4
ENDMDL
MODEL 5
REMARK VINA RESULT:      -7.6      2.464      6.516
REMARK  Name = 
REMARK  4 active torsions:
REMARK  status: ('A' for Active; 'I' for Inactive)
REMARK    1  A    between atoms: O_1  and  C_2
REMARK    2  A    between atoms: C_7  and  C_8
REMARK    3  A    between atoms: C_10  and  C_11
REMARK    4  A    between atoms: C_26  and  O_27
REMARK                            x       y       z     vdW  Elec       q    Type
REMARK                         _______ _______ _______ _____ _____    ______ ____
ROOT
ATOM      1  C   UNL     1      -1.063  11.516  18.286  0.00  0.00    +0.000 A 
ATOM      2  C   UNL     1      -0.486  10.257  18.387  0.00  0.00    +0.000 A 
ATOM      3  C   UNL     1       0.520  10.060  19.332  0.00  0.00    +0.000 A 
ATOM      4  N   UNL     1       0.784  10.987  20.302  0.00  0.00    +0.000 NA
ATOM      5  C   UNL     1       0.209  12.212  20.151  0.00  0.00    +0.000 A 
ATOM      6  C   UNL     1      -0.358  12.519  18.914  0.00  0.00    +0.000 A 
ATOM      7  C   UNL     1       0.825  13.323  18.228  0.00  0.00    +0.000 C 
ATOM      8  C   UNL     1       1.462  14.003  19.428  0.00  0.00    +0.000 A 
ATOM      9  C   UNL     1       2.278  15.117  19.498  0.00  0.00    +0.000 A 
ATOM     10  C   UNL     1       2.379  15.762  20.735  0.00  0.00    +0.000 A 
ATOM     11  C   UNL     1       1.636  15.309  21.840  0.00  0.00    +0.000 A 
ATOM     12  C   UNL     1       0.905  14.120  21.756  0.00  0.00    +0.000 A 
ATOM     13  C   UNL     1       0.934  13.396  20.581  0.00  0.00    +0.000 A 
ENDROOT
BRANCH   3  14
ATOM     14  C   UNL     1       1.387   8.871  19.228  0.00  0.00    +0.000 A 
ATOM     15  C   UNL     1       1.485   7.909  20.246  0.00  0.00    +0.000 A 
ATOM     16  C   UNL     1       2.325   6.797  20.102  0.00  0.00    +0.000 A 
ATOM     17  C   UNL     1       3.085   6.613  18.946  0.00  0.00    +0.000 A 
ATOM     18  C   UNL     1       3.008   7.569  17.948  0.00  0.00    +0.000 A 
ATOM     19  F   UNL     1       3.742   7.427  16.834  0.00  0.00    +0.000 F 
ATOM     20  C   UNL     1       2.186   8.684  18.073  0.00  0.00    +0.000 A 
ENDBRANCH   3  14
BRANCH   1  26
ATOM     21  C   UNL     1      -3.149  11.438  16.826  0.00  0.00    +0.000 A 
ATOM     22  C   UNL     1      -4.542  11.515  16.700  0.00  0.00    +0.000 A 
ATOM     23  C   UNL     1      -5.341  11.778  17.819  0.00  0.00    +0.000 A 
ATOM     24  C   UNL     1      -4.746  11.985  19.055  0.00  0.00    +0.000 A 
ATOM     25  C   UNL     1      -3.362  11.906  19.172  0.00  0.00    +0.000 A 
ATOM     26  C   UNL     1      -2.527  11.596  18.068  0.00  0.00    +0.000 A 
BRANCH  21  27
ATOM     27  O   UNL     1      -2.389  11.192  15.715  0.00  0.00    +0.000 OA
ATOM     28  H   UNL     1      -2.193  12.040  15.285  0.00  0.00    +0.000 HD
ENDBRANCH  21  27
ENDBRANCH   1  26
BRANCH  12  29
ATOM     29  O   UNL     1       0.055  13.760  22.760  0.00  0.00    +0.000 OA
ATOM     30  H   UNL     1       0.123  14.432  23.460  0.00  0.00    +0.000 HD
ENDBRANCH  12  29
TORSDOF 4
ENDMDL
MODEL 6
REMARK VINA RESULT:      -7.6      1.296      1.815
REMARK  Name = 
REMARK  4 active torsions:
REMARK  status: ('A' for Active; 'I' for Inactive)
REMARK    1  A    between atoms: O_1  and  C_2
REMARK    2  A    between atoms: C_7  and  C_8
REMARK    3  A    between atoms: C_10  and  C_11
REMARK    4  A    between atoms: C_26  and  O_27
REMARK                            x       y       z     vdW  Elec       q    Type
REMARK                         _______ _______ _______ _____ _____    ______ ____
ROOT
ATOM      1  C   UNL     1       1.037  12.435  18.878  0.00  0.00    +0.000 A 
ATOM      2  C   UNL     1      -0.322  12.587  18.641  0.00  0.00    +0.000 A 
ATOM      3  C   UNL     1      -1.158  11.487  18.829  0.00  0.00    +0.000 A 
ATOM      4  N   UNL     1      -0.720  10.353  19.456  0.00  0.00    +0.000 NA
ATOM      5  C   UNL     1       0.623  10.242  19.652  0.00  0.00    +0.000 A 
ATOM      6  C   UNL     1       1.458  11.127  18.969  0.00  0.00    +0.000 A 
ATOM      7  C   UNL     1       1.873  10.249  17.716  0.00  0.00    +0.000 C 
ATOM      8  C   UNL     1       1.881   8.853  18.316  0.00  0.00    +0.000 A 
ATOM      9  C   UNL     1       2.508   7.697  17.887  0.00  0.00    +0.000 A 
ATOM     10  C   UNL     1       2.691   6.679  18.827  0.00  0.00    +0.000 A 
ATOM     11  C   UNL     1       2.291   6.861  20.164  0.00  0.00    +0.000 A 
ATOM     12  C   UNL     1       1.570   8.000  20.533  0.00  0.00    +0.000 A 
ATOM     13  C   UNL     1       1.248   8.933  19.568  0.00  0.00    +0.000 A 
ENDROOT
BRANCH   3  14
ATOM     14  C   UNL     1      -2.516  11.505  18.255  0.00  0.00    +0.000 A 
ATOM     15  C   UNL     1      -2.785  11.149  16.923  0.00  0.00    +0.000 A 
ATOM     16  C   UNL     1      -4.092  11.186  16.422  0.00  0.00    +0.000 A 
ATOM     17  C   UNL     1      -5.163  11.574  17.228  0.00  0.00    +0.000 A 
ATOM     18  C   UNL     1      -4.901  11.947  18.536  0.00  0.00    +0.000 A 
ATOM     19  F   UNL     1      -5.908  12.342  19.328  0.00  0.00    +0.000 F 
ATOM     20  C   UNL     1      -3.610  11.924  19.052  0.00  0.00    +0.000 A 
ENDBRANCH   3  14
BRANCH   1  26
ATOM     21  C   UNL     1       1.657  13.837  20.914  0.00  0.00    +0.000 A 
ATOM     22  C   UNL     1       2.378  14.896  21.481  0.00  0.00    +0.000 A 
ATOM     23  C   UNL     1       3.198  15.702  20.682  0.00  0.00    +0.000 A 
ATOM     24  C   UNL     1       3.278  15.462  19.318  0.00  0.00    +0.000 A 
ATOM     25  C   UNL     1       2.560  14.408  18.762  0.00  0.00    +0.000 A 
ATOM     26  C   UNL     1       1.756  13.545  19.550  0.00  0.00    +0.000 A 
BRANCH  21  27
ATOM     27  O   UNL     1       0.853  13.071  21.713  0.00  0.00    +0.000 OA
ATOM     28  H   UNL     1      -0.070  13.322  21.548  0.00  0.00    +0.000 HD
ENDBRANCH  21  27
ENDBRANCH   1  26
BRANCH  12  29
ATOM     29  O   UNL     1       1.322   8.263  21.848  0.00  0.00    +0.000 OA
ATOM     30  H   UNL     1       0.432   7.928  22.055  0.00  0.00    +0.000 HD
ENDBRANCH  12  29
TORSDOF 4
ENDMDL
MODEL 7
REMARK VINA RESULT:      -7.6      2.630      6.637
REMARK  Name = 
REMARK  4 active torsions:
REMARK  status: ('A' for Active; 'I' for Inactive)
REMARK    1  A    between atoms: O_1  and  C_2
REMARK    2  A    between atoms: C_7  and  C_8
REMARK    3  A    between atoms: C_10  and  C_11
REMARK    4  A    between atoms: C_26  and  O_27
REMARK                            x       y       z     vdW  Elec       q    Type
REMARK                         _______ _______ _______ _____ _____    ______ ____
ROOT
ATOM      1  C   UNL     1      -1.140  11.596  18.248  0.00  0.00    +0.000 A 
ATOM      2  C   UNL     1      -0.526  10.351  18.286  0.00  0.00    +0.000 A 
ATOM      3  C   UNL     1       0.501  10.143  19.206  0.00  0.00    +0.000 A 
ATOM      4  N   UNL     1       0.754  11.034  20.211  0.00  0.00    +0.000 NA
ATOM      5  C   UNL     1       0.143  12.248  20.122  0.00  0.00    +0.000 A 
ATOM      6  C   UNL     1      -0.453  12.592  18.908  0.00  0.00    +0.000 A 
ATOM      7  C   UNL     1       0.695  13.457  18.240  0.00  0.00    +0.000 C 
ATOM      8  C   UNL     1       1.334  14.103  19.459  0.00  0.00    +0.000 A 
ATOM      9  C   UNL     1       2.119  15.236  19.565  0.00  0.00    +0.000 A 
ATOM     10  C   UNL     1       2.223  15.829  20.826  0.00  0.00    +0.000 A 
ATOM     11  C   UNL     1       1.512  15.308  21.922  0.00  0.00    +0.000 A 
ATOM     12  C   UNL     1       0.813  14.103  21.798  0.00  0.00    +0.000 A 
ATOM     13  C   UNL     1       0.842  13.432  20.592  0.00  0.00    +0.000 A 
ENDROOT
BRANCH   3  14
ATOM     14  C   UNL     1       1.398   8.985  19.036  0.00  0.00    +0.000 A 
ATOM     15  C   UNL     1       2.218   8.816  17.908  0.00  0.00    +0.000 A 
ATOM     16  C   UNL     1       3.051   7.697  17.790  0.00  0.00    +0.000 A 
ATOM     17  C   UNL     1       3.093   6.720  18.786  0.00  0.00    +0.000 A 
ATOM     18  C   UNL     1       2.271   6.870  19.890  0.00  0.00    +0.000 A 
ATOM     19  F   UNL     1       2.276   5.938  20.853  0.00  0.00    +0.000 F 
ATOM     20  C   UNL     1       1.431   7.970  20.024  0.00  0.00    +0.000 A 
ENDBRANCH   3  14
BRANCH   1  26
ATOM     21  C   UNL     1      -3.251  11.459  16.828  0.00  0.00    +0.000 A 
ATOM     22  C   UNL     1      -4.647  11.505  16.728  0.00  0.00    +0.000 A 
ATOM     23  C   UNL     1      -5.430  11.765  17.859  0.00  0.00    +0.000 A 
ATOM     24  C   UNL     1      -4.817  11.999  19.081  0.00  0.00    +0.000 A 
ATOM     25  C   UNL     1      -3.430  11.950  19.173  0.00  0.00    +0.000 A 
ATOM     26  C   UNL     1      -2.609  11.644  18.057  0.00  0.00    +0.000 A 
BRANCH  21  27
ATOM     27  O   UNL     1      -2.507  11.214  15.707  0.00  0.00    +0.000 OA
ATOM     28  H   UNL     1      -2.977  10.559  15.165  0.00  0.00    +0.000 HD
ENDBRANCH  21  27
ENDBRANCH   1  26
BRANCH  12  29
ATOM     29  O   UNL     1      -0.010  13.676  22.798  0.00  0.00    +0.000 OA
ATOM     30  H   UNL     1       0.484  13.030  23.332  0.00  0.00    +0.000 HD
ENDBRANCH  12  29
TORSDOF 4
ENDMDL
MODEL 8
REMARK VINA RESULT:      -7.6      1.291      5.482
REMARK  Name = 
REMARK  4 active torsions:
REMARK  status: ('A' for Active; 'I' for Inactive)
REMARK    1  A    between atoms: O_1  and  C_2
REMARK    2  A    between atoms: C_7  and  C_8
REMARK    3  A    between atoms: C_10  and  C_11
REMARK    4  A    between atoms: C_26  and  O_27
REMARK                            x       y       z     vdW  Elec       q    Type
REMARK                         _______ _______ _______ _____ _____    ______ ____
ROOT
ATOM      1  C   UNL     1       0.631  10.072  19.412  0.00  0.00    +0.000 A 
ATOM      2  C   UNL     1      -0.639  10.105  18.852  0.00  0.00    +0.000 A 
ATOM      3  C   UNL     1      -1.117  11.319  18.360  0.00  0.00    +0.000 A 
ATOM      4  N   UNL     1      -0.298  12.402  18.203  0.00  0.00    +0.000 NA
ATOM      5  C   UNL     1       0.931  12.329  18.784  0.00  0.00    +0.000 A 
ATOM      6  C   UNL     1       1.157  11.310  19.710  0.00  0.00    +0.000 A 
ATOM      7  C   UNL     1       0.889  12.073  21.074  0.00  0.00    +0.000 C 
ATOM      8  C   UNL     1       1.365  13.475  20.732  0.00  0.00    +0.000 A 
ATOM      9  C   UNL     1       1.757  14.514  21.557  0.00  0.00    +0.000 A 
ATOM     10  C   UNL     1       2.529  15.530  20.987  0.00  0.00    +0.000 A 
ATOM     11  C   UNL     1       2.923  15.457  19.638  0.00  0.00    +0.000 A 
ATOM     12  C   UNL     1       2.421  14.446  18.813  0.00  0.00    +0.000 A 
ATOM     13  C   UNL     1       1.529  13.533  19.338  0.00  0.00    +0.000 A 
ENDROOT
BRANCH   3  14
ATOM     14  C   UNL     1      -2.560  11.472  18.095  0.00  0.00    +0.000 A 
ATOM     15  C   UNL     1      -3.138  11.195  16.845  0.00  0.00    +0.000 A 
ATOM     16  C   UNL     1      -4.514  11.358  16.640  0.00  0.00    +0.000 A 
ATOM     17  C   UNL     1      -5.349  11.798  17.668  0.00  0.00    +0.000 A 
ATOM     18  C   UNL     1      -4.782  12.094  18.896  0.00  0.00    +0.000 A 
ATOM     19  F   UNL     1      -5.557  12.536  19.896  0.00  0.00    +0.000 F 
ATOM     20  C   UNL     1      -3.417  11.945  19.119  0.00  0.00    +0.000 A 
ENDBRANCH   3  14
BRANCH   1  26
ATOM     21  C   UNL     1       1.812   7.909  20.060  0.00  0.00    +0.000 A 
ATOM     22  C   UNL     1       2.620   6.820  19.711  0.00  0.00    +0.000 A 
ATOM     23  C   UNL     1       3.145   6.713  18.417  0.00  0.00    +0.000 A 
ATOM     24  C   UNL     1       2.879   7.704  17.484  0.00  0.00    +0.000 A 
ATOM     25  C   UNL     1       2.074   8.783  17.838  0.00  0.00    +0.000 A 
ATOM     26  C   UNL     1       1.490   8.898  19.125  0.00  0.00    +0.000 A 
BRANCH  21  27
ATOM     27  O   UNL     1       1.321   7.997  21.334  0.00  0.00    +0.000 OA
ATOM     28  H   UNL     1       1.688   7.263  21.854  0.00  0.00    +0.000 HD
ENDBRANCH  21  27
ENDBRANCH   1  26
BRANCH  12  29
ATOM     29  O   UNL     1       2.920  14.270  17.556  0.00  0.00    +0.000 OA
ATOM     30  H   UNL     1       2.766  15.091  17.058  0.00  0.00    +0.000 HD
ENDBRANCH  12  29
TORSDOF 4
ENDMDL
MODEL 9
REMARK VINA RESULT:      -7.5      2.955      6.494
REMARK  Name = 
REMARK  4 active torsions:
REMARK  status: ('A' for Active; 'I' for Inactive)
REMARK    1  A    between atoms: O_1  and  C_2
REMARK    2  A    between atoms: C_7  and  C_8
REMARK    3  A    between atoms: C_10  and  C_11
REMARK    4  A    between atoms: C_26  and  O_27
REMARK                            x       y       z     vdW  Elec       q    Type
REMARK                         _______ _______ _______ _____ _____    ______ ____
ROOT
ATOM      1  C   UNL     1       0.478  10.904  19.108  0.00  0.00    +0.000 A 
ATOM      2  C   UNL     1       1.331  11.962  18.825  0.00  0.00    +0.000 A 
ATOM      3  C   UNL     1       1.046  13.211  19.376  0.00  0.00    +0.000 A 
ATOM      4  N   UNL     1       0.105  13.364  20.356  0.00  0.00    +0.000 NA
ATOM      5  C   UNL     1      -0.718  12.305  20.586  0.00  0.00    +0.000 A 
ATOM      6  C   UNL     1      -0.735  11.274  19.645  0.00  0.00    +0.000 A 
ATOM      7  C   UNL     1      -1.994  11.680  18.771  0.00  0.00    +0.000 C 
ATOM      8  C   UNL     1      -2.887  12.331  19.815  0.00  0.00    +0.000 A 
ATOM      9  C   UNL     1      -4.252  12.555  19.813  0.00  0.00    +0.000 A 
ATOM     10  C   UNL     1      -4.867  12.786  21.047  0.00  0.00    +0.000 A 
ATOM     11  C   UNL     1      -4.118  12.741  22.237  0.00  0.00    +0.000 A 
ATOM     12  C   UNL     1      -2.727  12.615  22.189  0.00  0.00    +0.000 A 
ATOM     13  C   UNL     1      -2.102  12.547  20.960  0.00  0.00    +0.000 A 
ENDROOT
BRANCH   3  14
ATOM     14  C   UNL     1       1.703  14.411  18.824  0.00  0.00    +0.000 A 
ATOM     15  C   UNL     1       1.095  15.677  18.818  0.00  0.00    +0.000 A 
ATOM     16  C   UNL     1       1.758  16.787  18.279  0.00  0.00    +0.000 A 
ATOM     17  C   UNL     1       3.038  16.668  17.735  0.00  0.00    +0.000 A 
ATOM     18  C   UNL     1       3.633  15.418  17.718  0.00  0.00    +0.000 A 
ATOM     19  F   UNL     1       4.854  15.271  17.185  0.00  0.00    +0.000 F 
ATOM     20  C   UNL     1       2.990  14.302  18.242  0.00  0.00    +0.000 A 
ENDBRANCH   3  14
BRANCH   1  26
ATOM     21  C   UNL     1       1.805   8.842  18.413  0.00  0.00    +0.000 A 
ATOM     22  C   UNL     1       2.356   7.594  18.729  0.00  0.00    +0.000 A 
ATOM     23  C   UNL     1       2.168   7.038  20.000  0.00  0.00    +0.000 A 
ATOM     24  C   UNL     1       1.413   7.721  20.944  0.00  0.00    +0.000 A 
ATOM     25  C   UNL     1       0.870   8.961  20.623  0.00  0.00    +0.000 A 
ATOM     26  C   UNL     1       1.080   9.572  19.360  0.00  0.00    +0.000 A 
BRANCH  21  27
ATOM     27  O   UNL     1       1.993   9.358  17.160  0.00  0.00    +0.000 OA
ATOM     28  H   UNL     1       1.269   9.050  16.591  0.00  0.00    +0.000 HD
ENDBRANCH  21  27
ENDBRANCH   1  26
BRANCH  12  29
ATOM     29  O   UNL     1      -2.013  12.405  23.332  0.00  0.00    +0.000 OA
ATOM     30  H   UNL     1      -1.698  13.270  23.647  0.00  0.00    +0.000 HD
ENDBRANCH  12  29
TORSDOF 4
ENDMDL
