MODEL 1
REMARK VINA RESULT:      -6.9      0.000      0.000
REMARK  Name = 
REMARK  9 active torsions:
REMARK  status: ('A' for Active; 'I' for Inactive)
REMARK    1  A    between atoms: C_1  and  C_2
REMARK    2  A    between atoms: C_2  and  C_3
REMARK    3  A    between atoms: C_3  and  C_4
REMARK    4  A    between atoms: C_4  and  C_5
REMARK    5  A    between atoms: C_5  and  C_6
REMARK    6  A    between atoms: C_6  and  N_7
REMARK    7  A    between atoms: N_10  and  C_11
REMARK    8  A    between atoms: C_11  and  C_12
REMARK    9  A    between atoms: C_11  and  C_20
REMARK                            x       y       z     vdW  Elec       q    Type
REMARK                         _______ _______ _______ _____ _____    ______ ____
ROOT
ATOM      1  C   UNL     1       6.267   4.631  17.750  0.00  0.00    +0.000 C 
ENDROOT
BRANCH   1   2
ATOM      2  C   UNL     1       7.079   5.918  17.851  0.00  0.00    +0.000 A 
ATOM      3  C   UNL     1       7.001   6.908  16.845  0.00  0.00    +0.000 A 
ATOM      4  C   UNL     1       7.552   8.179  17.032  0.00  0.00    +0.000 A 
ATOM      5  C   UNL     1       8.254   8.457  18.198  0.00  0.00    +0.000 A 
ATOM      6 CL   UNL     1       8.863  10.042  18.461  0.00  0.00    +0.000 Cl
ATOM      7  C   UNL     1       8.450   7.468  19.156  0.00  0.00    +0.000 A 
ATOM      8  C   UNL     1       7.870   6.205  18.983  0.00  0.00    +0.000 A 
ATOM      9 CL   UNL     1       8.160   5.028  20.213  0.00  0.00    +0.000 Cl
ENDBRANCH   1   2
BRANCH   1  10
ATOM     10  C   UNL     1       4.939   4.559  18.536  0.00  0.00    +0.000 A 
ATOM     11  C   UNL     1       4.737   3.476  19.420  0.00  0.00    +0.000 A 
ATOM     12  C   UNL     1       3.522   3.283  20.081  0.00  0.00    +0.000 A 
ATOM     13  C   UNL     1       2.478   4.174  19.880  0.00  0.00    +0.000 A 
ATOM     14 CL   UNL     1       0.959   3.896  20.630  0.00  0.00    +0.000 Cl
ATOM     15  C   UNL     1       2.673   5.307  19.103  0.00  0.00    +0.000 A 
ATOM     16  C   UNL     1       3.916   5.535  18.497  0.00  0.00    +0.000 A 
ATOM     17 CL   UNL     1       4.109   7.106  17.798  0.00  0.00    +0.000 Cl
ENDBRANCH   1  10
BRANCH   1  21
ATOM     18  N   UNL     1       6.310   4.004  14.186  0.00  0.00    +0.000 N 
ATOM     19  C   UNL     1       4.982   4.377  14.315  0.00  0.00    +0.000 A 
ATOM     20  C   UNL     1       4.783   4.650  15.641  0.00  0.00    +0.000 A 
ATOM     21  N   UNL     1       5.989   4.426  16.298  0.00  0.00    +0.000 N 
ATOM     22  C   UNL     1       6.889   3.987  15.396  0.00  0.00    +0.000 A 
BRANCH  18  23
ATOM     23  C   UNL     1       7.007   3.668  12.937  0.00  0.00    +0.000 C 
BRANCH  23  24
ATOM     24  C   UNL     1       6.087   3.748  11.724  0.00  0.00    +0.000 C 
BRANCH  24  25
ATOM     25  C   UNL     1       5.369   2.425  11.464  0.00  0.00    +0.000 C 
BRANCH  25  26
ATOM     26  C   UNL     1       3.910   2.660  11.081  0.00  0.00    +0.000 C 
BRANCH  26  28
ATOM     27  C   UNL     1       2.800   4.198   9.436  0.00  0.00    +0.000 C 
ATOM     28  C   UNL     1       3.676   4.112  10.674  0.00  0.00    +0.000 C 
ENDBRANCH  26  28
ENDBRANCH  25  26
ENDBRANCH  24  25
ENDBRANCH  23  24
ENDBRANCH  18  23
ENDBRANCH   1  21
TORSDOF 8
ENDMDL
MODEL 2
REMARK VINA RESULT:      -6.8      7.449      9.952
REMARK  Name = 
REMARK  9 active torsions:
REMARK  status: ('A' for Active; 'I' for Inactive)
REMARK    1  A    between atoms: C_1  and  C_2
REMARK    2  A    between atoms: C_2  and  C_3
REMARK    3  A    between atoms: C_3  and  C_4
REMARK    4  A    between atoms: C_4  and  C_5
REMARK    5  A    between atoms: C_5  and  C_6
REMARK    6  A    between atoms: C_6  and  N_7
REMARK    7  A    between atoms: N_10  and  C_11
REMARK    8  A    between atoms: C_11  and  C_12
REMARK    9  A    between atoms: C_11  and  C_20
REMARK                            x       y       z     vdW  Elec       q    Type
REMARK                         _______ _______ _______ _____ _____    ______ ____
ROOT
ATOM      1  C   UNL     1      -1.350  11.123  19.522  0.00  0.00    +0.000 C 
ENDROOT
BRANCH   1   2
ATOM      2  C   UNL     1      -0.731  12.508  19.683  0.00  0.00    +0.000 A 
ATOM      3  C   UNL     1      -0.420  13.301  18.555  0.00  0.00    +0.000 A 
ATOM      4  C   UNL     1      -0.074  14.648  18.688  0.00  0.00    +0.000 A 
ATOM      5  C   UNL     1       0.040  15.206  19.955  0.00  0.00    +0.000 A 
ATOM      6 CL   UNL     1       0.389  16.881  20.113  0.00  0.00    +0.000 Cl
ATOM      7  C   UNL     1      -0.145  14.423  21.089  0.00  0.00    +0.000 A 
ATOM      8  C   UNL     1      -0.524  13.081  20.955  0.00  0.00    +0.000 A 
ATOM      9 CL   UNL     1      -0.731  12.170  22.408  0.00  0.00    +0.000 Cl
ENDBRANCH   1   2
BRANCH   1  10
ATOM     10  C   UNL     1      -2.166  10.848  18.240  0.00  0.00    +0.000 A 
ATOM     11  C   UNL     1      -1.638   9.952  17.284  0.00  0.00    +0.000 A 
ATOM     12  C   UNL     1      -2.262   9.737  16.053  0.00  0.00    +0.000 A 
ATOM     13  C   UNL     1      -3.437  10.411  15.749  0.00  0.00    +0.000 A 
ATOM     14 CL   UNL     1      -4.163  10.208  14.207  0.00  0.00    +0.000 Cl
ATOM     15  C   UNL     1      -4.040  11.218  16.703  0.00  0.00    +0.000 A 
ATOM     16  C   UNL     1      -3.448  11.376  17.963  0.00  0.00    +0.000 A 
ATOM     17 CL   UNL     1      -4.437  12.171  19.139  0.00  0.00    +0.000 Cl
ENDBRANCH   1  10
BRANCH   1  21
ATOM     18  N   UNL     1       1.043   8.525  20.314  0.00  0.00    +0.000 N 
ATOM     19  C   UNL     1       1.709   9.102  19.245  0.00  0.00    +0.000 A 
ATOM     20  C   UNL     1       0.919  10.128  18.804  0.00  0.00    +0.000 A 
ATOM     21  N   UNL     1      -0.221  10.150  19.602  0.00  0.00    +0.000 N 
ATOM     22  C   UNL     1      -0.141   9.133  20.483  0.00  0.00    +0.000 A 
BRANCH  18  23
ATOM     23  C   UNL     1       1.525   7.418  21.151  0.00  0.00    +0.000 C 
BRANCH  23  24
ATOM     24  C   UNL     1       1.590   6.103  20.384  0.00  0.00    +0.000 C 
BRANCH  24  25
ATOM     25  C   UNL     1       2.405   5.047  21.130  0.00  0.00    +0.000 C 
BRANCH  25  26
ATOM     26  C   UNL     1       1.738   3.677  21.040  0.00  0.00    +0.000 C 
BRANCH  26  28
ATOM     27  C   UNL     1       1.053   2.466  18.949  0.00  0.00    +0.000 C 
ATOM     28  C   UNL     1       0.744   3.624  19.883  0.00  0.00    +0.000 C 
ENDBRANCH  26  28
ENDBRANCH  25  26
ENDBRANCH  24  25
ENDBRANCH  23  24
ENDBRANCH  18  23
ENDBRANCH   1  21
TORSDOF 8
ENDMDL
MODEL 3
REMARK VINA RESULT:      -6.8      7.001      9.392
REMARK  Name = 
REMARK  9 active torsions:
REMARK  status: ('A' for Active; 'I' for Inactive)
REMARK    1  A    between atoms: C_1  and  C_2
REMARK    2  A    between atoms: C_2  and  C_3
REMARK    3  A    between atoms: C_3  and  C_4
REMARK    4  A    between atoms: C_4  and  C_5
REMARK    5  A    between atoms: C_5  and  C_6
REMARK    6  A    between atoms: C_6  and  N_7
REMARK    7  A    between atoms: N_10  and  C_11
REMARK    8  A    between atoms: C_11  and  C_12
REMARK    9  A    between atoms: C_11  and  C_20
REMARK                            x       y       z     vdW  Elec       q    Type
REMARK                         _______ _______ _______ _____ _____    ______ ____
ROOT
ATOM      1  C   UNL     1      -0.501  11.540  20.066  0.00  0.00    +0.000 C 
ENDROOT
BRANCH   1   2
ATOM      2  C   UNL     1       0.572  12.589  19.791  0.00  0.00    +0.000 A 
ATOM      3  C   UNL     1       1.350  12.541  18.612  0.00  0.00    +0.000 A 
ATOM      4  C   UNL     1       2.167  13.611  18.237  0.00  0.00    +0.000 A 
ATOM      5  C   UNL     1       2.277  14.716  19.072  0.00  0.00    +0.000 A 
ATOM      6 CL   UNL     1       3.219  16.063  18.573  0.00  0.00    +0.000 Cl
ATOM      7  C   UNL     1       1.615  14.743  20.295  0.00  0.00    +0.000 A 
ATOM      8  C   UNL     1       0.771  13.685  20.656  0.00  0.00    +0.000 A 
ATOM      9 CL   UNL     1      -0.013  13.787  22.191  0.00  0.00    +0.000 Cl
ENDBRANCH   1   2
BRANCH   1  10
ATOM     10  C   UNL     1      -1.452  11.168  18.907  0.00  0.00    +0.000 A 
ATOM     11  C   UNL     1      -1.033  10.188  17.979  0.00  0.00    +0.000 A 
ATOM     12  C   UNL     1      -1.786   9.879  16.845  0.00  0.00    +0.000 A 
ATOM     13  C   UNL     1      -2.985  10.538  16.612  0.00  0.00    +0.000 A 
ATOM     14 CL   UNL     1      -3.874  10.215  15.180  0.00  0.00    +0.000 Cl
ATOM     15  C   UNL     1      -3.480  11.429  17.554  0.00  0.00    +0.000 A 
ATOM     16  C   UNL     1      -2.755  11.685  18.725  0.00  0.00    +0.000 A 
ATOM     17 CL   UNL     1      -3.610  12.588  19.929  0.00  0.00    +0.000 Cl
ENDBRANCH   1  10
BRANCH   1  21
ATOM     18  N   UNL     1       1.377   8.471  20.458  0.00  0.00    +0.000 N 
ATOM     19  C   UNL     1       0.994   8.650  21.778  0.00  0.00    +0.000 A 
ATOM     20  C   UNL     1       0.260   9.804  21.815  0.00  0.00    +0.000 A 
ATOM     21  N   UNL     1       0.220  10.315  20.521  0.00  0.00    +0.000 N 
ATOM     22  C   UNL     1       0.948   9.508  19.724  0.00  0.00    +0.000 A 
BRANCH  18  23
ATOM     23  C   UNL     1       2.136   7.338  19.913  0.00  0.00    +0.000 C 
BRANCH  23  24
ATOM     24  C   UNL     1       1.786   6.024  20.603  0.00  0.00    +0.000 C 
BRANCH  24  25
ATOM     25  C   UNL     1       1.761   4.853  19.622  0.00  0.00    +0.000 C 
BRANCH  25  26
ATOM     26  C   UNL     1       0.947   3.689  20.181  0.00  0.00    +0.000 C 
BRANCH  26  28
ATOM     27  C   UNL     1       2.105   2.173  18.548  0.00  0.00    +0.000 C 
ATOM     28  C   UNL     1       1.682   2.364  19.994  0.00  0.00    +0.000 C 
ENDBRANCH  26  28
ENDBRANCH  25  26
ENDBRANCH  24  25
ENDBRANCH  23  24
ENDBRANCH  18  23
ENDBRANCH   1  21
TORSDOF 8
ENDMDL
MODEL 4
REMARK VINA RESULT:      -6.7      6.866      9.245
REMARK  Name = 
REMARK  9 active torsions:
REMARK  status: ('A' for Active; 'I' for Inactive)
REMARK    1  A    between atoms: C_1  and  C_2
REMARK    2  A    between atoms: C_2  and  C_3
REMARK    3  A    between atoms: C_3  and  C_4
REMARK    4  A    between atoms: C_4  and  C_5
REMARK    5  A    between atoms: C_5  and  C_6
REMARK    6  A    between atoms: C_6  and  N_7
REMARK    7  A    between atoms: N_10  and  C_11
REMARK    8  A    between atoms: C_11  and  C_12
REMARK    9  A    between atoms: C_11  and  C_20
REMARK                            x       y       z     vdW  Elec       q    Type
REMARK                         _______ _______ _______ _____ _____    ______ ____
ROOT
ATOM      1  C   UNL     1      -0.581  10.846  20.149  0.00  0.00    +0.000 C 
ENDROOT
BRANCH   1   2
ATOM      2  C   UNL     1       0.276  12.096  20.329  0.00  0.00    +0.000 A 
ATOM      3  C   UNL     1       1.191  12.500  19.330  0.00  0.00    +0.000 A 
ATOM      4  C   UNL     1       1.807  13.754  19.375  0.00  0.00    +0.000 A 
ATOM      5  C   UNL     1       1.576  14.594  20.456  0.00  0.00    +0.000 A 
ATOM      6 CL   UNL     1       2.272  16.165  20.471  0.00  0.00    +0.000 Cl
ATOM      7  C   UNL     1       0.773  14.178  21.513  0.00  0.00    +0.000 A 
ATOM      8  C   UNL     1       0.130  12.936  21.453  0.00  0.00    +0.000 A 
ATOM      9 CL   UNL     1      -0.848  12.486  22.803  0.00  0.00    +0.000 Cl
ENDBRANCH   1   2
BRANCH   1  10
ATOM     10  C   UNL     1      -1.474  10.767  18.891  0.00  0.00    +0.000 A 
ATOM     11  C   UNL     1      -1.169   9.799  17.908  0.00  0.00    +0.000 A 
ATOM     12  C   UNL     1      -1.860   9.738  16.696  0.00  0.00    +0.000 A 
ATOM     13  C   UNL     1      -2.881  10.641  16.438  0.00  0.00    +0.000 A 
ATOM     14 CL   UNL     1      -3.679  10.618  14.919  0.00  0.00    +0.000 Cl
ATOM     15  C   UNL     1      -3.279  11.536  17.421  0.00  0.00    +0.000 A 
ATOM     16  C   UNL     1      -2.630  11.548  18.663  0.00  0.00    +0.000 A 
ATOM     17 CL   UNL     1      -3.401  12.507  19.879  0.00  0.00    +0.000 Cl
ENDBRANCH   1  10
BRANCH   1  21
ATOM     18  N   UNL     1       1.799   8.208  19.459  0.00  0.00    +0.000 N 
ATOM     19  C   UNL     1       1.488   7.871  20.767  0.00  0.00    +0.000 A 
ATOM     20  C   UNL     1       0.580   8.797  21.201  0.00  0.00    +0.000 A 
ATOM     21  N   UNL     1       0.362   9.690  20.155  0.00  0.00    +0.000 N 
ATOM     22  C   UNL     1       1.154   9.335  19.123  0.00  0.00    +0.000 A 
BRANCH  18  23
ATOM     23  C   UNL     1       2.692   7.473  18.554  0.00  0.00    +0.000 C 
BRANCH  23  24
ATOM     24  C   UNL     1       3.046   6.091  19.092  0.00  0.00    +0.000 C 
BRANCH  24  25
ATOM     25  C   UNL     1       2.260   4.986  18.387  0.00  0.00    +0.000 C 
BRANCH  25  26
ATOM     26  C   UNL     1       1.424   4.187  19.384  0.00  0.00    +0.000 C 
BRANCH  26  28
ATOM     27  C   UNL     1       1.566   2.912  21.543  0.00  0.00    +0.000 C 
ATOM     28  C   UNL     1       2.312   3.338  20.290  0.00  0.00    +0.000 C 
ENDBRANCH  26  28
ENDBRANCH  25  26
ENDBRANCH  24  25
ENDBRANCH  23  24
ENDBRANCH  18  23
ENDBRANCH   1  21
TORSDOF 8
ENDMDL
MODEL 5
REMARK VINA RESULT:      -6.6      7.205     10.713
REMARK  Name = 
REMARK  9 active torsions:
REMARK  status: ('A' for Active; 'I' for Inactive)
REMARK    1  A    between atoms: C_1  and  C_2
REMARK    2  A    between atoms: C_2  and  C_3
REMARK    3  A    between atoms: C_3  and  C_4
REMARK    4  A    between atoms: C_4  and  C_5
REMARK    5  A    between atoms: C_5  and  C_6
REMARK    6  A    between atoms: C_6  and  N_7
REMARK    7  A    between atoms: N_10  and  C_11
REMARK    8  A    between atoms: C_11  and  C_12
REMARK    9  A    between atoms: C_11  and  C_20
REMARK                            x       y       z     vdW  Elec       q    Type
REMARK                         _______ _______ _______ _____ _____    ______ ____
ROOT
ATOM      1  C   UNL     1       0.286  10.875  19.772  0.00  0.00    +0.000 C 
ENDROOT
BRANCH   1   2
ATOM      2  C   UNL     1      -1.045  11.071  19.052  0.00  0.00    +0.000 A 
ATOM      3  C   UNL     1      -1.358  10.335  17.887  0.00  0.00    +0.000 A 
ATOM      4  C   UNL     1      -2.650  10.331  17.355  0.00  0.00    +0.000 A 
ATOM      5  C   UNL     1      -3.633  11.123  17.935  0.00  0.00    +0.000 A 
ATOM      6 CL   UNL     1      -5.239  11.057  17.328  0.00  0.00    +0.000 Cl
ATOM      7  C   UNL     1      -3.329  11.949  19.011  0.00  0.00    +0.000 A 
ATOM      8  C   UNL     1      -2.042  11.927  19.565  0.00  0.00    +0.000 A 
ATOM      9 CL   UNL     1      -1.737  12.984  20.897  0.00  0.00    +0.000 Cl
ENDBRANCH   1   2
BRANCH   1  10
ATOM     10  C   UNL     1       1.129   9.638  19.391  0.00  0.00    +0.000 A 
ATOM     11  C   UNL     1       1.733   9.601  18.114  0.00  0.00    +0.000 A 
ATOM     12  C   UNL     1       2.417   8.473  17.656  0.00  0.00    +0.000 A 
ATOM     13  C   UNL     1       2.520   7.352  18.467  0.00  0.00    +0.000 A 
ATOM     14 CL   UNL     1       3.292   5.938  17.877  0.00  0.00    +0.000 Cl
ATOM     15  C   UNL     1       2.032   7.389  19.766  0.00  0.00    +0.000 A 
ATOM     16  C   UNL     1       1.408   8.548  20.247  0.00  0.00    +0.000 A 
ATOM     17 CL   UNL     1       1.102   8.558  21.950  0.00  0.00    +0.000 Cl
ENDBRANCH   1  10
BRANCH   1  21
ATOM     18  N   UNL     1       2.381  13.825  19.863  0.00  0.00    +0.000 N 
ATOM     19  C   UNL     1       1.942  13.922  18.552  0.00  0.00    +0.000 A 
ATOM     20  C   UNL     1       1.121  12.849  18.338  0.00  0.00    +0.000 A 
ATOM     21  N   UNL     1       1.083  12.110  19.516  0.00  0.00    +0.000 N 
ATOM     22  C   UNL     1       1.898  12.701  20.414  0.00  0.00    +0.000 A 
BRANCH  18  23
ATOM     23  C   UNL     1       3.243  14.781  20.571  0.00  0.00    +0.000 C 
BRANCH  23  24
ATOM     24  C   UNL     1       3.219  16.163  19.928  0.00  0.00    +0.000 C 
BRANCH  24  25
ATOM     25  C   UNL     1       4.579  16.545  19.344  0.00  0.00    +0.000 C 
BRANCH  25  26
ATOM     26  C   UNL     1       5.500  15.330  19.263  0.00  0.00    +0.000 C 
BRANCH  26  28
ATOM     27  C   UNL     1       7.008  14.083  17.689  0.00  0.00    +0.000 C 
ATOM     28  C   UNL     1       5.749  14.924  17.813  0.00  0.00    +0.000 C 
ENDBRANCH  26  28
ENDBRANCH  25  26
ENDBRANCH  24  25
ENDBRANCH  23  24
ENDBRANCH  18  23
ENDBRANCH   1  21
TORSDOF 8
ENDMDL
MODEL 6
REMARK VINA RESULT:      -6.6      6.650      8.650
REMARK  Name = 
REMARK  9 active torsions:
REMARK  status: ('A' for Active; 'I' for Inactive)
REMARK    1  A    between atoms: C_1  and  C_2
REMARK    2  A    between atoms: C_2  and  C_3
REMARK    3  A    between atoms: C_3  and  C_4
REMARK    4  A    between atoms: C_4  and  C_5
REMARK    5  A    between atoms: C_5  and  C_6
REMARK    6  A    between atoms: C_6  and  N_7
REMARK    7  A    between atoms: N_10  and  C_11
REMARK    8  A    between atoms: C_11  and  C_12
REMARK    9  A    between atoms: C_11  and  C_20
REMARK                            x       y       z     vdW  Elec       q    Type
REMARK                         _______ _______ _______ _____ _____    ______ ____
ROOT
ATOM      1  C   UNL     1      -0.022  11.393  20.011  0.00  0.00    +0.000 C 
ENDROOT
BRANCH   1   2
ATOM      2  C   UNL     1       1.119  12.330  19.624  0.00  0.00    +0.000 A 
ATOM      3  C   UNL     1       1.932  12.061  18.499  0.00  0.00    +0.000 A 
ATOM      4  C   UNL     1       2.821  13.017  18.001  0.00  0.00    +0.000 A 
ATOM      5  C   UNL     1       2.967  14.229  18.664  0.00  0.00    +0.000 A 
ATOM      6 CL   UNL     1       4.002  15.433  18.006  0.00  0.00    +0.000 Cl
ATOM      7  C   UNL     1       2.270  14.478  19.840  0.00  0.00    +0.000 A 
ATOM      8  C   UNL     1       1.354  13.534  20.321  0.00  0.00    +0.000 A 
ATOM      9 CL   UNL     1       0.528  13.910  21.790  0.00  0.00    +0.000 Cl
ENDBRANCH   1   2
BRANCH   1  10
ATOM     10  C   UNL     1      -1.114  11.123  18.953  0.00  0.00    +0.000 A 
ATOM     11  C   UNL     1      -0.903  10.088  18.014  0.00  0.00    +0.000 A 
ATOM     12  C   UNL     1      -1.791   9.857  16.962  0.00  0.00    +0.000 A 
ATOM     13  C   UNL     1      -2.920  10.652  16.824  0.00  0.00    +0.000 A 
ATOM     14 CL   UNL     1      -3.972  10.419  15.488  0.00  0.00    +0.000 Cl
ATOM     15  C   UNL     1      -3.216  11.608  17.785  0.00  0.00    +0.000 A 
ATOM     16  C   UNL     1      -2.359  11.791  18.879  0.00  0.00    +0.000 A 
ATOM     17 CL   UNL     1      -2.984  12.805  20.134  0.00  0.00    +0.000 Cl
ENDBRANCH   1  10
BRANCH   1  21
ATOM     18  N   UNL     1       1.605   8.168  20.236  0.00  0.00    +0.000 N 
ATOM     19  C   UNL     1       1.304   8.344  21.578  0.00  0.00    +0.000 A 
ATOM     20  C   UNL     1       0.674   9.553  21.679  0.00  0.00    +0.000 A 
ATOM     21  N   UNL     1       0.614  10.100  20.400  0.00  0.00    +0.000 N 
ATOM     22  C   UNL     1       1.231   9.257  19.549  0.00  0.00    +0.000 A 
BRANCH  18  23
ATOM     23  C   UNL     1       2.238   6.990  19.628  0.00  0.00    +0.000 C 
BRANCH  23  24
ATOM     24  C   UNL     1       2.980   7.335  18.342  0.00  0.00    +0.000 C 
BRANCH  24  25
ATOM     25  C   UNL     1       3.953   6.231  17.930  0.00  0.00    +0.000 C 
BRANCH  25  26
ATOM     26  C   UNL     1       5.134   6.804  17.151  0.00  0.00    +0.000 C 
BRANCH  26  28
ATOM     27  C   UNL     1       5.326   4.728  15.752  0.00  0.00    +0.000 C 
ATOM     28  C   UNL     1       5.184   6.241  15.734  0.00  0.00    +0.000 C 
ENDBRANCH  26  28
ENDBRANCH  25  26
ENDBRANCH  24  25
ENDBRANCH  23  24
ENDBRANCH  18  23
ENDBRANCH   1  21
TORSDOF 8
ENDMDL
MODEL 7
REMARK VINA RESULT:      -6.6      7.915     11.132
REMARK  Name = 
REMARK  9 active torsions:
REMARK  status: ('A' for Active; 'I' for Inactive)
REMARK    1  A    between atoms: C_1  and  C_2
REMARK    2  A    between atoms: C_2  and  C_3
REMARK    3  A    between atoms: C_3  and  C_4
REMARK    4  A    between atoms: C_4  and  C_5
REMARK    5  A    between atoms: C_5  and  C_6
REMARK    6  A    between atoms: C_6  and  N_7
REMARK    7  A    between atoms: N_10  and  C_11
REMARK    8  A    between atoms: C_11  and  C_12
REMARK    9  A    between atoms: C_11  and  C_20
REMARK                            x       y       z     vdW  Elec       q    Type
REMARK                         _______ _______ _______ _____ _____    ______ ____
ROOT
ATOM      1  C   UNL     1       0.285  10.918  19.819  0.00  0.00    +0.000 C 
ENDROOT
BRANCH   1   2
ATOM      2  C   UNL     1      -1.050  11.107  19.104  0.00  0.00    +0.000 A 
ATOM      3  C   UNL     1      -1.389  10.324  17.977  0.00  0.00    +0.000 A 
ATOM      4  C   UNL     1      -2.686  10.322  17.458  0.00  0.00    +0.000 A 
ATOM      5  C   UNL     1      -3.648  11.159  18.010  0.00  0.00    +0.000 A 
ATOM      6 CL   UNL     1      -5.261  11.097  17.422  0.00  0.00    +0.000 Cl
ATOM      7  C   UNL     1      -3.316  12.028  19.044  0.00  0.00    +0.000 A 
ATOM      8  C   UNL     1      -2.025  12.006  19.586  0.00  0.00    +0.000 A 
ATOM      9 CL   UNL     1      -1.685  13.117  20.864  0.00  0.00    +0.000 Cl
ENDBRANCH   1   2
BRANCH   1  10
ATOM     10  C   UNL     1       1.116   9.666  19.462  0.00  0.00    +0.000 A 
ATOM     11  C   UNL     1       1.686   9.581  18.172  0.00  0.00    +0.000 A 
ATOM     12  C   UNL     1       2.356   8.435  17.737  0.00  0.00    +0.000 A 
ATOM     13  C   UNL     1       2.479   7.345  18.587  0.00  0.00    +0.000 A 
ATOM     14 CL   UNL     1       3.233   5.907  18.029  0.00  0.00    +0.000 Cl
ATOM     15  C   UNL     1       2.025   7.431  19.895  0.00  0.00    +0.000 A 
ATOM     16  C   UNL     1       1.416   8.608  20.350  0.00  0.00    +0.000 A 
ATOM     17 CL   UNL     1       1.156   8.681  22.059  0.00  0.00    +0.000 Cl
ENDBRANCH   1  10
BRANCH   1  21
ATOM     18  N   UNL     1       2.376  13.872  19.833  0.00  0.00    +0.000 N 
ATOM     19  C   UNL     1       1.977  13.906  18.506  0.00  0.00    +0.000 A 
ATOM     20  C   UNL     1       1.162  12.823  18.318  0.00  0.00    +0.000 A 
ATOM     21  N   UNL     1       1.089  12.141  19.529  0.00  0.00    +0.000 N 
ATOM     22  C   UNL     1       1.877  12.775  20.421  0.00  0.00    +0.000 A 
BRANCH  18  23
ATOM     23  C   UNL     1       3.216  14.861  20.520  0.00  0.00    +0.000 C 
BRANCH  23  24
ATOM     24  C   UNL     1       3.599  16.023  19.609  0.00  0.00    +0.000 C 
BRANCH  24  25
ATOM     25  C   UNL     1       2.869  17.311  19.990  0.00  0.00    +0.000 C 
BRANCH  25  26
ATOM     26  C   UNL     1       1.710  17.585  19.035  0.00  0.00    +0.000 C 
BRANCH  26  28
ATOM     27  C   UNL     1      -0.579  16.620  18.667  0.00  0.00    +0.000 C 
ATOM     28  C   UNL     1       0.372  17.235  19.680  0.00  0.00    +0.000 C 
ENDBRANCH  26  28
ENDBRANCH  25  26
ENDBRANCH  24  25
ENDBRANCH  23  24
ENDBRANCH  18  23
ENDBRANCH   1  21
TORSDOF 8
ENDMDL
MODEL 8
REMARK VINA RESULT:      -6.6      8.065     11.048
REMARK  Name = 
REMARK  9 active torsions:
REMARK  status: ('A' for Active; 'I' for Inactive)
REMARK    1  A    between atoms: C_1  and  C_2
REMARK    2  A    between atoms: C_2  and  C_3
REMARK    3  A    between atoms: C_3  and  C_4
REMARK    4  A    between atoms: C_4  and  C_5
REMARK    5  A    between atoms: C_5  and  C_6
REMARK    6  A    between atoms: C_6  and  N_7
REMARK    7  A    between atoms: N_10  and  C_11
REMARK    8  A    between atoms: C_11  and  C_12
REMARK    9  A    between atoms: C_11  and  C_20
REMARK                            x       y       z     vdW  Elec       q    Type
REMARK                         _______ _______ _______ _____ _____    ______ ____
ROOT
ATOM      1  C   UNL     1       0.404  10.916  19.770  0.00  0.00    +0.000 C 
ENDROOT
BRANCH   1   2
ATOM      2  C   UNL     1      -0.915  11.130  19.034  0.00  0.00    +0.000 A 
ATOM      3  C   UNL     1      -1.168  10.496  17.796  0.00  0.00    +0.000 A 
ATOM      4  C   UNL     1      -2.445  10.496  17.229  0.00  0.00    +0.000 A 
ATOM      5  C   UNL     1      -3.473  11.191  17.852  0.00  0.00    +0.000 A 
ATOM      6 CL   UNL     1      -5.060  11.124  17.195  0.00  0.00    +0.000 Cl
ATOM      7  C   UNL     1      -3.230  11.921  19.010  0.00  0.00    +0.000 A 
ATOM      8  C   UNL     1      -1.958  11.895  19.596  0.00  0.00    +0.000 A 
ATOM      9 CL   UNL     1      -1.730  12.830  21.030  0.00  0.00    +0.000 Cl
ENDBRANCH   1   2
BRANCH   1  10
ATOM     10  C   UNL     1       1.158   9.592  19.517  0.00  0.00    +0.000 A 
ATOM     11  C   UNL     1       1.681   9.351  18.226  0.00  0.00    +0.000 A 
ATOM     12  C   UNL     1       2.277   8.133  17.890  0.00  0.00    +0.000 A 
ATOM     13  C   UNL     1       2.371   7.126  18.839  0.00  0.00    +0.000 A 
ATOM     14 CL   UNL     1       3.033   5.602  18.406  0.00  0.00    +0.000 Cl
ATOM     15  C   UNL     1       1.965   7.363  20.144  0.00  0.00    +0.000 A 
ATOM     16  C   UNL     1       1.432   8.610  20.497  0.00  0.00    +0.000 A 
ATOM     17 CL   UNL     1       1.231   8.863  22.197  0.00  0.00    +0.000 Cl
ENDBRANCH   1  10
BRANCH   1  21
ATOM     18  N   UNL     1       2.243  14.016  19.440  0.00  0.00    +0.000 N 
ATOM     19  C   UNL     1       2.668  13.396  18.276  0.00  0.00    +0.000 A 
ATOM     20  C   UNL     1       2.058  12.172  18.242  0.00  0.00    +0.000 A 
ATOM     21  N   UNL     1       1.283  12.061  19.392  0.00  0.00    +0.000 N 
ATOM     22  C   UNL     1       1.452  13.178  20.128  0.00  0.00    +0.000 A 
BRANCH  18  23
ATOM     23  C   UNL     1       2.587  15.372  19.887  0.00  0.00    +0.000 C 
BRANCH  23  24
ATOM     24  C   UNL     1       1.360  16.161  20.331  0.00  0.00    +0.000 C 
BRANCH  24  25
ATOM     25  C   UNL     1       0.991  17.253  19.328  0.00  0.00    +0.000 C 
BRANCH  25  26
ATOM     26  C   UNL     1      -0.144  16.796  18.415  0.00  0.00    +0.000 C 
BRANCH  26  28
ATOM     27  C   UNL     1       0.837  18.440  16.789  0.00  0.00    +0.000 C 
ATOM     28  C   UNL     1      -0.444  17.844  17.345  0.00  0.00    +0.000 C 
ENDBRANCH  26  28
ENDBRANCH  25  26
ENDBRANCH  24  25
ENDBRANCH  23  24
ENDBRANCH  18  23
ENDBRANCH   1  21
TORSDOF 8
ENDMDL
MODEL 9
REMARK VINA RESULT:      -6.6      6.488      8.708
REMARK  Name = 
REMARK  9 active torsions:
REMARK  status: ('A' for Active; 'I' for Inactive)
REMARK    1  A    between atoms: C_1  and  C_2
REMARK    2  A    between atoms: C_2  and  C_3
REMARK    3  A    between atoms: C_3  and  C_4
REMARK    4  A    between atoms: C_4  and  C_5
REMARK    5  A    between atoms: C_5  and  C_6
REMARK    6  A    between atoms: C_6  and  N_7
REMARK    7  A    between atoms: N_10  and  C_11
REMARK    8  A    between atoms: C_11  and  C_12
REMARK    9  A    between atoms: C_11  and  C_20
REMARK                            x       y       z     vdW  Elec       q    Type
REMARK                         _______ _______ _______ _____ _____    ______ ____
ROOT
ATOM      1  C   UNL     1       0.423  10.706  19.545  0.00  0.00    +0.000 C 
ENDROOT
BRANCH   1   2
ATOM      2  C   UNL     1       1.385  11.880  19.390  0.00  0.00    +0.000 A 
ATOM      3  C   UNL     1       2.240  11.978  18.268  0.00  0.00    +0.000 A 
ATOM      4  C   UNL     1       2.952  13.149  17.997  0.00  0.00    +0.000 A 
ATOM      5  C   UNL     1       2.880  14.216  18.883  0.00  0.00    +0.000 A 
ATOM      6 CL   UNL     1       3.693  15.683  18.509  0.00  0.00    +0.000 Cl
ATOM      7  C   UNL     1       2.141  14.110  20.057  0.00  0.00    +0.000 A 
ATOM      8  C   UNL     1       1.401  12.948  20.312  0.00  0.00    +0.000 A 
ATOM      9 CL   UNL     1       0.512  12.886  21.791  0.00  0.00    +0.000 Cl
ENDBRANCH   1   2
BRANCH   1  10
ATOM     10  C   UNL     1      -0.890  10.746  18.731  0.00  0.00    +0.000 A 
ATOM     11  C   UNL     1      -1.012   9.899  17.607  0.00  0.00    +0.000 A 
ATOM     12  C   UNL     1      -2.120   9.957  16.759  0.00  0.00    +0.000 A 
ATOM     13  C   UNL     1      -3.141  10.861  17.018  0.00  0.00    +0.000 A 
ATOM     14 CL   UNL     1      -4.466  10.988  15.935  0.00  0.00    +0.000 Cl
ATOM     15  C   UNL     1      -3.106  11.634  18.170  0.00  0.00    +0.000 A 
ATOM     16  C   UNL     1      -2.025  11.523  19.056  0.00  0.00    +0.000 A 
ATOM     17 CL   UNL     1      -2.242  12.325  20.574  0.00  0.00    +0.000 Cl
ENDBRANCH   1  10
BRANCH   1  21
ATOM     18  N   UNL     1       2.217   7.569  19.350  0.00  0.00    +0.000 N 
ATOM     19  C   UNL     1       2.426   8.010  18.052  0.00  0.00    +0.000 A 
ATOM     20  C   UNL     1       1.790   9.216  17.945  0.00  0.00    +0.000 A 
ATOM     21  N   UNL     1       1.193   9.484  19.173  0.00  0.00    +0.000 N 
ATOM     22  C   UNL     1       1.429   8.442  19.996  0.00  0.00    +0.000 A 
BRANCH  18  23
ATOM     23  C   UNL     1       2.754   6.344  19.956  0.00  0.00    +0.000 C 
BRANCH  23  24
ATOM     24  C   UNL     1       1.651   5.403  20.426  0.00  0.00    +0.000 C 
BRANCH  24  25
ATOM     25  C   UNL     1       2.191   4.298  21.333  0.00  0.00    +0.000 C 
BRANCH  25  26
ATOM     26  C   UNL     1       1.581   2.946  20.971  0.00  0.00    +0.000 C 
BRANCH  26  28
ATOM     27  C   UNL     1       0.615   2.204  18.775  0.00  0.00    +0.000 C 
ATOM     28  C   UNL     1       1.885   2.576  19.521  0.00  0.00    +0.000 C 
ENDBRANCH  26  28
ENDBRANCH  25  26
ENDBRANCH  24  25
ENDBRANCH  23  24
ENDBRANCH  18  23
ENDBRANCH   1  21
TORSDOF 8
ENDMDL
