MODEL 1
REMARK VINA RESULT:      -8.4      0.000      0.000
REMARK  Name = 
REMARK  7 active torsions:
REMARK  status: ('A' for Active; 'I' for Inactive)
REMARK    1  A    between atoms: C_1  and  C_2
REMARK    2  A    between atoms: C_2  and  S_3
REMARK    3  A    between atoms: C_2  and  C_10
REMARK    4  A    between atoms: S_3  and  C_4
REMARK    5  A    between atoms: N_8  and  C_9
REMARK    6  A    between atoms: C_16  and  C_18
REMARK    7  A    between atoms: C_23  and  C_24
REMARK                            x       y       z     vdW  Elec       q    Type
REMARK                         _______ _______ _______ _____ _____    ______ ____
ROOT
ATOM      1  C   UNL     1       0.297  10.531  19.819  0.00  0.00    +0.000 A 
ATOM      2  C   UNL     1      -0.160  10.230  21.107  0.00  0.00    +0.000 A 
ATOM      3  C   UNL     1       0.213   9.033  21.687  0.00  0.00    +0.000 A 
ATOM      4  N   UNL     1       0.992   8.121  21.081  0.00  0.00    +0.000 NA
ATOM      5  C   UNL     1       1.443   8.389  19.846  0.00  0.00    +0.000 A 
ATOM      6  N   UNL     1       2.204   7.427  19.166  0.00  0.00    +0.000 N 
ATOM      7  C   UNL     1       2.542   6.191  19.685  0.00  0.00    +0.000 C 
ATOM      8  O   UNL     1       2.316   5.760  20.809  0.00  0.00    +0.000 OA
ATOM      9  C   UNL     1       1.139   9.584  19.198  0.00  0.00    +0.000 A 
ATOM     10  H   UNL     1       2.485   7.616  18.212  0.00  0.00    +0.000 HD
ENDROOT
BRANCH   7  11
ATOM     11  C   UNL     1       3.259   5.296  18.724  0.00  0.00    +0.000 A 
ATOM     12  C   UNL     1       3.125   3.923  18.856  0.00  0.00    +0.000 A 
ATOM     13  C   UNL     1       3.771   3.126  17.931  0.00  0.00    +0.000 A 
ATOM     14 CL   UNL     1       3.632   1.414  18.035  0.00  0.00    +0.000 Cl
ATOM     15  C   UNL     1       4.522   3.694  16.910  0.00  0.00    +0.000 A 
ATOM     16  C   UNL     1       4.614   5.084  16.837  0.00  0.00    +0.000 A 
ATOM     17  N   UNL     1       3.992   5.897  17.744  0.00  0.00    +0.000 NA
BRANCH  16  18
ATOM     18  C   UNL     1       5.417   5.721  15.708  0.00  0.00    +0.000 C 
ATOM     19  F   UNL     1       6.731   5.917  16.021  0.00  0.00    +0.000 F 
ATOM     20  F   UNL     1       5.419   4.966  14.573  0.00  0.00    +0.000 F 
ATOM     21  F   UNL     1       4.939   6.945  15.346  0.00  0.00    +0.000 F 
ENDBRANCH  16  18
ENDBRANCH   7  11
BRANCH   1  23
ATOM     22  C   UNL     1       0.704  13.045  19.459  0.00  0.00    +0.000 C 
ATOM     23  C   UNL     1      -0.119  11.805  19.075  0.00  0.00    +0.000 C 
BRANCH  23  24
ATOM     24  S   UNL     1      -1.905  12.111  19.415  0.00  0.00    +0.000 S 
BRANCH  24  25
ATOM     25  C   UNL     1      -2.674  11.594  17.963  0.00  0.00    +0.000 A 
ATOM     26  N   UNL     1      -2.111  11.136  16.871  0.00  0.00    +0.000 NA
ATOM     27  N   UNL     1      -3.111  10.925  15.944  0.00  0.00    +0.000 NA
ATOM     28  C   UNL     1      -4.253  11.245  16.512  0.00  0.00    +0.000 A 
ATOM     29  N   UNL     1      -4.027  11.645  17.793  0.00  0.00    +0.000 N 
ATOM     30  C   UNL     1      -5.023  12.048  18.750  0.00  0.00    +0.000 C 
ENDBRANCH  24  25
ENDBRANCH  23  24
ENDBRANCH   1  23
TORSDOF 5
ENDMDL
MODEL 2
REMARK VINA RESULT:      -8.0      2.533      3.605
REMARK  Name = 
REMARK  7 active torsions:
REMARK  status: ('A' for Active; 'I' for Inactive)
REMARK    1  A    between atoms: C_1  and  C_2
REMARK    2  A    between atoms: C_2  and  S_3
REMARK    3  A    between atoms: C_2  and  C_10
REMARK    4  A    between atoms: S_3  and  C_4
REMARK    5  A    between atoms: N_8  and  C_9
REMARK    6  A    between atoms: C_16  and  C_18
REMARK    7  A    between atoms: C_23  and  C_24
REMARK                            x       y       z     vdW  Elec       q    Type
REMARK                         _______ _______ _______ _____ _____    ______ ____
ROOT
ATOM      1  C   UNL     1       0.303  10.596  20.118  0.00  0.00    +0.000 A 
ATOM      2  C   UNL     1      -0.238  10.222  21.352  0.00  0.00    +0.000 A 
ATOM      3  C   UNL     1       0.062   8.975  21.865  0.00  0.00    +0.000 A 
ATOM      4  N   UNL     1       0.846   8.081  21.240  0.00  0.00    +0.000 NA
ATOM      5  C   UNL     1       1.378   8.418  20.054  0.00  0.00    +0.000 A 
ATOM      6  N   UNL     1       2.147   7.480  19.352  0.00  0.00    +0.000 N 
ATOM      7  C   UNL     1       2.414   6.199  19.798  0.00  0.00    +0.000 C 
ATOM      8  O   UNL     1       2.108   5.698  20.874  0.00  0.00    +0.000 OA
ATOM      9  C   UNL     1       1.151   9.666  19.478  0.00  0.00    +0.000 A 
ATOM     10  H   UNL     1       2.490   7.726  18.431  0.00  0.00    +0.000 HD
ENDROOT
BRANCH   7  11
ATOM     11  C   UNL     1       3.159   5.349  18.818  0.00  0.00    +0.000 A 
ATOM     12  C   UNL     1       3.034   3.971  18.892  0.00  0.00    +0.000 A 
ATOM     13  C   UNL     1       3.706   3.216  17.950  0.00  0.00    +0.000 A 
ATOM     14 CL   UNL     1       3.579   1.501  17.982  0.00  0.00    +0.000 Cl
ATOM     15  C   UNL     1       4.473   3.831  16.968  0.00  0.00    +0.000 A 
ATOM     16  C   UNL     1       4.554   5.223  16.952  0.00  0.00    +0.000 A 
ATOM     17  N   UNL     1       3.907   5.994  17.878  0.00  0.00    +0.000 NA
BRANCH  16  18
ATOM     18  C   UNL     1       5.374   5.911  15.866  0.00  0.00    +0.000 C 
ATOM     19  F   UNL     1       4.797   7.053  15.392  0.00  0.00    +0.000 F 
ATOM     20  F   UNL     1       6.614   6.279  16.298  0.00  0.00    +0.000 F 
ATOM     21  F   UNL     1       5.574   5.119  14.775  0.00  0.00    +0.000 F 
ENDBRANCH  16  18
ENDBRANCH   7  11
BRANCH   1  23
ATOM     22  C   UNL     1      -0.973  11.805  18.240  0.00  0.00    +0.000 C 
ATOM     23  C   UNL     1      -0.027  11.933  19.445  0.00  0.00    +0.000 C 
BRANCH  23  24
ATOM     24  S   UNL     1       1.557  12.715  18.915  0.00  0.00    +0.000 S 
BRANCH  24  25
ATOM     25  C   UNL     1       1.958  13.729  20.248  0.00  0.00    +0.000 A 
ATOM     26  N   UNL     1       2.659  13.422  21.312  0.00  0.00    +0.000 NA
ATOM     27  N   UNL     1       2.653  14.522  22.146  0.00  0.00    +0.000 NA
ATOM     28  C   UNL     1       1.962  15.468  21.550  0.00  0.00    +0.000 A 
ATOM     29  N   UNL     1       1.530  15.022  20.338  0.00  0.00    +0.000 N 
ATOM     30  C   UNL     1       0.767  15.769  19.376  0.00  0.00    +0.000 C 
ENDBRANCH  24  25
ENDBRANCH  23  24
ENDBRANCH   1  23
TORSDOF 5
ENDMDL
MODEL 3
REMARK VINA RESULT:      -8.0      2.265      2.671
REMARK  Name = 
REMARK  7 active torsions:
REMARK  status: ('A' for Active; 'I' for Inactive)
REMARK    1  A    between atoms: C_1  and  C_2
REMARK    2  A    between atoms: C_2  and  S_3
REMARK    3  A    between atoms: C_2  and  C_10
REMARK    4  A    between atoms: S_3  and  C_4
REMARK    5  A    between atoms: N_8  and  C_9
REMARK    6  A    between atoms: C_16  and  C_18
REMARK    7  A    between atoms: C_23  and  C_24
REMARK                            x       y       z     vdW  Elec       q    Type
REMARK                         _______ _______ _______ _____ _____    ______ ____
ROOT
ATOM      1  C   UNL     1      -0.223  10.968  19.889  0.00  0.00    +0.000 A 
ATOM      2  C   UNL     1      -0.523  10.729  21.234  0.00  0.00    +0.000 A 
ATOM      3  C   UNL     1      -0.013   9.599  21.844  0.00  0.00    +0.000 A 
ATOM      4  N   UNL     1       0.759   8.696  21.215  0.00  0.00    +0.000 NA
ATOM      5  C   UNL     1       1.060   8.905  19.924  0.00  0.00    +0.000 A 
ATOM      6  N   UNL     1       1.809   7.947  19.227  0.00  0.00    +0.000 N 
ATOM      7  C   UNL     1       2.281   6.771  19.781  0.00  0.00    +0.000 C 
ATOM      8  O   UNL     1       2.202   6.406  20.948  0.00  0.00    +0.000 OA
ATOM      9  C   UNL     1       0.612  10.033  19.240  0.00  0.00    +0.000 A 
ATOM     10  H   UNL     1       1.977   8.087  18.238  0.00  0.00    +0.000 HD
ENDROOT
BRANCH   7  11
ATOM     11  C   UNL     1       2.953   5.858  18.806  0.00  0.00    +0.000 A 
ATOM     12  C   UNL     1       3.789   6.401  17.843  0.00  0.00    +0.000 A 
ATOM     13  C   UNL     1       4.422   5.528  16.980  0.00  0.00    +0.000 A 
ATOM     14 CL   UNL     1       5.482   6.141  15.771  0.00  0.00    +0.000 Cl
ATOM     15  C   UNL     1       4.222   4.157  17.088  0.00  0.00    +0.000 A 
ATOM     16  C   UNL     1       3.369   3.679  18.082  0.00  0.00    +0.000 A 
ATOM     17  N   UNL     1       2.721   4.522  18.944  0.00  0.00    +0.000 NA
BRANCH  16  18
ATOM     18  C   UNL     1       3.157   2.176  18.226  0.00  0.00    +0.000 C 
ATOM     19  F   UNL     1       1.916   1.763  17.837  0.00  0.00    +0.000 F 
ATOM     20  F   UNL     1       4.036   1.448  17.479  0.00  0.00    +0.000 F 
ATOM     21  F   UNL     1       3.305   1.743  19.509  0.00  0.00    +0.000 F 
ENDBRANCH  16  18
ENDBRANCH   7  11
BRANCH   1  23
ATOM     22  C   UNL     1      -0.453  13.526  19.735  0.00  0.00    +0.000 C 
ATOM     23  C   UNL     1      -0.798  12.161  19.116  0.00  0.00    +0.000 C 
BRANCH  23  24
ATOM     24  S   UNL     1      -2.628  11.959  19.029  0.00  0.00    +0.000 S 
BRANCH  24  25
ATOM     25  C   UNL     1      -2.872  11.269  17.469  0.00  0.00    +0.000 A 
ATOM     26  N   UNL     1      -2.014  10.594  16.744  0.00  0.00    +0.000 NA
ATOM     27  N   UNL     1      -2.621  10.311  15.537  0.00  0.00    +0.000 NA
ATOM     28  C   UNL     1      -3.838  10.808  15.579  0.00  0.00    +0.000 A 
ATOM     29  N   UNL     1      -4.048  11.396  16.789  0.00  0.00    +0.000 N 
ATOM     30  C   UNL     1      -5.261  12.028  17.231  0.00  0.00    +0.000 C 
ENDBRANCH  24  25
ENDBRANCH  23  24
ENDBRANCH   1  23
TORSDOF 5
ENDMDL
MODEL 4
REMARK VINA RESULT:      -8.0      2.540      3.867
REMARK  Name = 
REMARK  7 active torsions:
REMARK  status: ('A' for Active; 'I' for Inactive)
REMARK    1  A    between atoms: C_1  and  C_2
REMARK    2  A    between atoms: C_2  and  S_3
REMARK    3  A    between atoms: C_2  and  C_10
REMARK    4  A    between atoms: S_3  and  C_4
REMARK    5  A    between atoms: N_8  and  C_9
REMARK    6  A    between atoms: C_16  and  C_18
REMARK    7  A    between atoms: C_23  and  C_24
REMARK                            x       y       z     vdW  Elec       q    Type
REMARK                         _______ _______ _______ _____ _____    ______ ____
ROOT
ATOM      1  C   UNL     1       0.200  10.733  20.419  0.00  0.00    +0.000 A 
ATOM      2  C   UNL     1      -0.436  10.285  21.582  0.00  0.00    +0.000 A 
ATOM      3  C   UNL     1      -0.198   8.997  22.021  0.00  0.00    +0.000 A 
ATOM      4  N   UNL     1       0.610   8.130  21.388  0.00  0.00    +0.000 NA
ATOM      5  C   UNL     1       1.232   8.538  20.271  0.00  0.00    +0.000 A 
ATOM      6  N   UNL     1       2.029   7.634  19.556  0.00  0.00    +0.000 N 
ATOM      7  C   UNL     1       2.238   6.318  19.925  0.00  0.00    +0.000 C 
ATOM      8  O   UNL     1       1.846   5.749  20.937  0.00  0.00    +0.000 OA
ATOM      9  C   UNL     1       1.072   9.830  19.774  0.00  0.00    +0.000 A 
ATOM     10  H   UNL     1       2.442   7.936  18.682  0.00  0.00    +0.000 HD
ENDROOT
BRANCH   7  11
ATOM     11  C   UNL     1       3.033   5.522  18.939  0.00  0.00    +0.000 A 
ATOM     12  C   UNL     1       2.858   4.148  18.886  0.00  0.00    +0.000 A 
ATOM     13  C   UNL     1       3.580   3.447  17.940  0.00  0.00    +0.000 A 
ATOM     14 CL   UNL     1       3.395   1.741  17.817  0.00  0.00    +0.000 Cl
ATOM     15  C   UNL     1       4.445   4.109  17.078  0.00  0.00    +0.000 A 
ATOM     16  C   UNL     1       4.573   5.493  17.186  0.00  0.00    +0.000 A 
ATOM     17  N   UNL     1       3.877   6.212  18.119  0.00  0.00    +0.000 NA
BRANCH  16  18
ATOM     18  C   UNL     1       5.503   6.235  16.231  0.00  0.00    +0.000 C 
ATOM     19  F   UNL     1       6.256   7.194  16.843  0.00  0.00    +0.000 F 
ATOM     20  F   UNL     1       6.393   5.406  15.616  0.00  0.00    +0.000 F 
ATOM     21  F   UNL     1       4.831   6.875  15.233  0.00  0.00    +0.000 F 
ENDBRANCH  16  18
ENDBRANCH   7  11
BRANCH   1  23
ATOM     22  C   UNL     1      -1.340  12.215  18.988  0.00  0.00    +0.000 C 
ATOM     23  C   UNL     1      -0.054  12.123  19.825  0.00  0.00    +0.000 C 
BRANCH  23  24
ATOM     24  S   UNL     1       1.400  12.577  18.786  0.00  0.00    +0.000 S 
BRANCH  24  25
ATOM     25  C   UNL     1       2.437  13.387  19.898  0.00  0.00    +0.000 A 
ATOM     26  N   UNL     1       2.479  13.259  21.202  0.00  0.00    +0.000 NA
ATOM     27  N   UNL     1       3.406  14.162  21.679  0.00  0.00    +0.000 NA
ATOM     28  C   UNL     1       3.912  14.797  20.645  0.00  0.00    +0.000 A 
ATOM     29  N   UNL     1       3.350  14.320  19.500  0.00  0.00    +0.000 N 
ATOM     30  C   UNL     1       3.659  14.739  18.159  0.00  0.00    +0.000 C 
ENDBRANCH  24  25
ENDBRANCH  23  24
ENDBRANCH   1  23
TORSDOF 5
ENDMDL
MODEL 5
REMARK VINA RESULT:      -8.0      4.001      4.848
REMARK  Name = 
REMARK  7 active torsions:
REMARK  status: ('A' for Active; 'I' for Inactive)
REMARK    1  A    between atoms: C_1  and  C_2
REMARK    2  A    between atoms: C_2  and  S_3
REMARK    3  A    between atoms: C_2  and  C_10
REMARK    4  A    between atoms: S_3  and  C_4
REMARK    5  A    between atoms: N_8  and  C_9
REMARK    6  A    between atoms: C_16  and  C_18
REMARK    7  A    between atoms: C_23  and  C_24
REMARK                            x       y       z     vdW  Elec       q    Type
REMARK                         _______ _______ _______ _____ _____    ______ ____
ROOT
ATOM      1  C   UNL     1       0.189  10.981  21.030  0.00  0.00    +0.000 A 
ATOM      2  C   UNL     1       0.391  11.968  20.061  0.00  0.00    +0.000 A 
ATOM      3  C   UNL     1       1.015  11.628  18.877  0.00  0.00    +0.000 A 
ATOM      4  N   UNL     1       1.456  10.390  18.596  0.00  0.00    +0.000 NA
ATOM      5  C   UNL     1       1.272   9.425  19.510  0.00  0.00    +0.000 A 
ATOM      6  N   UNL     1       1.779   8.141  19.269  0.00  0.00    +0.000 N 
ATOM      7  C   UNL     1       2.469   7.776  18.127  0.00  0.00    +0.000 C 
ATOM      8  O   UNL     1       2.685   8.455  17.130  0.00  0.00    +0.000 OA
ATOM      9  C   UNL     1       0.626   9.675  20.719  0.00  0.00    +0.000 A 
ATOM     10  H   UNL     1       1.688   7.439  19.993  0.00  0.00    +0.000 HD
ENDROOT
BRANCH   7  11
ATOM     11  C   UNL     1       3.009   6.382  18.154  0.00  0.00    +0.000 A 
ATOM     12  C   UNL     1       4.321   6.162  17.765  0.00  0.00    +0.000 A 
ATOM     13  C   UNL     1       4.800   4.868  17.835  0.00  0.00    +0.000 A 
ATOM     14 CL   UNL     1       6.425   4.534  17.378  0.00  0.00    +0.000 Cl
ATOM     15  C   UNL     1       3.987   3.836  18.286  0.00  0.00    +0.000 A 
ATOM     16  C   UNL     1       2.676   4.129  18.663  0.00  0.00    +0.000 A 
ATOM     17  N   UNL     1       2.173   5.399  18.594  0.00  0.00    +0.000 NA
BRANCH  16  18
ATOM     18  C   UNL     1       1.779   3.009  19.180  0.00  0.00    +0.000 C 
ATOM     19  F   UNL     1       1.306   2.194  18.192  0.00  0.00    +0.000 F 
ATOM     20  F   UNL     1       2.420   2.187  20.058  0.00  0.00    +0.000 F 
ATOM     21  F   UNL     1       0.678   3.475  19.832  0.00  0.00    +0.000 F 
ENDBRANCH  16  18
ENDBRANCH   7  11
BRANCH   1  23
ATOM     22  C   UNL     1      -0.813  10.026  23.199  0.00  0.00    +0.000 C 
ATOM     23  C   UNL     1      -0.437  11.282  22.397  0.00  0.00    +0.000 C 
BRANCH  23  24
ATOM     24  S   UNL     1      -1.937  12.320  22.124  0.00  0.00    +0.000 S 
BRANCH  24  25
ATOM     25  C   UNL     1      -1.764  13.572  23.294  0.00  0.00    +0.000 A 
ATOM     26  N   UNL     1      -0.655  14.107  23.745  0.00  0.00    +0.000 NA
ATOM     27  N   UNL     1      -1.000  15.013  24.728  0.00  0.00    +0.000 NA
ATOM     28  C   UNL     1      -2.311  15.010  24.828  0.00  0.00    +0.000 A 
ATOM     29  N   UNL     1      -2.835  14.138  23.923  0.00  0.00    +0.000 N 
ATOM     30  C   UNL     1      -4.231  13.872  23.704  0.00  0.00    +0.000 C 
ENDBRANCH  24  25
ENDBRANCH  23  24
ENDBRANCH   1  23
TORSDOF 5
ENDMDL
MODEL 6
REMARK VINA RESULT:      -8.0      3.972      4.865
REMARK  Name = 
REMARK  7 active torsions:
REMARK  status: ('A' for Active; 'I' for Inactive)
REMARK    1  A    between atoms: C_1  and  C_2
REMARK    2  A    between atoms: C_2  and  S_3
REMARK    3  A    between atoms: C_2  and  C_10
REMARK    4  A    between atoms: S_3  and  C_4
REMARK    5  A    between atoms: N_8  and  C_9
REMARK    6  A    between atoms: C_16  and  C_18
REMARK    7  A    between atoms: C_23  and  C_24
REMARK                            x       y       z     vdW  Elec       q    Type
REMARK                         _______ _______ _______ _____ _____    ______ ____
ROOT
ATOM      1  C   UNL     1       0.145  11.366  20.787  0.00  0.00    +0.000 A 
ATOM      2  C   UNL     1       0.571  12.299  19.836  0.00  0.00    +0.000 A 
ATOM      3  C   UNL     1       1.299  11.862  18.747  0.00  0.00    +0.000 A 
ATOM      4  N   UNL     1       1.637  10.578  18.543  0.00  0.00    +0.000 NA
ATOM      5  C   UNL     1       1.240   9.664  19.442  0.00  0.00    +0.000 A 
ATOM      6  N   UNL     1       1.634   8.328  19.288  0.00  0.00    +0.000 N 
ATOM      7  C   UNL     1       2.419   7.861  18.249  0.00  0.00    +0.000 C 
ATOM      8  O   UNL     1       2.829   8.485  17.278  0.00  0.00    +0.000 OA
ATOM      9  C   UNL     1       0.477  10.014  20.554  0.00  0.00    +0.000 A 
ATOM     10  H   UNL     1       1.379   7.660  20.005  0.00  0.00    +0.000 HD
ENDROOT
BRANCH   7  11
ATOM     11  C   UNL     1       2.801   6.419  18.367  0.00  0.00    +0.000 A 
ATOM     12  C   UNL     1       3.707   5.888  17.463  0.00  0.00    +0.000 A 
ATOM     13  C   UNL     1       4.066   4.563  17.621  0.00  0.00    +0.000 A 
ATOM     14 CL   UNL     1       5.197   3.851  16.539  0.00  0.00    +0.000 Cl
ATOM     15  C   UNL     1       3.532   3.805  18.655  0.00  0.00    +0.000 A 
ATOM     16  C   UNL     1       2.625   4.404  19.530  0.00  0.00    +0.000 A 
ATOM     17  N   UNL     1       2.245   5.711  19.391  0.00  0.00    +0.000 NA
BRANCH  16  18
ATOM     18  C   UNL     1       2.048   3.589  20.682  0.00  0.00    +0.000 C 
ATOM     19  F   UNL     1       2.368   4.087  21.912  0.00  0.00    +0.000 F 
ATOM     20  F   UNL     1       0.687   3.530  20.654  0.00  0.00    +0.000 F 
ATOM     21  F   UNL     1       2.482   2.297  20.683  0.00  0.00    +0.000 F 
ENDBRANCH  16  18
ENDBRANCH   7  11
BRANCH   1  23
ATOM     22  C   UNL     1      -0.883  10.601  23.017  0.00  0.00    +0.000 C 
ATOM     23  C   UNL     1      -0.612  11.770  22.057  0.00  0.00    +0.000 C 
BRANCH  23  24
ATOM     24  S   UNL     1      -2.207  12.546  21.552  0.00  0.00    +0.000 S 
BRANCH  24  25
ATOM     25  C   UNL     1      -2.992  12.840  23.056  0.00  0.00    +0.000 A 
ATOM     26  N   UNL     1      -3.951  12.141  23.616  0.00  0.00    +0.000 NA
ATOM     27  N   UNL     1      -4.322  12.796  24.772  0.00  0.00    +0.000 NA
ATOM     28  C   UNL     1      -3.561  13.863  24.887  0.00  0.00    +0.000 A 
ATOM     29  N   UNL     1      -2.690  13.914  23.842  0.00  0.00    +0.000 N 
ATOM     30  C   UNL     1      -1.678  14.912  23.623  0.00  0.00    +0.000 C 
ENDBRANCH  24  25
ENDBRANCH  23  24
ENDBRANCH   1  23
TORSDOF 5
ENDMDL
MODEL 7
REMARK VINA RESULT:      -7.9      3.280      4.499
REMARK  Name = 
REMARK  7 active torsions:
REMARK  status: ('A' for Active; 'I' for Inactive)
REMARK    1  A    between atoms: C_1  and  C_2
REMARK    2  A    between atoms: C_2  and  S_3
REMARK    3  A    between atoms: C_2  and  C_10
REMARK    4  A    between atoms: S_3  and  C_4
REMARK    5  A    between atoms: N_8  and  C_9
REMARK    6  A    between atoms: C_16  and  C_18
REMARK    7  A    between atoms: C_23  and  C_24
REMARK                            x       y       z     vdW  Elec       q    Type
REMARK                         _______ _______ _______ _____ _____    ______ ____
ROOT
ATOM      1  C   UNL     1       0.096  11.153  20.130  0.00  0.00    +0.000 A 
ATOM      2  C   UNL     1      -0.510  10.811  21.343  0.00  0.00    +0.000 A 
ATOM      3  C   UNL     1      -0.270   9.563  21.883  0.00  0.00    +0.000 A 
ATOM      4  N   UNL     1       0.513   8.637  21.304  0.00  0.00    +0.000 NA
ATOM      5  C   UNL     1       1.105   8.942  20.139  0.00  0.00    +0.000 A 
ATOM      6  N   UNL     1       1.875   7.973  19.482  0.00  0.00    +0.000 N 
ATOM      7  C   UNL     1       2.083   6.690  19.955  0.00  0.00    +0.000 C 
ATOM      8  O   UNL     1       1.715   6.214  21.022  0.00  0.00    +0.000 OA
ATOM      9  C   UNL     1       0.942  10.189  19.539  0.00  0.00    +0.000 A 
ATOM     10  H   UNL     1       2.265   8.196  18.574  0.00  0.00    +0.000 HD
ENDROOT
BRANCH   7  11
ATOM     11  C   UNL     1       2.843   5.805  19.019  0.00  0.00    +0.000 A 
ATOM     12  C   UNL     1       3.553   6.382  17.977  0.00  0.00    +0.000 A 
ATOM     13  C   UNL     1       4.274   5.540  17.152  0.00  0.00    +0.000 A 
ATOM     14 CL   UNL     1       5.186   6.197  15.850  0.00  0.00    +0.000 Cl
ATOM     15  C   UNL     1       4.279   4.168  17.372  0.00  0.00    +0.000 A 
ATOM     16  C   UNL     1       3.542   3.656  18.439  0.00  0.00    +0.000 A 
ATOM     17  N   UNL     1       2.813   4.465  19.267  0.00  0.00    +0.000 NA
BRANCH  16  18
ATOM     18  C   UNL     1       3.557   2.154  18.705  0.00  0.00    +0.000 C 
ATOM     19  F   UNL     1       4.480   1.778  19.637  0.00  0.00    +0.000 F 
ATOM     20  F   UNL     1       2.361   1.691  19.166  0.00  0.00    +0.000 F 
ATOM     21  F   UNL     1       3.841   1.425  17.590  0.00  0.00    +0.000 F 
ENDBRANCH  16  18
ENDBRANCH   7  11
BRANCH   1  23
ATOM     22  C   UNL     1      -1.128  12.388  18.234  0.00  0.00    +0.000 C 
ATOM     23  C   UNL     1      -0.163  12.490  19.427  0.00  0.00    +0.000 C 
BRANCH  23  24
ATOM     24  S   UNL     1       1.457  13.166  18.863  0.00  0.00    +0.000 S 
BRANCH  24  25
ATOM     25  C   UNL     1       2.058  13.963  20.267  0.00  0.00    +0.000 A 
ATOM     26  N   UNL     1       2.784  13.455  21.234  0.00  0.00    +0.000 NA
ATOM     27  N   UNL     1       2.960  14.441  22.183  0.00  0.00    +0.000 NA
ATOM     28  C   UNL     1       2.349  15.522  21.751  0.00  0.00    +0.000 A 
ATOM     29  N   UNL     1       1.792  15.275  20.534  0.00  0.00    +0.000 N 
ATOM     30  C   UNL     1       1.064  16.211  19.722  0.00  0.00    +0.000 C 
ENDBRANCH  24  25
ENDBRANCH  23  24
ENDBRANCH   1  23
TORSDOF 5
ENDMDL
MODEL 8
REMARK VINA RESULT:      -7.9      3.336      4.099
REMARK  Name = 
REMARK  7 active torsions:
REMARK  status: ('A' for Active; 'I' for Inactive)
REMARK    1  A    between atoms: C_1  and  C_2
REMARK    2  A    between atoms: C_2  and  S_3
REMARK    3  A    between atoms: C_2  and  C_10
REMARK    4  A    between atoms: S_3  and  C_4
REMARK    5  A    between atoms: N_8  and  C_9
REMARK    6  A    between atoms: C_16  and  C_18
REMARK    7  A    between atoms: C_23  and  C_24
REMARK                            x       y       z     vdW  Elec       q    Type
REMARK                         _______ _______ _______ _____ _____    ______ ____
ROOT
ATOM      1  C   UNL     1       0.242  10.933  21.013  0.00  0.00    +0.000 A 
ATOM      2  C   UNL     1       0.436  11.939  20.060  0.00  0.00    +0.000 A 
ATOM      3  C   UNL     1       1.055  11.622  18.867  0.00  0.00    +0.000 A 
ATOM      4  N   UNL     1       1.498  10.391  18.561  0.00  0.00    +0.000 NA
ATOM      5  C   UNL     1       1.323   9.410  19.459  0.00  0.00    +0.000 A 
ATOM      6  N   UNL     1       1.833   8.132  19.192  0.00  0.00    +0.000 N 
ATOM      7  C   UNL     1       2.518   7.790  18.040  0.00  0.00    +0.000 C 
ATOM      8  O   UNL     1       2.727   8.488  17.055  0.00  0.00    +0.000 OA
ATOM      9  C   UNL     1       0.682   9.635  20.676  0.00  0.00    +0.000 A 
ATOM     10  H   UNL     1       1.749   7.416  19.904  0.00  0.00    +0.000 HD
ENDROOT
BRANCH   7  11
ATOM     11  C   UNL     1       3.064   6.398  18.040  0.00  0.00    +0.000 A 
ATOM     12  C   UNL     1       2.435   5.429  18.805  0.00  0.00    +0.000 A 
ATOM     13  C   UNL     1       2.942   4.145  18.755  0.00  0.00    +0.000 A 
ATOM     14 CL   UNL     1       2.196   2.896  19.673  0.00  0.00    +0.000 Cl
ATOM     15  C   UNL     1       4.042   3.850  17.959  0.00  0.00    +0.000 A 
ATOM     16  C   UNL     1       4.626   4.874  17.213  0.00  0.00    +0.000 A 
ATOM     17  N   UNL     1       4.150   6.156  17.251  0.00  0.00    +0.000 NA
BRANCH  16  18
ATOM     18  C   UNL     1       5.820   4.559  16.318  0.00  0.00    +0.000 C 
ATOM     19  F   UNL     1       7.020   4.652  16.963  0.00  0.00    +0.000 F 
ATOM     20  F   UNL     1       5.775   3.296  15.808  0.00  0.00    +0.000 F 
ATOM     21  F   UNL     1       5.911   5.396  15.247  0.00  0.00    +0.000 F 
ENDBRANCH  16  18
ENDBRANCH   7  11
BRANCH   1  23
ATOM     22  C   UNL     1      -0.737   9.936  23.173  0.00  0.00    +0.000 C 
ATOM     23  C   UNL     1      -0.377  11.208  22.388  0.00  0.00    +0.000 C 
BRANCH  23  24
ATOM     24  S   UNL     1      -1.888  12.237  22.141  0.00  0.00    +0.000 S 
BRANCH  24  25
ATOM     25  C   UNL     1      -1.652  13.547  23.233  0.00  0.00    +0.000 A 
ATOM     26  N   UNL     1      -0.566  14.259  23.416  0.00  0.00    +0.000 NA
ATOM     27  N   UNL     1      -0.816  15.143  24.446  0.00  0.00    +0.000 NA
ATOM     28  C   UNL     1      -2.055  14.951  24.842  0.00  0.00    +0.000 A 
ATOM     29  N   UNL     1      -2.628  13.974  24.086  0.00  0.00    +0.000 N 
ATOM     30  C   UNL     1      -3.980  13.496  24.192  0.00  0.00    +0.000 C 
ENDBRANCH  24  25
ENDBRANCH  23  24
ENDBRANCH   1  23
TORSDOF 5
ENDMDL
MODEL 9
REMARK VINA RESULT:      -7.8      2.310      2.673
REMARK  Name = 
REMARK  7 active torsions:
REMARK  status: ('A' for Active; 'I' for Inactive)
REMARK    1  A    between atoms: C_1  and  C_2
REMARK    2  A    between atoms: C_2  and  S_3
REMARK    3  A    between atoms: C_2  and  C_10
REMARK    4  A    between atoms: S_3  and  C_4
REMARK    5  A    between atoms: N_8  and  C_9
REMARK    6  A    between atoms: C_16  and  C_18
REMARK    7  A    between atoms: C_23  and  C_24
REMARK                            x       y       z     vdW  Elec       q    Type
REMARK                         _______ _______ _______ _____ _____    ______ ____
ROOT
ATOM      1  C   UNL     1       0.103  11.017  20.639  0.00  0.00    +0.000 A 
ATOM      2  C   UNL     1      -0.494  10.580  21.827  0.00  0.00    +0.000 A 
ATOM      3  C   UNL     1      -0.255   9.292  22.263  0.00  0.00    +0.000 A 
ATOM      4  N   UNL     1       0.519   8.413  21.604  0.00  0.00    +0.000 NA
ATOM      5  C   UNL     1       1.102   8.809  20.461  0.00  0.00    +0.000 A 
ATOM      6  N   UNL     1       1.862   7.893  19.722  0.00  0.00    +0.000 N 
ATOM      7  C   UNL     1       2.069   6.575  20.088  0.00  0.00    +0.000 C 
ATOM      8  O   UNL     1       1.709   6.016  21.117  0.00  0.00    +0.000 OA
ATOM      9  C   UNL     1       0.939  10.100  19.965  0.00  0.00    +0.000 A 
ATOM     10  H   UNL     1       2.245   8.186  18.831  0.00  0.00    +0.000 HD
ENDROOT
BRANCH   7  11
ATOM     11  C   UNL     1       2.817   5.766  19.076  0.00  0.00    +0.000 A 
ATOM     12  C   UNL     1       3.492   6.421  18.058  0.00  0.00    +0.000 A 
ATOM     13  C   UNL     1       4.202   5.646  17.161  0.00  0.00    +0.000 A 
ATOM     14 CL   UNL     1       5.071   6.402  15.883  0.00  0.00    +0.000 Cl
ATOM     15  C   UNL     1       4.232   4.264  17.289  0.00  0.00    +0.000 A 
ATOM     16  C   UNL     1       3.531   3.670  18.339  0.00  0.00    +0.000 A 
ATOM     17  N   UNL     1       2.812   4.412  19.236  0.00  0.00    +0.000 NA
BRANCH  16  18
ATOM     18  C   UNL     1       3.573   2.155  18.504  0.00  0.00    +0.000 C 
ATOM     19  F   UNL     1       4.370   1.745  19.533  0.00  0.00    +0.000 F 
ATOM     20  F   UNL     1       2.345   1.620  18.755  0.00  0.00    +0.000 F 
ATOM     21  F   UNL     1       4.044   1.517  17.396  0.00  0.00    +0.000 F 
ENDBRANCH  16  18
ENDBRANCH   7  11
BRANCH   1  23
ATOM     22  C   UNL     1       0.715  13.515  20.661  0.00  0.00    +0.000 C 
ATOM     23  C   UNL     1      -0.158  12.407  20.048  0.00  0.00    +0.000 C 
BRANCH  23  24
ATOM     24  S   UNL     1      -1.940  12.809  20.293  0.00  0.00    +0.000 S 
BRANCH  24  25
ATOM     25  C   UNL     1      -2.694  12.098  18.917  0.00  0.00    +0.000 A 
ATOM     26  N   UNL     1      -2.120  11.630  17.835  0.00  0.00    +0.000 NA
ATOM     27  N   UNL     1      -3.121  11.233  16.971  0.00  0.00    +0.000 NA
ATOM     28  C   UNL     1      -4.271  11.456  17.568  0.00  0.00    +0.000 A 
ATOM     29  N   UNL     1      -4.049  11.973  18.807  0.00  0.00    +0.000 N 
ATOM     30  C   UNL     1      -5.050  12.324  19.778  0.00  0.00    +0.000 C 
ENDBRANCH  24  25
ENDBRANCH  23  24
ENDBRANCH   1  23
TORSDOF 5
ENDMDL
