MODEL 1
REMARK VINA RESULT:      -7.4      0.000      0.000
REMARK  Name = 
REMARK  4 active torsions:
REMARK  status: ('A' for Active; 'I' for Inactive)
REMARK    1  A    between atoms: C_1  and  N_2
REMARK    2  A    between atoms: C_9  and  O_10
REMARK    3  A    between atoms: C_13  and  C_14
REMARK    4  A    between atoms: C_14  and  C_15
REMARK                            x       y       z     vdW  Elec       q    Type
REMARK                         _______ _______ _______ _____ _____    ______ ____
ROOT
ATOM      1  C   UNL     1       1.199   8.352  21.074  0.00  0.00    +0.000 C 
ATOM      2  N   UNL     1       2.101   7.920  20.025  0.00  0.00    +0.000 NA
ATOM      3  C   UNL     1       1.609   8.234  18.685  0.00  0.00    +0.000 C 
ATOM      4  C   UNL     1       2.723   8.105  17.639  0.00  0.00    +0.000 C 
ATOM      5  C   UNL     1       3.731   7.013  17.914  0.00  0.00    +0.000 A 
ATOM      6  C   UNL     1       4.734   6.753  16.969  0.00  0.00    +0.000 A 
ATOM      7  C   UNL     1       5.698   5.780  17.226  0.00  0.00    +0.000 A 
ATOM      8 CL   UNL     1       6.920   5.466  16.054  0.00  0.00    +0.000 Cl
ATOM      9  C   UNL     1       5.668   5.067  18.427  0.00  0.00    +0.000 A 
ATOM     10  C   UNL     1       4.681   5.313  19.374  0.00  0.00    +0.000 A 
ATOM     11  C   UNL     1       3.697   6.286  19.126  0.00  0.00    +0.000 A 
ATOM     12  C   UNL     1       2.573   6.522  20.138  0.00  0.00    +0.000 C 
ENDROOT
BRANCH   9  13
ATOM     13  O   UNL     1       6.594   4.101  18.721  0.00  0.00    +0.000 OA
ATOM     14  H   UNL     1       6.875   4.255  19.640  0.00  0.00    +0.000 HD
ENDBRANCH   9  13
BRANCH  12  15
ATOM     15  C   UNL     1       1.516   5.355  20.157  0.00  0.00    +0.000 C 
BRANCH  15  16
ATOM     16  C   UNL     1       1.783   4.124  19.311  0.00  0.00    +0.000 A 
ATOM     17  C   UNL     1       2.214   2.922  19.892  0.00  0.00    +0.000 A 
ATOM     18  C   UNL     1       2.655   1.861  19.102  0.00  0.00    +0.000 A 
ATOM     19  C   UNL     1       2.592   1.954  17.717  0.00  0.00    +0.000 A 
ATOM     20  C   UNL     1       2.052   3.094  17.125  0.00  0.00    +0.000 A 
ATOM     21  C   UNL     1       1.646   4.174  17.916  0.00  0.00    +0.000 A 
ENDBRANCH  15  16
ENDBRANCH  12  15
TORSDOF 3
ENDMDL
MODEL 2
REMARK VINA RESULT:      -7.3      2.822      4.178
REMARK  Name = 
REMARK  4 active torsions:
REMARK  status: ('A' for Active; 'I' for Inactive)
REMARK    1  A    between atoms: C_1  and  N_2
REMARK    2  A    between atoms: C_9  and  O_10
REMARK    3  A    between atoms: C_13  and  C_14
REMARK    4  A    between atoms: C_14  and  C_15
REMARK                            x       y       z     vdW  Elec       q    Type
REMARK                         _______ _______ _______ _____ _____    ______ ____
ROOT
ATOM      1  C   UNL     1       4.878   3.295  19.822  0.00  0.00    +0.000 C 
ATOM      2  N   UNL     1       5.537   3.840  18.651  0.00  0.00    +0.000 NA
ATOM      3  C   UNL     1       6.149   5.144  18.896  0.00  0.00    +0.000 C 
ATOM      4  C   UNL     1       7.132   5.517  17.780  0.00  0.00    +0.000 C 
ATOM      5  C   UNL     1       6.741   5.033  16.402  0.00  0.00    +0.000 A 
ATOM      6  C   UNL     1       7.525   5.403  15.299  0.00  0.00    +0.000 A 
ATOM      7  C   UNL     1       7.205   4.931  14.028  0.00  0.00    +0.000 A 
ATOM      8 CL   UNL     1       8.172   5.399  12.681  0.00  0.00    +0.000 Cl
ATOM      9  C   UNL     1       6.107   4.085  13.852  0.00  0.00    +0.000 A 
ATOM     10  C   UNL     1       5.322   3.709  14.935  0.00  0.00    +0.000 A 
ATOM     11  C   UNL     1       5.626   4.184  16.222  0.00  0.00    +0.000 A 
ATOM     12  C   UNL     1       4.731   3.821  17.410  0.00  0.00    +0.000 C 
ENDROOT
BRANCH   9  13
ATOM     13  O   UNL     1       5.756   3.599  12.621  0.00  0.00    +0.000 OA
ATOM     14  H   UNL     1       4.893   3.160  12.730  0.00  0.00    +0.000 HD
ENDBRANCH   9  13
BRANCH  12  15
ATOM     15  C   UNL     1       3.348   4.573  17.383  0.00  0.00    +0.000 C 
BRANCH  15  16
ATOM     16  C   UNL     1       2.279   4.157  18.376  0.00  0.00    +0.000 A 
ATOM     17  C   UNL     1       1.997   4.936  19.508  0.00  0.00    +0.000 A 
ATOM     18  C   UNL     1       1.168   4.457  20.522  0.00  0.00    +0.000 A 
ATOM     19  C   UNL     1       0.542   3.224  20.380  0.00  0.00    +0.000 A 
ATOM     20  C   UNL     1       0.715   2.492  19.207  0.00  0.00    +0.000 A 
ATOM     21  C   UNL     1       1.577   2.955  18.208  0.00  0.00    +0.000 A 
ENDBRANCH  15  16
ENDBRANCH  12  15
TORSDOF 3
ENDMDL
MODEL 3
REMARK VINA RESULT:      -7.2      1.975      4.503
REMARK  Name = 
REMARK  4 active torsions:
REMARK  status: ('A' for Active; 'I' for Inactive)
REMARK    1  A    between atoms: C_1  and  N_2
REMARK    2  A    between atoms: C_9  and  O_10
REMARK    3  A    between atoms: C_13  and  C_14
REMARK    4  A    between atoms: C_14  and  C_15
REMARK                            x       y       z     vdW  Elec       q    Type
REMARK                         _______ _______ _______ _____ _____    ______ ____
ROOT
ATOM      1  C   UNL     1       0.826   4.028  20.206  0.00  0.00    +0.000 C 
ATOM      2  N   UNL     1       2.084   4.042  19.484  0.00  0.00    +0.000 NA
ATOM      3  C   UNL     1       3.156   3.347  20.194  0.00  0.00    +0.000 C 
ATOM      4  C   UNL     1       4.344   3.062  19.266  0.00  0.00    +0.000 C 
ATOM      5  C   UNL     1       4.597   4.118  18.214  0.00  0.00    +0.000 A 
ATOM      6  C   UNL     1       5.716   3.996  17.378  0.00  0.00    +0.000 A 
ATOM      7  C   UNL     1       5.941   4.937  16.374  0.00  0.00    +0.000 A 
ATOM      8 CL   UNL     1       7.323   4.779  15.359  0.00  0.00    +0.000 Cl
ATOM      9  C   UNL     1       5.049   5.998  16.198  0.00  0.00    +0.000 A 
ATOM     10  C   UNL     1       3.935   6.131  17.018  0.00  0.00    +0.000 A 
ATOM     11  C   UNL     1       3.699   5.196  18.040  0.00  0.00    +0.000 A 
ATOM     12  C   UNL     1       2.506   5.369  18.985  0.00  0.00    +0.000 C 
ENDROOT
BRANCH   9  13
ATOM     13  O   UNL     1       5.231   6.945  15.226  0.00  0.00    +0.000 OA
ATOM     14  H   UNL     1       6.128   7.301  15.348  0.00  0.00    +0.000 HD
ENDBRANCH   9  13
BRANCH  12  15
ATOM     15  C   UNL     1       2.709   6.546  20.011  0.00  0.00    +0.000 C 
BRANCH  15  16
ATOM     16  C   UNL     1       1.944   7.837  19.789  0.00  0.00    +0.000 A 
ATOM     17  C   UNL     1       1.180   8.415  20.815  0.00  0.00    +0.000 A 
ATOM     18  C   UNL     1       0.318   9.480  20.556  0.00  0.00    +0.000 A 
ATOM     19  C   UNL     1       0.269  10.039  19.284  0.00  0.00    +0.000 A 
ATOM     20  C   UNL     1       1.113   9.556  18.285  0.00  0.00    +0.000 A 
ATOM     21  C   UNL     1       1.948   8.463  18.535  0.00  0.00    +0.000 A 
ENDBRANCH  15  16
ENDBRANCH  12  15
TORSDOF 3
ENDMDL
MODEL 4
REMARK VINA RESULT:      -7.2      3.668      5.908
REMARK  Name = 
REMARK  4 active torsions:
REMARK  status: ('A' for Active; 'I' for Inactive)
REMARK    1  A    between atoms: C_1  and  N_2
REMARK    2  A    between atoms: C_9  and  O_10
REMARK    3  A    between atoms: C_13  and  C_14
REMARK    4  A    between atoms: C_14  and  C_15
REMARK                            x       y       z     vdW  Elec       q    Type
REMARK                         _______ _______ _______ _____ _____    ______ ____
ROOT
ATOM      1  C   UNL     1       7.670   7.553  17.078  0.00  0.00    +0.000 C 
ATOM      2  N   UNL     1       6.800   6.582  17.713  0.00  0.00    +0.000 NA
ATOM      3  C   UNL     1       7.393   5.977  18.904  0.00  0.00    +0.000 C 
ATOM      4  C   UNL     1       6.336   5.251  19.745  0.00  0.00    +0.000 C 
ATOM      5  C   UNL     1       5.230   4.596  18.949  0.00  0.00    +0.000 A 
ATOM      6  C   UNL     1       4.267   3.828  19.618  0.00  0.00    +0.000 A 
ATOM      7  C   UNL     1       3.216   3.254  18.906  0.00  0.00    +0.000 A 
ATOM      8 CL   UNL     1       2.044   2.306  19.741  0.00  0.00    +0.000 Cl
ATOM      9  C   UNL     1       3.119   3.447  17.526  0.00  0.00    +0.000 A 
ATOM     10  C   UNL     1       4.064   4.207  16.848  0.00  0.00    +0.000 A 
ATOM     11  C   UNL     1       5.135   4.785  17.551  0.00  0.00    +0.000 A 
ATOM     12  C   UNL     1       6.213   5.575  16.803  0.00  0.00    +0.000 C 
ENDROOT
BRANCH   9  13
ATOM     13  O   UNL     1       2.104   2.901  16.787  0.00  0.00    +0.000 OA
ATOM     14  H   UNL     1       1.918   3.525  16.064  0.00  0.00    +0.000 HD
ENDBRANCH   9  13
BRANCH  12  15
ATOM     15  C   UNL     1       7.171   4.650  15.962  0.00  0.00    +0.000 C 
BRANCH  15  16
ATOM     16  C   UNL     1       6.956   4.558  14.463  0.00  0.00    +0.000 A 
ATOM     17  C   UNL     1       6.004   3.683  13.918  0.00  0.00    +0.000 A 
ATOM     18  C   UNL     1       5.948   3.447  12.545  0.00  0.00    +0.000 A 
ATOM     19  C   UNL     1       6.789   4.147  11.687  0.00  0.00    +0.000 A 
ATOM     20  C   UNL     1       7.655   5.109  12.201  0.00  0.00    +0.000 A 
ATOM     21  C   UNL     1       7.738   5.317  13.582  0.00  0.00    +0.000 A 
ENDBRANCH  15  16
ENDBRANCH  12  15
TORSDOF 3
ENDMDL
MODEL 5
REMARK VINA RESULT:      -7.2      2.411      4.452
REMARK  Name = 
REMARK  4 active torsions:
REMARK  status: ('A' for Active; 'I' for Inactive)
REMARK    1  A    between atoms: C_1  and  N_2
REMARK    2  A    between atoms: C_9  and  O_10
REMARK    3  A    between atoms: C_13  and  C_14
REMARK    4  A    between atoms: C_14  and  C_15
REMARK                            x       y       z     vdW  Elec       q    Type
REMARK                         _______ _______ _______ _____ _____    ______ ____
ROOT
ATOM      1  C   UNL     1       1.877   9.095  17.500  0.00  0.00    +0.000 C 
ATOM      2  N   UNL     1       1.887   7.962  18.405  0.00  0.00    +0.000 NA
ATOM      3  C   UNL     1       1.954   8.355  19.810  0.00  0.00    +0.000 C 
ATOM      4  C   UNL     1       1.598   7.184  20.734  0.00  0.00    +0.000 C 
ATOM      5  C   UNL     1       2.033   5.826  20.234  0.00  0.00    +0.000 A 
ATOM      6  C   UNL     1       1.838   4.701  21.049  0.00  0.00    +0.000 A 
ATOM      7  C   UNL     1       2.193   3.436  20.587  0.00  0.00    +0.000 A 
ATOM      8 CL   UNL     1       1.954   2.064  21.602  0.00  0.00    +0.000 Cl
ATOM      9  C   UNL     1       2.739   3.286  19.310  0.00  0.00    +0.000 A 
ATOM     10  C   UNL     1       2.937   4.389  18.490  0.00  0.00    +0.000 A 
ATOM     11  C   UNL     1       2.593   5.674  18.945  0.00  0.00    +0.000 A 
ATOM     12  C   UNL     1       2.863   6.901  18.070  0.00  0.00    +0.000 C 
ENDROOT
BRANCH   9  13
ATOM     13  O   UNL     1       3.103   2.062  18.816  0.00  0.00    +0.000 OA
ATOM     14  H   UNL     1       3.871   2.212  18.237  0.00  0.00    +0.000 HD
ENDBRANCH   9  13
BRANCH  12  15
ATOM     15  C   UNL     1       4.393   7.264  17.986  0.00  0.00    +0.000 C 
BRANCH  15  16
ATOM     16  C   UNL     1       5.303   6.372  17.164  0.00  0.00    +0.000 A 
ATOM     17  C   UNL     1       5.091   6.187  15.789  0.00  0.00    +0.000 A 
ATOM     18  C   UNL     1       5.793   5.215  15.078  0.00  0.00    +0.000 A 
ATOM     19  C   UNL     1       6.779   4.469  15.713  0.00  0.00    +0.000 A 
ATOM     20  C   UNL     1       7.088   4.725  17.048  0.00  0.00    +0.000 A 
ATOM     21  C   UNL     1       6.357   5.673  17.770  0.00  0.00    +0.000 A 
ENDBRANCH  15  16
ENDBRANCH  12  15
TORSDOF 3
ENDMDL
MODEL 6
REMARK VINA RESULT:      -7.2      1.977      4.634
REMARK  Name = 
REMARK  4 active torsions:
REMARK  status: ('A' for Active; 'I' for Inactive)
REMARK    1  A    between atoms: C_1  and  N_2
REMARK    2  A    between atoms: C_9  and  O_10
REMARK    3  A    between atoms: C_13  and  C_14
REMARK    4  A    between atoms: C_14  and  C_15
REMARK                            x       y       z     vdW  Elec       q    Type
REMARK                         _______ _______ _______ _____ _____    ______ ____
ROOT
ATOM      1  C   UNL     1       0.860   3.927  20.206  0.00  0.00    +0.000 C 
ATOM      2  N   UNL     1       2.114   3.957  19.478  0.00  0.00    +0.000 NA
ATOM      3  C   UNL     1       3.193   3.256  20.170  0.00  0.00    +0.000 C 
ATOM      4  C   UNL     1       4.376   2.990  19.231  0.00  0.00    +0.000 C 
ATOM      5  C   UNL     1       4.619   4.064  18.195  0.00  0.00    +0.000 A 
ATOM      6  C   UNL     1       5.734   3.961  17.351  0.00  0.00    +0.000 A 
ATOM      7  C   UNL     1       5.950   4.918  16.361  0.00  0.00    +0.000 A 
ATOM      8 CL   UNL     1       7.327   4.782  15.336  0.00  0.00    +0.000 Cl
ATOM      9  C   UNL     1       5.053   5.977  16.207  0.00  0.00    +0.000 A 
ATOM     10  C   UNL     1       3.943   6.093  17.035  0.00  0.00    +0.000 A 
ATOM     11  C   UNL     1       3.717   5.141  18.043  0.00  0.00    +0.000 A 
ATOM     12  C   UNL     1       2.528   5.294  18.997  0.00  0.00    +0.000 C 
ENDROOT
BRANCH   9  13
ATOM     13  O   UNL     1       5.226   6.941  15.249  0.00  0.00    +0.000 OA
ATOM     14  H   UNL     1       5.635   6.502  14.483  0.00  0.00    +0.000 HD
ENDBRANCH   9  13
BRANCH  12  15
ATOM     15  C   UNL     1       2.732   6.455  20.041  0.00  0.00    +0.000 C 
BRANCH  15  16
ATOM     16  C   UNL     1       1.924   7.729  19.871  0.00  0.00    +0.000 A 
ATOM     17  C   UNL     1       1.884   8.405  18.643  0.00  0.00    +0.000 A 
ATOM     18  C   UNL     1       1.317   9.675  18.540  0.00  0.00    +0.000 A 
ATOM     19  C   UNL     1       0.706  10.253  19.647  0.00  0.00    +0.000 A 
ATOM     20  C   UNL     1       0.630   9.542  20.843  0.00  0.00    +0.000 A 
ATOM     21  C   UNL     1       1.233   8.286  20.956  0.00  0.00    +0.000 A 
ENDBRANCH  15  16
ENDBRANCH  12  15
TORSDOF 3
ENDMDL
MODEL 7
REMARK VINA RESULT:      -7.2      2.572      4.448
REMARK  Name = 
REMARK  4 active torsions:
REMARK  status: ('A' for Active; 'I' for Inactive)
REMARK    1  A    between atoms: C_1  and  N_2
REMARK    2  A    between atoms: C_9  and  O_10
REMARK    3  A    between atoms: C_13  and  C_14
REMARK    4  A    between atoms: C_14  and  C_15
REMARK                            x       y       z     vdW  Elec       q    Type
REMARK                         _______ _______ _______ _____ _____    ______ ____
ROOT
ATOM      1  C   UNL     1       4.370   2.804  20.027  0.00  0.00    +0.000 C 
ATOM      2  N   UNL     1       5.081   3.458  18.945  0.00  0.00    +0.000 NA
ATOM      3  C   UNL     1       5.612   4.766  19.320  0.00  0.00    +0.000 C 
ATOM      4  C   UNL     1       6.650   5.258  18.303  0.00  0.00    +0.000 C 
ATOM      5  C   UNL     1       6.377   4.856  16.872  0.00  0.00    +0.000 A 
ATOM      6  C   UNL     1       7.215   5.335  15.854  0.00  0.00    +0.000 A 
ATOM      7  C   UNL     1       7.005   4.940  14.535  0.00  0.00    +0.000 A 
ATOM      8 CL   UNL     1       8.037   5.542  13.294  0.00  0.00    +0.000 Cl
ATOM      9  C   UNL     1       5.962   4.063  14.226  0.00  0.00    +0.000 A 
ATOM     10  C   UNL     1       5.124   3.578  15.222  0.00  0.00    +0.000 A 
ATOM     11  C   UNL     1       5.318   3.974  16.557  0.00  0.00    +0.000 A 
ATOM     12  C   UNL     1       4.363   3.491  17.652  0.00  0.00    +0.000 C 
ENDROOT
BRANCH   9  13
ATOM     13  O   UNL     1       5.718   3.649  12.943  0.00  0.00    +0.000 OA
ATOM     14  H   UNL     1       4.874   4.052  12.676  0.00  0.00    +0.000 HD
ENDBRANCH   9  13
BRANCH  12  15
ATOM     15  C   UNL     1       2.950   4.184  17.576  0.00  0.00    +0.000 C 
BRANCH  15  16
ATOM     16  C   UNL     1       2.786   5.560  18.194  0.00  0.00    +0.000 A 
ATOM     17  C   UNL     1       2.270   5.718  19.489  0.00  0.00    +0.000 A 
ATOM     18  C   UNL     1       1.927   6.978  19.977  0.00  0.00    +0.000 A 
ATOM     19  C   UNL     1       2.174   8.110  19.208  0.00  0.00    +0.000 A 
ATOM     20  C   UNL     1       2.800   7.980  17.970  0.00  0.00    +0.000 A 
ATOM     21  C   UNL     1       3.107   6.713  17.465  0.00  0.00    +0.000 A 
ENDBRANCH  15  16
ENDBRANCH  12  15
TORSDOF 3
ENDMDL
MODEL 8
REMARK VINA RESULT:      -7.1      2.585      4.421
REMARK  Name = 
REMARK  4 active torsions:
REMARK  status: ('A' for Active; 'I' for Inactive)
REMARK    1  A    between atoms: C_1  and  N_2
REMARK    2  A    between atoms: C_9  and  O_10
REMARK    3  A    between atoms: C_13  and  C_14
REMARK    4  A    between atoms: C_14  and  C_15
REMARK                            x       y       z     vdW  Elec       q    Type
REMARK                         _______ _______ _______ _____ _____    ______ ____
ROOT
ATOM      1  C   UNL     1       4.434   2.722  20.085  0.00  0.00    +0.000 C 
ATOM      2  N   UNL     1       5.108   3.405  18.997  0.00  0.00    +0.000 NA
ATOM      3  C   UNL     1       5.484   4.777  19.330  0.00  0.00    +0.000 C 
ATOM      4  C   UNL     1       6.497   5.337  18.325  0.00  0.00    +0.000 C 
ATOM      5  C   UNL     1       6.318   4.851  16.905  0.00  0.00    +0.000 A 
ATOM      6  C   UNL     1       7.135   5.376  15.893  0.00  0.00    +0.000 A 
ATOM      7  C   UNL     1       7.015   4.908  14.586  0.00  0.00    +0.000 A 
ATOM      8 CL   UNL     1       8.019   5.568  13.352  0.00  0.00    +0.000 Cl
ATOM      9  C   UNL     1       6.083   3.911  14.285  0.00  0.00    +0.000 A 
ATOM     10  C   UNL     1       5.268   3.379  15.276  0.00  0.00    +0.000 A 
ATOM     11  C   UNL     1       5.371   3.847  16.597  0.00  0.00    +0.000 A 
ATOM     12  C   UNL     1       4.436   3.308  17.683  0.00  0.00    +0.000 C 
ENDROOT
BRANCH   9  13
ATOM     13  O   UNL     1       5.930   3.422  13.015  0.00  0.00    +0.000 OA
ATOM     14  H   UNL     1       5.670   4.175  12.455  0.00  0.00    +0.000 HD
ENDBRANCH   9  13
BRANCH  12  15
ATOM     15  C   UNL     1       2.961   3.840  17.535  0.00  0.00    +0.000 C 
BRANCH  15  16
ATOM     16  C   UNL     1       2.565   5.092  18.295  0.00  0.00    +0.000 A 
ATOM     17  C   UNL     1       2.823   6.370  17.777  0.00  0.00    +0.000 A 
ATOM     18  C   UNL     1       2.649   7.511  18.558  0.00  0.00    +0.000 A 
ATOM     19  C   UNL     1       2.134   7.398  19.844  0.00  0.00    +0.000 A 
ATOM     20  C   UNL     1       1.756   6.148  20.330  0.00  0.00    +0.000 A 
ATOM     21  C   UNL     1       1.967   5.000  19.560  0.00  0.00    +0.000 A 
ENDBRANCH  15  16
ENDBRANCH  12  15
TORSDOF 3
ENDMDL
MODEL 9
REMARK VINA RESULT:      -7.1      2.419      4.346
REMARK  Name = 
REMARK  4 active torsions:
REMARK  status: ('A' for Active; 'I' for Inactive)
REMARK    1  A    between atoms: C_1  and  N_2
REMARK    2  A    between atoms: C_9  and  O_10
REMARK    3  A    between atoms: C_13  and  C_14
REMARK    4  A    between atoms: C_14  and  C_15
REMARK                            x       y       z     vdW  Elec       q    Type
REMARK                         _______ _______ _______ _____ _____    ______ ____
ROOT
ATOM      1  C   UNL     1       1.833   9.149  17.521  0.00  0.00    +0.000 C 
ATOM      2  N   UNL     1       1.841   8.012  18.421  0.00  0.00    +0.000 NA
ATOM      3  C   UNL     1       1.966   8.396  19.825  0.00  0.00    +0.000 C 
ATOM      4  C   UNL     1       1.606   7.231  20.755  0.00  0.00    +0.000 C 
ATOM      5  C   UNL     1       1.985   5.863  20.236  0.00  0.00    +0.000 A 
ATOM      6  C   UNL     1       1.785   4.740  21.053  0.00  0.00    +0.000 A 
ATOM      7  C   UNL     1       2.088   3.467  20.574  0.00  0.00    +0.000 A 
ATOM      8 CL   UNL     1       1.843   2.098  21.591  0.00  0.00    +0.000 Cl
ATOM      9  C   UNL     1       2.587   3.308  19.279  0.00  0.00    +0.000 A 
ATOM     10  C   UNL     1       2.790   4.410  18.457  0.00  0.00    +0.000 A 
ATOM     11  C   UNL     1       2.497   5.701  18.929  0.00  0.00    +0.000 A 
ATOM     12  C   UNL     1       2.774   6.924  18.050  0.00  0.00    +0.000 C 
ENDROOT
BRANCH   9  13
ATOM     13  O   UNL     1       2.899   2.077  18.768  0.00  0.00    +0.000 OA
ATOM     14  H   UNL     1       3.124   2.212  17.831  0.00  0.00    +0.000 HD
ENDBRANCH   9  13
BRANCH  12  15
ATOM     15  C   UNL     1       4.310   7.244  17.917  0.00  0.00    +0.000 C 
BRANCH  15  16
ATOM     16  C   UNL     1       5.202   6.230  17.225  0.00  0.00    +0.000 A 
ATOM     17  C   UNL     1       6.194   5.534  17.930  0.00  0.00    +0.000 A 
ATOM     18  C   UNL     1       7.143   4.761  17.261  0.00  0.00    +0.000 A 
ATOM     19  C   UNL     1       7.063   4.606  15.882  0.00  0.00    +0.000 A 
ATOM     20  C   UNL     1       6.011   5.192  15.181  0.00  0.00    +0.000 A 
ATOM     21  C   UNL     1       5.082   5.998  15.847  0.00  0.00    +0.000 A 
ENDBRANCH  15  16
ENDBRANCH  12  15
TORSDOF 3
ENDMDL
