MODEL 1
REMARK VINA RESULT:      -8.3      0.000      0.000
REMARK  Name = 
REMARK  9 active torsions:
REMARK  status: ('A' for Active; 'I' for Inactive)
REMARK    1  A    between atoms: C_1  and  O_2
REMARK    2  A    between atoms: O_2  and  C_3
REMARK    3  A    between atoms: C_3  and  C_5
REMARK    4  A    between atoms: C_5  and  C_6
REMARK    5  A    between atoms: C_7  and  C_8
REMARK    6  A    between atoms: C_12  and  O_13
REMARK    7  A    between atoms: O_13  and  C_14
REMARK    8  A    between atoms: C_14  and  C_15
REMARK    9  A    between atoms: C_15  and  C_17
REMARK                            x       y       z     vdW  Elec       q    Type
REMARK                         _______ _______ _______ _____ _____    ______ ____
ROOT
ATOM      1  C   UNL     1       4.789   5.155  16.849  0.00  0.00    +0.000 A 
ATOM      2  C   UNL     1       4.195   4.572  17.913  0.00  0.00    +0.000 A 
ATOM      3  C   UNL     1       4.373   3.120  18.278  0.00  0.00    +0.000 C 
ATOM      4  C   UNL     1       3.343   5.395  18.794  0.00  0.00    +0.000 A 
ATOM      5  C   UNL     1       2.648   4.888  19.900  0.00  0.00    +0.000 A 
ATOM      6  C   UNL     1       1.844   5.723  20.687  0.00  0.00    +0.000 A 
ATOM      7  C   UNL     1       1.726   7.081  20.397  0.00  0.00    +0.000 A 
ATOM      8  C   UNL     1       2.385   7.597  19.287  0.00  0.00    +0.000 A 
ATOM      9  C   UNL     1       3.185   6.749  18.512  0.00  0.00    +0.000 A 
ATOM     10  O   UNL     1       3.840   7.347  17.423  0.00  0.00    +0.000 OA
ATOM     11  C   UNL     1       4.668   6.616  16.590  0.00  0.00    +0.000 A 
ATOM     12  O   UNL     1       5.261   7.153  15.659  0.00  0.00    +0.000 OA
ENDROOT
BRANCH   1  13
ATOM     13  C   UNL     1       5.629   4.437  15.819  0.00  0.00    +0.000 C 
BRANCH  13  14
ATOM     14  C   UNL     1       7.105   4.686  16.051  0.00  0.00    +0.000 C 
ATOM     15  O   UNL     1       7.727   4.412  17.070  0.00  0.00    +0.000 OA
BRANCH  14  17
ATOM     16  C   UNL     1       6.995   4.823  13.715  0.00  0.00    +0.000 C 
ATOM     17  O   UNL     1       7.658   5.212  14.919  0.00  0.00    +0.000 OA
ENDBRANCH  14  17
ENDBRANCH  13  14
ENDBRANCH   1  13
BRANCH   7  18
ATOM     18  O   UNL     1       0.930   7.789  21.250  0.00  0.00    +0.000 OA
BRANCH  18  19
ATOM     19  C   UNL     1       0.836   9.188  21.002  0.00  0.00    +0.000 C 
BRANCH  19  20
ATOM     20  C   UNL     1       0.247   9.884  22.219  0.00  0.00    +0.000 C 
ATOM     21  O   UNL     1       0.650   9.630  23.354  0.00  0.00    +0.000 OA
BRANCH  20  22
ATOM     22  C   UNL     1      -0.810  10.929  22.042  0.00  0.00    +0.000 A 
ATOM     23  C   UNL     1      -1.084  11.528  20.806  0.00  0.00    +0.000 A 
ATOM     24  C   UNL     1      -2.076  12.510  20.703  0.00  0.00    +0.000 A 
ATOM     25  C   UNL     1      -2.793  12.899  21.833  0.00  0.00    +0.000 A 
ATOM     26 CL   UNL     1      -4.006  14.110  21.701  0.00  0.00    +0.000 Cl
ATOM     27  C   UNL     1      -2.530  12.313  23.068  0.00  0.00    +0.000 A 
ATOM     28  C   UNL     1      -1.541  11.330  23.172  0.00  0.00    +0.000 A 
ENDBRANCH  20  22
ENDBRANCH  19  20
ENDBRANCH  18  19
ENDBRANCH   7  18
TORSDOF 7
ENDMDL
MODEL 2
REMARK VINA RESULT:      -8.0      0.736      1.156
REMARK  Name = 
REMARK  9 active torsions:
REMARK  status: ('A' for Active; 'I' for Inactive)
REMARK    1  A    between atoms: C_1  and  O_2
REMARK    2  A    between atoms: O_2  and  C_3
REMARK    3  A    between atoms: C_3  and  C_5
REMARK    4  A    between atoms: C_5  and  C_6
REMARK    5  A    between atoms: C_7  and  C_8
REMARK    6  A    between atoms: C_12  and  O_13
REMARK    7  A    between atoms: O_13  and  C_14
REMARK    8  A    between atoms: C_14  and  C_15
REMARK    9  A    between atoms: C_15  and  C_17
REMARK                            x       y       z     vdW  Elec       q    Type
REMARK                         _______ _______ _______ _____ _____    ______ ____
ROOT
ATOM      1  C   UNL     1       4.654   5.151  17.030  0.00  0.00    +0.000 A 
ATOM      2  C   UNL     1       4.056   4.699  18.154  0.00  0.00    +0.000 A 
ATOM      3  C   UNL     1       4.214   3.295  18.680  0.00  0.00    +0.000 C 
ATOM      4  C   UNL     1       3.219   5.629  18.939  0.00  0.00    +0.000 A 
ATOM      5  C   UNL     1       2.522   5.260  20.097  0.00  0.00    +0.000 A 
ATOM      6  C   UNL     1       1.733   6.189  20.787  0.00  0.00    +0.000 A 
ATOM      7  C   UNL     1       1.633   7.508  20.347  0.00  0.00    +0.000 A 
ATOM      8  C   UNL     1       2.296   7.887  19.185  0.00  0.00    +0.000 A 
ATOM      9  C   UNL     1       3.081   6.945  18.508  0.00  0.00    +0.000 A 
ATOM     10  O   UNL     1       3.740   7.407  17.357  0.00  0.00    +0.000 OA
ATOM     11  C   UNL     1       4.554   6.576  16.610  0.00  0.00    +0.000 A 
ATOM     12  O   UNL     1       5.151   6.997  15.624  0.00  0.00    +0.000 OA
ENDROOT
BRANCH   1  13
ATOM     13  C   UNL     1       5.480   4.310  16.086  0.00  0.00    +0.000 C 
BRANCH  13  14
ATOM     14  C   UNL     1       6.962   4.519  16.323  0.00  0.00    +0.000 C 
ATOM     15  O   UNL     1       7.536   4.424  17.400  0.00  0.00    +0.000 OA
BRANCH  14  17
ATOM     16  C   UNL     1       6.776   4.478  13.988  0.00  0.00    +0.000 C 
ATOM     17  O   UNL     1       7.578   4.775  15.132  0.00  0.00    +0.000 OA
ENDBRANCH  14  17
ENDBRANCH  13  14
ENDBRANCH   1  13
BRANCH   7  18
ATOM     18  O   UNL     1       0.851   8.319  21.117  0.00  0.00    +0.000 OA
BRANCH  18  19
ATOM     19  C   UNL     1       0.159   9.355  20.430  0.00  0.00    +0.000 C 
BRANCH  19  20
ATOM     20  C   UNL     1       0.259  10.649  21.223  0.00  0.00    +0.000 C 
ATOM     21  O   UNL     1       1.353  11.138  21.506  0.00  0.00    +0.000 OA
BRANCH  20  22
ATOM     22  C   UNL     1      -0.986  11.371  21.634  0.00  0.00    +0.000 A 
ATOM     23  C   UNL     1      -1.467  11.362  22.950  0.00  0.00    +0.000 A 
ATOM     24  C   UNL     1      -2.646  12.044  23.273  0.00  0.00    +0.000 A 
ATOM     25  C   UNL     1      -3.347  12.734  22.285  0.00  0.00    +0.000 A 
ATOM     26 CL   UNL     1      -4.797  13.566  22.689  0.00  0.00    +0.000 Cl
ATOM     27  C   UNL     1      -2.881  12.750  20.974  0.00  0.00    +0.000 A 
ATOM     28  C   UNL     1      -1.703  12.070  20.650  0.00  0.00    +0.000 A 
ENDBRANCH  20  22
ENDBRANCH  19  20
ENDBRANCH  18  19
ENDBRANCH   7  18
TORSDOF 7
ENDMDL
MODEL 3
REMARK VINA RESULT:      -8.0      5.474      8.333
REMARK  Name = 
REMARK  9 active torsions:
REMARK  status: ('A' for Active; 'I' for Inactive)
REMARK    1  A    between atoms: C_1  and  O_2
REMARK    2  A    between atoms: O_2  and  C_3
REMARK    3  A    between atoms: C_3  and  C_5
REMARK    4  A    between atoms: C_5  and  C_6
REMARK    5  A    between atoms: C_7  and  C_8
REMARK    6  A    between atoms: C_12  and  O_13
REMARK    7  A    between atoms: O_13  and  C_14
REMARK    8  A    between atoms: C_14  and  C_15
REMARK    9  A    between atoms: C_15  and  C_17
REMARK                            x       y       z     vdW  Elec       q    Type
REMARK                         _______ _______ _______ _____ _____    ______ ____
ROOT
ATOM      1  C   UNL     1       3.508   3.118  18.882  0.00  0.00    +0.000 A 
ATOM      2  C   UNL     1       3.300   4.127  18.008  0.00  0.00    +0.000 A 
ATOM      3  C   UNL     1       1.977   4.390  17.334  0.00  0.00    +0.000 C 
ATOM      4  C   UNL     1       4.412   5.051  17.707  0.00  0.00    +0.000 A 
ATOM      5  C   UNL     1       4.320   6.106  16.790  0.00  0.00    +0.000 A 
ATOM      6  C   UNL     1       5.420   6.937  16.539  0.00  0.00    +0.000 A 
ATOM      7  C   UNL     1       6.628   6.744  17.207  0.00  0.00    +0.000 A 
ATOM      8  C   UNL     1       6.747   5.686  18.101  0.00  0.00    +0.000 A 
ATOM      9  C   UNL     1       5.638   4.865  18.340  0.00  0.00    +0.000 A 
ATOM     10  O   UNL     1       5.826   3.833  19.273  0.00  0.00    +0.000 OA
ATOM     11  C   UNL     1       4.802   2.964  19.603  0.00  0.00    +0.000 A 
ATOM     12  O   UNL     1       4.966   2.084  20.443  0.00  0.00    +0.000 OA
ENDROOT
BRANCH   1  13
ATOM     13  C   UNL     1       2.499   2.054  19.240  0.00  0.00    +0.000 C 
BRANCH  13  14
ATOM     14  C   UNL     1       1.697   2.452  20.462  0.00  0.00    +0.000 C 
ATOM     15  O   UNL     1       1.915   2.091  21.611  0.00  0.00    +0.000 OA
BRANCH  14  17
ATOM     16  C   UNL     1       0.886   4.643  20.630  0.00  0.00    +0.000 C 
ATOM     17  O   UNL     1       0.718   3.330  20.094  0.00  0.00    +0.000 OA
ENDBRANCH  14  17
ENDBRANCH  13  14
ENDBRANCH   1  13
BRANCH   7  18
ATOM     18  O   UNL     1       7.615   7.632  16.891  0.00  0.00    +0.000 OA
BRANCH  18  19
ATOM     19  C   UNL     1       7.551   8.895  17.543  0.00  0.00    +0.000 C 
BRANCH  19  20
ATOM     20  C   UNL     1       8.603   8.957  18.640  0.00  0.00    +0.000 C 
ATOM     21  O   UNL     1       8.972   7.938  19.225  0.00  0.00    +0.000 OA
BRANCH  20  22
ATOM     22  C   UNL     1       9.240  10.265  18.992  0.00  0.00    +0.000 A 
ATOM     23  C   UNL     1       9.404  10.695  20.315  0.00  0.00    +0.000 A 
ATOM     24  C   UNL     1       9.994  11.936  20.583  0.00  0.00    +0.000 A 
ATOM     25  C   UNL     1      10.418  12.749  19.534  0.00  0.00    +0.000 A 
ATOM     26 CL   UNL     1      11.137  14.275  19.872  0.00  0.00    +0.000 Cl
ATOM     27  C   UNL     1      10.259  12.335  18.215  0.00  0.00    +0.000 A 
ATOM     28  C   UNL     1       9.671  11.095  17.945  0.00  0.00    +0.000 A 
ENDBRANCH  20  22
ENDBRANCH  19  20
ENDBRANCH  18  19
ENDBRANCH   7  18
TORSDOF 7
ENDMDL
MODEL 4
REMARK VINA RESULT:      -8.0      3.702      9.973
REMARK  Name = 
REMARK  9 active torsions:
REMARK  status: ('A' for Active; 'I' for Inactive)
REMARK    1  A    between atoms: C_1  and  O_2
REMARK    2  A    between atoms: O_2  and  C_3
REMARK    3  A    between atoms: C_3  and  C_5
REMARK    4  A    between atoms: C_5  and  C_6
REMARK    5  A    between atoms: C_7  and  C_8
REMARK    6  A    between atoms: C_12  and  O_13
REMARK    7  A    between atoms: O_13  and  C_14
REMARK    8  A    between atoms: C_14  and  C_15
REMARK    9  A    between atoms: C_15  and  C_17
REMARK                            x       y       z     vdW  Elec       q    Type
REMARK                         _______ _______ _______ _____ _____    ______ ____
ROOT
ATOM      1  C   UNL     1      -0.295  10.762  21.217  0.00  0.00    +0.000 A 
ATOM      2  C   UNL     1       0.026  10.640  19.911  0.00  0.00    +0.000 A 
ATOM      3  C   UNL     1      -0.422  11.608  18.845  0.00  0.00    +0.000 C 
ATOM      4  C   UNL     1       0.889   9.517  19.490  0.00  0.00    +0.000 A 
ATOM      5  C   UNL     1       1.253   9.272  18.160  0.00  0.00    +0.000 A 
ATOM      6  C   UNL     1       2.063   8.178  17.827  0.00  0.00    +0.000 A 
ATOM      7  C   UNL     1       2.538   7.316  18.814  0.00  0.00    +0.000 A 
ATOM      8  C   UNL     1       2.166   7.527  20.136  0.00  0.00    +0.000 A 
ATOM      9  C   UNL     1       1.356   8.625  20.451  0.00  0.00    +0.000 A 
ATOM     10  O   UNL     1       1.041   8.788  21.810  0.00  0.00    +0.000 OA
ATOM     11  C   UNL     1       0.260   9.842  22.248  0.00  0.00    +0.000 A 
ATOM     12  O   UNL     1       0.016   9.994  23.441  0.00  0.00    +0.000 OA
ENDROOT
BRANCH   1  13
ATOM     13  C   UNL     1      -1.219  11.809  21.792  0.00  0.00    +0.000 C 
BRANCH  13  14
ATOM     14  C   UNL     1      -0.486  13.114  22.027  0.00  0.00    +0.000 C 
ATOM     15  O   UNL     1       0.709  13.308  21.843  0.00  0.00    +0.000 OA
BRANCH  14  17
ATOM     16  C   UNL     1      -1.402  14.288  23.836  0.00  0.00    +0.000 C 
ATOM     17  O   UNL     1      -1.378  14.068  22.424  0.00  0.00    +0.000 OA
ENDBRANCH  14  17
ENDBRANCH  13  14
ENDBRANCH   1  13
BRANCH   7  18
ATOM     18  O   UNL     1       3.334   6.302  18.364  0.00  0.00    +0.000 OA
BRANCH  18  19
ATOM     19  C   UNL     1       3.973   5.518  19.365  0.00  0.00    +0.000 C 
BRANCH  19  20
ATOM     20  C   UNL     1       5.406   5.224  18.946  0.00  0.00    +0.000 C 
ATOM     21  O   UNL     1       6.318   5.202  19.773  0.00  0.00    +0.000 OA
BRANCH  20  22
ATOM     22  C   UNL     1       5.716   4.911  17.516  0.00  0.00    +0.000 A 
ATOM     23  C   UNL     1       6.756   5.533  16.814  0.00  0.00    +0.000 A 
ATOM     24  C   UNL     1       6.991   5.210  15.472  0.00  0.00    +0.000 A 
ATOM     25  C   UNL     1       6.189   4.269  14.829  0.00  0.00    +0.000 A 
ATOM     26 CL   UNL     1       6.481   3.882  13.179  0.00  0.00    +0.000 Cl
ATOM     27  C   UNL     1       5.151   3.645  15.515  0.00  0.00    +0.000 A 
ATOM     28  C   UNL     1       4.916   3.965  16.856  0.00  0.00    +0.000 A 
ENDBRANCH  20  22
ENDBRANCH  19  20
ENDBRANCH  18  19
ENDBRANCH   7  18
TORSDOF 7
ENDMDL
MODEL 5
REMARK VINA RESULT:      -7.9      1.735      2.672
REMARK  Name = 
REMARK  9 active torsions:
REMARK  status: ('A' for Active; 'I' for Inactive)
REMARK    1  A    between atoms: C_1  and  O_2
REMARK    2  A    between atoms: O_2  and  C_3
REMARK    3  A    between atoms: C_3  and  C_5
REMARK    4  A    between atoms: C_5  and  C_6
REMARK    5  A    between atoms: C_7  and  C_8
REMARK    6  A    between atoms: C_12  and  O_13
REMARK    7  A    between atoms: O_13  and  C_14
REMARK    8  A    between atoms: C_14  and  C_15
REMARK    9  A    between atoms: C_15  and  C_17
REMARK                            x       y       z     vdW  Elec       q    Type
REMARK                         _______ _______ _______ _____ _____    ______ ____
ROOT
ATOM      1  C   UNL     1       4.461   5.191  18.065  0.00  0.00    +0.000 A 
ATOM      2  C   UNL     1       4.082   6.361  17.505  0.00  0.00    +0.000 A 
ATOM      3  C   UNL     1       4.572   6.843  16.163  0.00  0.00    +0.000 C 
ATOM      4  C   UNL     1       3.114   7.215  18.223  0.00  0.00    +0.000 A 
ATOM      5  C   UNL     1       2.682   8.463  17.756  0.00  0.00    +0.000 A 
ATOM      6  C   UNL     1       1.771   9.230  18.495  0.00  0.00    +0.000 A 
ATOM      7  C   UNL     1       1.261   8.763  19.705  0.00  0.00    +0.000 A 
ATOM      8  C   UNL     1       1.699   7.539  20.198  0.00  0.00    +0.000 A 
ATOM      9  C   UNL     1       2.609   6.785  19.447  0.00  0.00    +0.000 A 
ATOM     10  O   UNL     1       2.985   5.549  19.996  0.00  0.00    +0.000 OA
ATOM     11  C   UNL     1       3.868   4.709  19.343  0.00  0.00    +0.000 A 
ATOM     12  O   UNL     1       4.167   3.616  19.815  0.00  0.00    +0.000 OA
ENDROOT
BRANCH   1  13
ATOM     13  C   UNL     1       5.490   4.246  17.493  0.00  0.00    +0.000 C 
BRANCH  13  14
ATOM     14  C   UNL     1       6.894   4.688  17.850  0.00  0.00    +0.000 C 
ATOM     15  O   UNL     1       7.287   4.996  18.968  0.00  0.00    +0.000 OA
BRANCH  14  17
ATOM     16  C   UNL     1       6.979   4.269  15.547  0.00  0.00    +0.000 C 
ATOM     17  O   UNL     1       7.682   4.633  16.736  0.00  0.00    +0.000 OA
ENDBRANCH  14  17
ENDBRANCH  13  14
ENDBRANCH   1  13
BRANCH   7  18
ATOM     18  O   UNL     1       0.367   9.593  20.317  0.00  0.00    +0.000 OA
BRANCH  18  19
ATOM     19  C   UNL     1       0.294  10.919  19.804  0.00  0.00    +0.000 C 
BRANCH  19  20
ATOM     20  C   UNL     1       0.158  11.905  20.955  0.00  0.00    +0.000 C 
ATOM     21  O   UNL     1       1.135  12.520  21.383  0.00  0.00    +0.000 OA
BRANCH  20  22
ATOM     22  C   UNL     1      -1.186  12.172  21.554  0.00  0.00    +0.000 A 
ATOM     23  C   UNL     1      -1.500  11.855  22.882  0.00  0.00    +0.000 A 
ATOM     24  C   UNL     1      -2.780  12.116  23.385  0.00  0.00    +0.000 A 
ATOM     25  C   UNL     1      -3.749  12.690  22.564  0.00  0.00    +0.000 A 
ATOM     26 CL   UNL     1      -5.321  13.002  23.187  0.00  0.00    +0.000 Cl
ATOM     27  C   UNL     1      -3.452  13.008  21.242  0.00  0.00    +0.000 A 
ATOM     28  C   UNL     1      -2.173  12.750  20.739  0.00  0.00    +0.000 A 
ENDBRANCH  20  22
ENDBRANCH  19  20
ENDBRANCH  18  19
ENDBRANCH   7  18
TORSDOF 7
ENDMDL
MODEL 6
REMARK VINA RESULT:      -7.9      2.537      3.450
REMARK  Name = 
REMARK  9 active torsions:
REMARK  status: ('A' for Active; 'I' for Inactive)
REMARK    1  A    between atoms: C_1  and  O_2
REMARK    2  A    between atoms: O_2  and  C_3
REMARK    3  A    between atoms: C_3  and  C_5
REMARK    4  A    between atoms: C_5  and  C_6
REMARK    5  A    between atoms: C_7  and  C_8
REMARK    6  A    between atoms: C_12  and  O_13
REMARK    7  A    between atoms: O_13  and  C_14
REMARK    8  A    between atoms: C_14  and  C_15
REMARK    9  A    between atoms: C_15  and  C_17
REMARK                            x       y       z     vdW  Elec       q    Type
REMARK                         _______ _______ _______ _____ _____    ______ ____
ROOT
ATOM      1  C   UNL     1       4.566   4.966  18.005  0.00  0.00    +0.000 A 
ATOM      2  C   UNL     1       4.221   6.139  17.430  0.00  0.00    +0.000 A 
ATOM      3  C   UNL     1       4.742   6.599  16.092  0.00  0.00    +0.000 C 
ATOM      4  C   UNL     1       3.261   7.019  18.125  0.00  0.00    +0.000 A 
ATOM      5  C   UNL     1       2.862   8.272  17.642  0.00  0.00    +0.000 A 
ATOM      6  C   UNL     1       1.957   9.064  18.360  0.00  0.00    +0.000 A 
ATOM      7  C   UNL     1       1.418   8.617  19.566  0.00  0.00    +0.000 A 
ATOM      8  C   UNL     1       1.822   7.389  20.075  0.00  0.00    +0.000 A 
ATOM      9  C   UNL     1       2.727   6.610  19.344  0.00  0.00    +0.000 A 
ATOM     10  O   UNL     1       3.069   5.370  19.909  0.00  0.00    +0.000 OA
ATOM     11  C   UNL     1       3.943   4.506  19.277  0.00  0.00    +0.000 A 
ATOM     12  O   UNL     1       4.212   3.412  19.763  0.00  0.00    +0.000 OA
ENDROOT
BRANCH   1  13
ATOM     13  C   UNL     1       5.584   3.994  17.457  0.00  0.00    +0.000 C 
BRANCH  13  14
ATOM     14  C   UNL     1       6.990   4.540  17.597  0.00  0.00    +0.000 C 
ATOM     15  O   UNL     1       7.786   4.714  16.683  0.00  0.00    +0.000 OA
BRANCH  14  17
ATOM     16  C   UNL     1       7.929   6.096  19.075  0.00  0.00    +0.000 C 
ATOM     17  O   UNL     1       7.219   4.869  18.902  0.00  0.00    +0.000 OA
ENDBRANCH  14  17
ENDBRANCH  13  14
ENDBRANCH   1  13
BRANCH   7  18
ATOM     18  O   UNL     1       0.533   9.472  20.157  0.00  0.00    +0.000 OA
BRANCH  18  19
ATOM     19  C   UNL     1       0.954  10.826  20.275  0.00  0.00    +0.000 C 
BRANCH  19  20
ATOM     20  C   UNL     1       0.322  11.656  19.168  0.00  0.00    +0.000 C 
ATOM     21  O   UNL     1       0.982  12.479  18.535  0.00  0.00    +0.000 OA
BRANCH  20  22
ATOM     22  C   UNL     1      -1.115  11.446  18.805  0.00  0.00    +0.000 A 
ATOM     23  C   UNL     1      -1.522  10.537  17.820  0.00  0.00    +0.000 A 
ATOM     24  C   UNL     1      -2.879  10.392  17.512  0.00  0.00    +0.000 A 
ATOM     25  C   UNL     1      -3.833  11.156  18.185  0.00  0.00    +0.000 A 
ATOM     26 CL   UNL     1      -5.499  10.976  17.798  0.00  0.00    +0.000 Cl
ATOM     27  C   UNL     1      -3.442  12.063  19.165  0.00  0.00    +0.000 A 
ATOM     28  C   UNL     1      -2.086  12.208  19.474  0.00  0.00    +0.000 A 
ENDBRANCH  20  22
ENDBRANCH  19  20
ENDBRANCH  18  19
ENDBRANCH   7  18
TORSDOF 7
ENDMDL
MODEL 7
REMARK VINA RESULT:      -7.8      1.145      1.936
REMARK  Name = 
REMARK  9 active torsions:
REMARK  status: ('A' for Active; 'I' for Inactive)
REMARK    1  A    between atoms: C_1  and  O_2
REMARK    2  A    between atoms: O_2  and  C_3
REMARK    3  A    between atoms: C_3  and  C_5
REMARK    4  A    between atoms: C_5  and  C_6
REMARK    5  A    between atoms: C_7  and  C_8
REMARK    6  A    between atoms: C_12  and  O_13
REMARK    7  A    between atoms: O_13  and  C_14
REMARK    8  A    between atoms: C_14  and  C_15
REMARK    9  A    between atoms: C_15  and  C_17
REMARK                            x       y       z     vdW  Elec       q    Type
REMARK                         _______ _______ _______ _____ _____    ______ ____
ROOT
ATOM      1  C   UNL     1       4.632   4.683  17.142  0.00  0.00    +0.000 A 
ATOM      2  C   UNL     1       4.247   5.977  17.085  0.00  0.00    +0.000 A 
ATOM      3  C   UNL     1       4.639   6.918  15.975  0.00  0.00    +0.000 C 
ATOM      4  C   UNL     1       3.369   6.507  18.148  0.00  0.00    +0.000 A 
ATOM      5  C   UNL     1       2.940   7.839  18.211  0.00  0.00    +0.000 A 
ATOM      6  C   UNL     1       2.119   8.281  19.256  0.00  0.00    +0.000 A 
ATOM      7  C   UNL     1       1.696   7.402  20.252  0.00  0.00    +0.000 A 
ATOM      8  C   UNL     1       2.132   6.082  20.222  0.00  0.00    +0.000 A 
ATOM      9  C   UNL     1       2.953   5.658  19.169  0.00  0.00    +0.000 A 
ATOM     10  O   UNL     1       3.333   4.306  19.193  0.00  0.00    +0.000 OA
ATOM     11  C   UNL     1       4.131   3.764  18.202  0.00  0.00    +0.000 A 
ATOM     12  O   UNL     1       4.432   2.575  18.213  0.00  0.00    +0.000 OA
ENDROOT
BRANCH   1  13
ATOM     13  C   UNL     1       5.579   4.013  16.175  0.00  0.00    +0.000 C 
BRANCH  13  14
ATOM     14  C   UNL     1       6.994   4.523  16.358  0.00  0.00    +0.000 C 
ATOM     15  O   UNL     1       7.603   4.584  17.418  0.00  0.00    +0.000 OA
BRANCH  14  17
ATOM     16  C   UNL     1       6.665   4.532  14.038  0.00  0.00    +0.000 C 
ATOM     17  O   UNL     1       7.516   4.852  15.140  0.00  0.00    +0.000 OA
ENDBRANCH  14  17
ENDBRANCH  13  14
ENDBRANCH   1  13
BRANCH   7  18
ATOM     18  O   UNL     1       0.883   7.949  21.202  0.00  0.00    +0.000 OA
BRANCH  18  19
ATOM     19  C   UNL     1       0.244   9.171  20.848  0.00  0.00    +0.000 C 
BRANCH  19  20
ATOM     20  C   UNL     1       0.056  10.027  22.092  0.00  0.00    +0.000 C 
ATOM     21  O   UNL     1       0.727   9.831  23.106  0.00  0.00    +0.000 OA
BRANCH  20  22
ATOM     22  C   UNL     1      -0.926  11.156  22.079  0.00  0.00    +0.000 A 
ATOM     23  C   UNL     1      -1.044  12.045  21.003  0.00  0.00    +0.000 A 
ATOM     24  C   UNL     1      -1.971  13.092  21.053  0.00  0.00    +0.000 A 
ATOM     25  C   UNL     1      -2.779  13.257  22.177  0.00  0.00    +0.000 A 
ATOM     26 CL   UNL     1      -3.912  14.549  22.233  0.00  0.00    +0.000 Cl
ATOM     27  C   UNL     1      -2.670  12.382  23.254  0.00  0.00    +0.000 A 
ATOM     28  C   UNL     1      -1.746  11.334  23.205  0.00  0.00    +0.000 A 
ENDBRANCH  20  22
ENDBRANCH  19  20
ENDBRANCH  18  19
ENDBRANCH   7  18
TORSDOF 7
ENDMDL
MODEL 8
REMARK VINA RESULT:      -7.8      1.573      2.654
REMARK  Name = 
REMARK  9 active torsions:
REMARK  status: ('A' for Active; 'I' for Inactive)
REMARK    1  A    between atoms: C_1  and  O_2
REMARK    2  A    between atoms: O_2  and  C_3
REMARK    3  A    between atoms: C_3  and  C_5
REMARK    4  A    between atoms: C_5  and  C_6
REMARK    5  A    between atoms: C_7  and  C_8
REMARK    6  A    between atoms: C_12  and  O_13
REMARK    7  A    between atoms: O_13  and  C_14
REMARK    8  A    between atoms: C_14  and  C_15
REMARK    9  A    between atoms: C_15  and  C_17
REMARK                            x       y       z     vdW  Elec       q    Type
REMARK                         _______ _______ _______ _____ _____    ______ ____
ROOT
ATOM      1  C   UNL     1       4.556   4.964  17.905  0.00  0.00    +0.000 A 
ATOM      2  C   UNL     1       4.206   6.165  17.395  0.00  0.00    +0.000 A 
ATOM      3  C   UNL     1       4.694   6.684  16.066  0.00  0.00    +0.000 C 
ATOM      4  C   UNL     1       3.273   7.019  18.156  0.00  0.00    +0.000 A 
ATOM      5  C   UNL     1       2.872   8.296  17.743  0.00  0.00    +0.000 A 
ATOM      6  C   UNL     1       1.993   9.060  18.521  0.00  0.00    +0.000 A 
ATOM      7  C   UNL     1       1.484   8.562  19.720  0.00  0.00    +0.000 A 
ATOM      8  C   UNL     1       1.891   7.308  20.160  0.00  0.00    +0.000 A 
ATOM      9  C   UNL     1       2.769   6.558  19.369  0.00  0.00    +0.000 A 
ATOM     10  O   UNL     1       3.115   5.291  19.867  0.00  0.00    +0.000 OA
ATOM     11  C   UNL     1       3.964   4.450  19.171  0.00  0.00    +0.000 A 
ATOM     12  O   UNL     1       4.236   3.332  19.598  0.00  0.00    +0.000 OA
ENDROOT
BRANCH   1  13
ATOM     13  C   UNL     1       5.550   4.011  17.284  0.00  0.00    +0.000 C 
BRANCH  13  14
ATOM     14  C   UNL     1       6.969   4.513  17.458  0.00  0.00    +0.000 C 
ATOM     15  O   UNL     1       7.736   4.821  16.556  0.00  0.00    +0.000 OA
BRANCH  14  17
ATOM     16  C   UNL     1       7.845   5.875  19.152  0.00  0.00    +0.000 C 
ATOM     17  O   UNL     1       7.247   4.628  18.790  0.00  0.00    +0.000 OA
ENDBRANCH  14  17
ENDBRANCH  13  14
ENDBRANCH   1  13
BRANCH   7  18
ATOM     18  O   UNL     1       0.622   9.395  20.374  0.00  0.00    +0.000 OA
BRANCH  18  19
ATOM     19  C   UNL     1      -0.068   8.832  21.484  0.00  0.00    +0.000 C 
BRANCH  19  20
ATOM     20  C   UNL     1      -0.246   9.888  22.564  0.00  0.00    +0.000 C 
ATOM     21  O   UNL     1       0.307   9.776  23.659  0.00  0.00    +0.000 OA
BRANCH  20  22
ATOM     22  C   UNL     1      -1.066  11.108  22.288  0.00  0.00    +0.000 A 
ATOM     23  C   UNL     1      -1.699  11.841  23.301  0.00  0.00    +0.000 A 
ATOM     24  C   UNL     1      -2.466  12.967  22.981  0.00  0.00    +0.000 A 
ATOM     25  C   UNL     1      -2.606  13.362  21.652  0.00  0.00    +0.000 A 
ATOM     26 CL   UNL     1      -3.554  14.744  21.266  0.00  0.00    +0.000 Cl
ATOM     27  C   UNL     1      -1.984  12.643  20.635  0.00  0.00    +0.000 A 
ATOM     28  C   UNL     1      -1.216  11.518  20.953  0.00  0.00    +0.000 A 
ENDBRANCH  20  22
ENDBRANCH  19  20
ENDBRANCH  18  19
ENDBRANCH   7  18
TORSDOF 7
ENDMDL
MODEL 9
REMARK VINA RESULT:      -7.8      6.007      8.338
REMARK  Name = 
REMARK  9 active torsions:
REMARK  status: ('A' for Active; 'I' for Inactive)
REMARK    1  A    between atoms: C_1  and  O_2
REMARK    2  A    between atoms: O_2  and  C_3
REMARK    3  A    between atoms: C_3  and  C_5
REMARK    4  A    between atoms: C_5  and  C_6
REMARK    5  A    between atoms: C_7  and  C_8
REMARK    6  A    between atoms: C_12  and  O_13
REMARK    7  A    between atoms: O_13  and  C_14
REMARK    8  A    between atoms: C_14  and  C_15
REMARK    9  A    between atoms: C_15  and  C_17
REMARK                            x       y       z     vdW  Elec       q    Type
REMARK                         _______ _______ _______ _____ _____    ______ ____
ROOT
ATOM      1  C   UNL     1       3.618   3.363  19.080  0.00  0.00    +0.000 A 
ATOM      2  C   UNL     1       3.367   4.436  18.298  0.00  0.00    +0.000 A 
ATOM      3  C   UNL     1       1.994   4.802  17.795  0.00  0.00    +0.000 C 
ATOM      4  C   UNL     1       4.486   5.326  17.929  0.00  0.00    +0.000 A 
ATOM      5  C   UNL     1       4.350   6.442  17.094  0.00  0.00    +0.000 A 
ATOM      6  C   UNL     1       5.457   7.237  16.771  0.00  0.00    +0.000 A 
ATOM      7  C   UNL     1       6.720   6.945  17.286  0.00  0.00    +0.000 A 
ATOM      8  C   UNL     1       6.881   5.827  18.094  0.00  0.00    +0.000 A 
ATOM      9  C   UNL     1       5.763   5.043  18.407  0.00  0.00    +0.000 A 
ATOM     10  O   UNL     1       5.998   3.944  19.249  0.00  0.00    +0.000 OA
ATOM     11  C   UNL     1       4.973   3.103  19.640  0.00  0.00    +0.000 A 
ATOM     12  O   UNL     1       5.182   2.163  20.401  0.00  0.00    +0.000 OA
ENDROOT
BRANCH   1  13
ATOM     13  C   UNL     1       2.599   2.324  19.485  0.00  0.00    +0.000 C 
BRANCH  13  14
ATOM     14  C   UNL     1       1.804   2.781  20.691  0.00  0.00    +0.000 C 
ATOM     15  O   UNL     1       2.270   3.108  21.775  0.00  0.00    +0.000 OA
BRANCH  14  17
ATOM     16  C   UNL     1       0.192   2.407  19.033  0.00  0.00    +0.000 C 
ATOM     17  O   UNL     1       0.479   2.829  20.367  0.00  0.00    +0.000 OA
ENDBRANCH  14  17
ENDBRANCH  13  14
ENDBRANCH   1  13
BRANCH   7  18
ATOM     18  O   UNL     1       7.711   7.807  16.913  0.00  0.00    +0.000 OA
BRANCH  18  19
ATOM     19  C   UNL     1       7.667   9.102  17.503  0.00  0.00    +0.000 C 
BRANCH  19  20
ATOM     20  C   UNL     1       8.678   9.181  18.637  0.00  0.00    +0.000 C 
ATOM     21  O   UNL     1       8.981   8.181  19.288  0.00  0.00    +0.000 OA
BRANCH  20  22
ATOM     22  C   UNL     1       9.352  10.480  18.947  0.00  0.00    +0.000 A 
ATOM     23  C   UNL     1       9.867  11.322  17.953  0.00  0.00    +0.000 A 
ATOM     24  C   UNL     1      10.501  12.520  18.303  0.00  0.00    +0.000 A 
ATOM     25  C   UNL     1      10.625  12.878  19.644  0.00  0.00    +0.000 A 
ATOM     26 CL   UNL     1      11.410  14.348  20.067  0.00  0.00    +0.000 Cl
ATOM     27  C   UNL     1      10.120  12.050  20.642  0.00  0.00    +0.000 A 
ATOM     28  C   UNL     1       9.485  10.854  20.294  0.00  0.00    +0.000 A 
ENDBRANCH  20  22
ENDBRANCH  19  20
ENDBRANCH  18  19
ENDBRANCH   7  18
TORSDOF 7
ENDMDL
