MODEL 1
REMARK VINA RESULT:      -7.8      0.000      0.000
REMARK  Name = 
REMARK  9 active torsions:
REMARK  status: ('A' for Active; 'I' for Inactive)
REMARK    1  A    between atoms: C_1  and  C_2
REMARK    2  A    between atoms: C_5  and  C_6
REMARK    3  A    between atoms: C_8  and  C_9
REMARK    4  A    between atoms: C_9  and  C_10
REMARK    5  A    between atoms: N_12  and  C_13
REMARK    6  A    between atoms: C_13  and  C_14
REMARK    7  A    between atoms: N_18  and  C_19
REMARK    8  A    between atoms: C_19  and  C_20
REMARK    9  A    between atoms: C_19  and  C_21
REMARK                            x       y       z     vdW  Elec       q    Type
REMARK                         _______ _______ _______ _____ _____    ______ ____
ROOT
ATOM      1  C   UNL     1       8.089   8.013  18.209  0.00  0.00    +0.000 C 
ATOM      2  O   UNL     1       7.534   8.414  17.184  0.00  0.00    +0.000 OA
ATOM      3  N   UNL     1       8.853   8.825  19.016  0.00  0.00    +0.000 N 
ATOM      4  H   UNL     1       9.297   8.401  19.828  0.00  0.00    +0.000 HD
ENDROOT
BRANCH   1   5
ATOM      5  C   UNL     1       8.014   6.547  18.588  0.00  0.00    +0.000 C 
BRANCH   5   8
ATOM      6  C   UNL     1       4.809   4.933  18.167  0.00  0.00    +0.000 A 
ATOM      7  N   UNL     1       5.709   5.655  18.804  0.00  0.00    +0.000 NA
ATOM      8  C   UNL     1       6.844   5.814  18.017  0.00  0.00    +0.000 A 
ATOM      9  C   UNL     1       6.762   5.225  16.769  0.00  0.00    +0.000 A 
ATOM     10  S   UNL     1       5.251   4.433  16.589  0.00  0.00    +0.000 S 
BRANCH   6  15
ATOM     11  C   UNL     1       0.646   2.495  18.894  0.00  0.00    +0.000 C 
ATOM     12  C   UNL     1       1.645   3.546  19.167  0.00  0.00    +0.000 A 
ATOM     13  C   UNL     1       1.739   4.533  20.119  0.00  0.00    +0.000 A 
ATOM     14  C   UNL     1       2.958   5.201  19.870  0.00  0.00    +0.000 A 
ATOM     15  C   UNL     1       3.549   4.597  18.771  0.00  0.00    +0.000 A 
ATOM     16  O   UNL     1       2.727   3.584  18.341  0.00  0.00    +0.000 OA
ENDBRANCH   6  15
ENDBRANCH   5   8
ENDBRANCH   1   5
BRANCH   3  17
ATOM     17  C   UNL     1       9.065  10.230  18.738  0.00  0.00    +0.000 C 
BRANCH  17  18
ATOM     18  C   UNL     1      10.164  10.854  19.619  0.00  0.00    +0.000 C 
ATOM     19  C   UNL     1       9.638  11.451  20.927  0.00  0.00    +0.000 C 
ATOM     20  C   UNL     1       8.817  12.704  20.666  0.00  0.00    +0.000 C 
ATOM     21  C   UNL     1       9.576  13.705  19.789  0.00  0.00    +0.000 C 
ATOM     22  N   UNL     1      10.056  13.108  18.524  0.00  0.00    +0.000 NA
ATOM     23  C   UNL     1      10.914  11.943  18.822  0.00  0.00    +0.000 C 
BRANCH  22  24
ATOM     24  C   UNL     1      10.727  14.110  17.653  0.00  0.00    +0.000 C 
ATOM     25  C   UNL     1      11.768  14.950  18.414  0.00  0.00    +0.000 C 
ATOM     26  C   UNL     1      11.472  13.449  16.476  0.00  0.00    +0.000 C 
ENDBRANCH  22  24
ENDBRANCH  17  18
ENDBRANCH   3  17
TORSDOF 6
ENDMDL
MODEL 2
REMARK VINA RESULT:      -7.7      1.144      1.535
REMARK  Name = 
REMARK  9 active torsions:
REMARK  status: ('A' for Active; 'I' for Inactive)
REMARK    1  A    between atoms: C_1  and  C_2
REMARK    2  A    between atoms: C_5  and  C_6
REMARK    3  A    between atoms: C_8  and  C_9
REMARK    4  A    between atoms: C_9  and  C_10
REMARK    5  A    between atoms: N_12  and  C_13
REMARK    6  A    between atoms: C_13  and  C_14
REMARK    7  A    between atoms: N_18  and  C_19
REMARK    8  A    between atoms: C_19  and  C_20
REMARK    9  A    between atoms: C_19  and  C_21
REMARK                            x       y       z     vdW  Elec       q    Type
REMARK                         _______ _______ _______ _____ _____    ______ ____
ROOT
ATOM      1  C   UNL     1       7.939   7.997  18.006  0.00  0.00    +0.000 C 
ATOM      2  O   UNL     1       7.314   8.252  16.975  0.00  0.00    +0.000 OA
ATOM      3  N   UNL     1       8.696   8.933  18.676  0.00  0.00    +0.000 N 
ATOM      4  H   UNL     1       9.202   8.626  19.505  0.00  0.00    +0.000 HD
ENDROOT
BRANCH   1   5
ATOM      5  C   UNL     1       7.964   6.582  18.549  0.00  0.00    +0.000 C 
BRANCH   5   8
ATOM      6  C   UNL     1       4.982   4.637  17.935  0.00  0.00    +0.000 A 
ATOM      7  N   UNL     1       5.718   5.531  18.565  0.00  0.00    +0.000 NA
ATOM      8  C   UNL     1       6.953   5.664  17.943  0.00  0.00    +0.000 A 
ATOM      9  C   UNL     1       7.115   4.877  16.818  0.00  0.00    +0.000 A 
ATOM     10  S   UNL     1       5.707   3.933  16.552  0.00  0.00    +0.000 S 
BRANCH   6  15
ATOM     11  C   UNL     1       1.491   3.236  21.042  0.00  0.00    +0.000 C 
ATOM     12  C   UNL     1       2.024   3.663  19.734  0.00  0.00    +0.000 A 
ATOM     13  C   UNL     1       1.440   3.921  18.516  0.00  0.00    +0.000 A 
ATOM     14  C   UNL     1       2.486   4.328  17.659  0.00  0.00    +0.000 A 
ATOM     15  C   UNL     1       3.664   4.290  18.391  0.00  0.00    +0.000 A 
ATOM     16  O   UNL     1       3.368   3.871  19.665  0.00  0.00    +0.000 OA
ENDBRANCH   6  15
ENDBRANCH   5   8
ENDBRANCH   1   5
BRANCH   3  17
ATOM     17  C   UNL     1       8.815  10.306  18.234  0.00  0.00    +0.000 C 
BRANCH  17  18
ATOM     18  C   UNL     1      10.052  11.015  18.816  0.00  0.00    +0.000 C 
ATOM     19  C   UNL     1      10.063  11.076  20.346  0.00  0.00    +0.000 C 
ATOM     20  C   UNL     1       8.994  12.025  20.864  0.00  0.00    +0.000 C 
ATOM     21  C   UNL     1       9.079  13.397  20.188  0.00  0.00    +0.000 C 
ATOM     22  N   UNL     1       9.047  13.311  18.711  0.00  0.00    +0.000 NA
ATOM     23  C   UNL     1      10.150  12.445  18.244  0.00  0.00    +0.000 C 
BRANCH  22  24
ATOM     24  C   UNL     1       9.058  14.654  18.073  0.00  0.00    +0.000 C 
ATOM     25  C   UNL     1       7.640  15.189  17.802  0.00  0.00    +0.000 C 
ATOM     26  C   UNL     1       9.765  15.707  18.948  0.00  0.00    +0.000 C 
ENDBRANCH  22  24
ENDBRANCH  17  18
ENDBRANCH   3  17
TORSDOF 6
ENDMDL
MODEL 3
REMARK VINA RESULT:      -7.7      6.540     10.027
REMARK  Name = 
REMARK  9 active torsions:
REMARK  status: ('A' for Active; 'I' for Inactive)
REMARK    1  A    between atoms: C_1  and  C_2
REMARK    2  A    between atoms: C_5  and  C_6
REMARK    3  A    between atoms: C_8  and  C_9
REMARK    4  A    between atoms: C_9  and  C_10
REMARK    5  A    between atoms: N_12  and  C_13
REMARK    6  A    between atoms: C_13  and  C_14
REMARK    7  A    between atoms: N_18  and  C_19
REMARK    8  A    between atoms: C_19  and  C_20
REMARK    9  A    between atoms: C_19  and  C_21
REMARK                            x       y       z     vdW  Elec       q    Type
REMARK                         _______ _______ _______ _____ _____    ______ ____
ROOT
ATOM      1  C   UNL     1       2.185   8.525  18.426  0.00  0.00    +0.000 C 
ATOM      2  O   UNL     1       2.259   9.130  17.354  0.00  0.00    +0.000 OA
ATOM      3  N   UNL     1       2.874   7.361  18.680  0.00  0.00    +0.000 N 
ATOM      4  H   UNL     1       2.731   6.914  19.584  0.00  0.00    +0.000 HD
ENDROOT
BRANCH   1   5
ATOM      5  C   UNL     1       1.243   9.013  19.509  0.00  0.00    +0.000 C 
BRANCH   5   8
ATOM      6  C   UNL     1      -1.329  11.154  18.147  0.00  0.00    +0.000 A 
ATOM      7  N   UNL     1      -0.774   9.998  18.456  0.00  0.00    +0.000 NA
ATOM      8  C   UNL     1       0.422  10.203  19.132  0.00  0.00    +0.000 A 
ATOM      9  C   UNL     1       0.736  11.531  19.351  0.00  0.00    +0.000 A 
ATOM     10  S   UNL     1      -0.473  12.542  18.673  0.00  0.00    +0.000 S 
BRANCH   6  15
ATOM     11  C   UNL     1      -5.980  12.306  17.228  0.00  0.00    +0.000 C 
ATOM     12  C   UNL     1      -4.665  11.708  16.924  0.00  0.00    +0.000 A 
ATOM     13  C   UNL     1      -4.156  11.057  15.826  0.00  0.00    +0.000 A 
ATOM     14  C   UNL     1      -2.813  10.753  16.138  0.00  0.00    +0.000 A 
ATOM     15  C   UNL     1      -2.566  11.225  17.419  0.00  0.00    +0.000 A 
ATOM     16  O   UNL     1      -3.716  11.804  17.897  0.00  0.00    +0.000 OA
ENDBRANCH   6  15
ENDBRANCH   5   8
ENDBRANCH   1   5
BRANCH   3  17
ATOM     17  C   UNL     1       3.758   6.746  17.712  0.00  0.00    +0.000 C 
BRANCH  17  18
ATOM     18  C   UNL     1       4.662   5.663  18.331  0.00  0.00    +0.000 C 
ATOM     19  C   UNL     1       5.326   4.751  17.296  0.00  0.00    +0.000 C 
ATOM     20  C   UNL     1       4.304   3.842  16.632  0.00  0.00    +0.000 C 
ATOM     21  C   UNL     1       3.457   3.093  17.665  0.00  0.00    +0.000 C 
ATOM     22  N   UNL     1       2.812   3.998  18.641  0.00  0.00    +0.000 NA
ATOM     23  C   UNL     1       3.844   4.807  19.321  0.00  0.00    +0.000 C 
BRANCH  22  24
ATOM     24  C   UNL     1       1.937   3.262  19.592  0.00  0.00    +0.000 C 
ATOM     25  C   UNL     1       1.186   4.204  20.551  0.00  0.00    +0.000 C 
ATOM     26  C   UNL     1       0.863   2.428  18.867  0.00  0.00    +0.000 C 
ENDBRANCH  22  24
ENDBRANCH  17  18
ENDBRANCH   3  17
TORSDOF 6
ENDMDL
MODEL 4
REMARK VINA RESULT:      -7.7      2.706      4.110
REMARK  Name = 
REMARK  9 active torsions:
REMARK  status: ('A' for Active; 'I' for Inactive)
REMARK    1  A    between atoms: C_1  and  C_2
REMARK    2  A    between atoms: C_5  and  C_6
REMARK    3  A    between atoms: C_8  and  C_9
REMARK    4  A    between atoms: C_9  and  C_10
REMARK    5  A    between atoms: N_12  and  C_13
REMARK    6  A    between atoms: C_13  and  C_14
REMARK    7  A    between atoms: N_18  and  C_19
REMARK    8  A    between atoms: C_19  and  C_20
REMARK    9  A    between atoms: C_19  and  C_21
REMARK                            x       y       z     vdW  Elec       q    Type
REMARK                         _______ _______ _______ _____ _____    ______ ____
ROOT
ATOM      1  C   UNL     1       8.079   8.669  18.126  0.00  0.00    +0.000 C 
ATOM      2  O   UNL     1       7.319   9.140  17.277  0.00  0.00    +0.000 OA
ATOM      3  N   UNL     1       8.929   9.443  18.883  0.00  0.00    +0.000 N 
ATOM      4  H   UNL     1       9.543   8.965  19.541  0.00  0.00    +0.000 HD
ENDROOT
BRANCH   1   5
ATOM      5  C   UNL     1       8.166   7.168  18.317  0.00  0.00    +0.000 C 
BRANCH   5   8
ATOM      6  C   UNL     1       6.464   5.323  15.719  0.00  0.00    +0.000 A 
ATOM      7  N   UNL     1       7.491   5.937  16.273  0.00  0.00    +0.000 NA
ATOM      8  C   UNL     1       7.156   6.381  17.546  0.00  0.00    +0.000 A 
ATOM      9  C   UNL     1       5.873   6.061  17.946  0.00  0.00    +0.000 A 
ATOM     10  S   UNL     1       5.060   5.213  16.695  0.00  0.00    +0.000 S 
BRANCH   6  15
ATOM     11  C   UNL     1       5.056   2.863  11.747  0.00  0.00    +0.000 C 
ATOM     12  C   UNL     1       5.971   3.699  12.548  0.00  0.00    +0.000 A 
ATOM     13  C   UNL     1       7.182   4.293  12.281  0.00  0.00    +0.000 A 
ATOM     14  C   UNL     1       7.541   4.994  13.453  0.00  0.00    +0.000 A 
ATOM     15  C   UNL     1       6.535   4.789  14.387  0.00  0.00    +0.000 A 
ATOM     16  O   UNL     1       5.578   3.983  13.821  0.00  0.00    +0.000 OA
ENDBRANCH   6  15
ENDBRANCH   5   8
ENDBRANCH   1   5
BRANCH   3  17
ATOM     17  C   UNL     1       9.000  10.883  18.759  0.00  0.00    +0.000 C 
BRANCH  17  18
ATOM     18  C   UNL     1      10.302  11.363  18.091  0.00  0.00    +0.000 C 
ATOM     19  C   UNL     1      11.497  11.419  19.046  0.00  0.00    +0.000 C 
ATOM     20  C   UNL     1      11.336  12.541  20.060  0.00  0.00    +0.000 C 
ATOM     21  C   UNL     1      11.022  13.877  19.380  0.00  0.00    +0.000 C 
ATOM     22  N   UNL     1       9.851  13.800  18.479  0.00  0.00    +0.000 NA
ATOM     23  C   UNL     1      10.081  12.755  17.461  0.00  0.00    +0.000 C 
BRANCH  22  24
ATOM     24  C   UNL     1       9.516  15.121  17.884  0.00  0.00    +0.000 C 
ATOM     25  C   UNL     1       8.004  15.411  17.906  0.00  0.00    +0.000 C 
ATOM     26  C   UNL     1      10.197  16.284  18.631  0.00  0.00    +0.000 C 
ENDBRANCH  22  24
ENDBRANCH  17  18
ENDBRANCH   3  17
TORSDOF 6
ENDMDL
MODEL 5
REMARK VINA RESULT:      -7.6      5.962      8.633
REMARK  Name = 
REMARK  9 active torsions:
REMARK  status: ('A' for Active; 'I' for Inactive)
REMARK    1  A    between atoms: C_1  and  C_2
REMARK    2  A    between atoms: C_5  and  C_6
REMARK    3  A    between atoms: C_8  and  C_9
REMARK    4  A    between atoms: C_9  and  C_10
REMARK    5  A    between atoms: N_12  and  C_13
REMARK    6  A    between atoms: C_13  and  C_14
REMARK    7  A    between atoms: N_18  and  C_19
REMARK    8  A    between atoms: C_19  and  C_20
REMARK    9  A    between atoms: C_19  and  C_21
REMARK                            x       y       z     vdW  Elec       q    Type
REMARK                         _______ _______ _______ _____ _____    ______ ____
ROOT
ATOM      1  C   UNL     1       4.529   3.223  19.374  0.00  0.00    +0.000 C 
ATOM      2  O   UNL     1       4.423   2.174  18.736  0.00  0.00    +0.000 OA
ATOM      3  N   UNL     1       3.630   3.606  20.343  0.00  0.00    +0.000 N 
ATOM      4  H   UNL     1       3.781   4.504  20.800  0.00  0.00    +0.000 HD
ENDROOT
BRANCH   1   5
ATOM      5  C   UNL     1       5.644   4.199  19.051  0.00  0.00    +0.000 C 
BRANCH   5   8
ATOM      6  C   UNL     1       5.582   4.844  15.497  0.00  0.00    +0.000 A 
ATOM      7  N   UNL     1       5.648   4.086  16.573  0.00  0.00    +0.000 NA
ATOM      8  C   UNL     1       5.524   4.864  17.718  0.00  0.00    +0.000 A 
ATOM      9  C   UNL     1       5.331   6.211  17.477  0.00  0.00    +0.000 A 
ATOM     10  S   UNL     1       5.335   6.514  15.789  0.00  0.00    +0.000 S 
BRANCH   6  15
ATOM     11  C   UNL     1       4.170   3.001  11.205  0.00  0.00    +0.000 C 
ATOM     12  C   UNL     1       5.154   3.449  12.209  0.00  0.00    +0.000 A 
ATOM     13  C   UNL     1       6.526   3.536  12.212  0.00  0.00    +0.000 A 
ATOM     14  C   UNL     1       6.882   4.079  13.466  0.00  0.00    +0.000 A 
ATOM     15  C   UNL     1       5.709   4.290  14.177  0.00  0.00    +0.000 A 
ATOM     16  O   UNL     1       4.652   3.891  13.396  0.00  0.00    +0.000 OA
ENDBRANCH   6  15
ENDBRANCH   5   8
ENDBRANCH   1   5
BRANCH   3  17
ATOM     17  C   UNL     1       2.482   2.804  20.708  0.00  0.00    +0.000 C 
BRANCH  17  18
ATOM     18  C   UNL     1       1.144   3.477  20.348  0.00  0.00    +0.000 C 
ATOM     19  C   UNL     1       0.632   3.117  18.951  0.00  0.00    +0.000 C 
ATOM     20  C   UNL     1       1.499   3.746  17.871  0.00  0.00    +0.000 C 
ATOM     21  C   UNL     1       1.682   5.250  18.097  0.00  0.00    +0.000 C 
ATOM     22  N   UNL     1       2.195   5.568  19.447  0.00  0.00    +0.000 NA
ATOM     23  C   UNL     1       1.283   5.009  20.466  0.00  0.00    +0.000 C 
BRANCH  22  24
ATOM     24  C   UNL     1       2.435   7.025  19.625  0.00  0.00    +0.000 C 
ATOM     25  C   UNL     1       2.201   7.823  18.329  0.00  0.00    +0.000 C 
ATOM     26  C   UNL     1       1.508   7.640  20.691  0.00  0.00    +0.000 C 
ENDBRANCH  22  24
ENDBRANCH  17  18
ENDBRANCH   3  17
TORSDOF 6
ENDMDL
MODEL 6
REMARK VINA RESULT:      -7.5      6.530      9.781
REMARK  Name = 
REMARK  9 active torsions:
REMARK  status: ('A' for Active; 'I' for Inactive)
REMARK    1  A    between atoms: C_1  and  C_2
REMARK    2  A    between atoms: C_5  and  C_6
REMARK    3  A    between atoms: C_8  and  C_9
REMARK    4  A    between atoms: C_9  and  C_10
REMARK    5  A    between atoms: N_12  and  C_13
REMARK    6  A    between atoms: C_13  and  C_14
REMARK    7  A    between atoms: N_18  and  C_19
REMARK    8  A    between atoms: C_19  and  C_20
REMARK    9  A    between atoms: C_19  and  C_21
REMARK                            x       y       z     vdW  Elec       q    Type
REMARK                         _______ _______ _______ _____ _____    ______ ____
ROOT
ATOM      1  C   UNL     1       2.212   8.662  18.484  0.00  0.00    +0.000 C 
ATOM      2  O   UNL     1       2.359   9.343  17.467  0.00  0.00    +0.000 OA
ATOM      3  N   UNL     1       2.748   7.402  18.627  0.00  0.00    +0.000 N 
ATOM      4  H   UNL     1       2.551   6.900  19.491  0.00  0.00    +0.000 HD
ENDROOT
BRANCH   1   5
ATOM      5  C   UNL     1       1.341   9.168  19.617  0.00  0.00    +0.000 C 
BRANCH   5   8
ATOM      6  C   UNL     1      -1.337  11.063  18.104  0.00  0.00    +0.000 A 
ATOM      7  N   UNL     1      -0.653   9.970  18.380  0.00  0.00    +0.000 NA
ATOM      8  C   UNL     1       0.400  10.264  19.238  0.00  0.00    +0.000 A 
ATOM      9  C   UNL     1       0.471  11.590  19.623  0.00  0.00    +0.000 A 
ATOM     10  S   UNL     1      -0.784  12.489  18.875  0.00  0.00    +0.000 S 
BRANCH   6  15
ATOM     11  C   UNL     1      -3.881  10.149  14.042  0.00  0.00    +0.000 C 
ATOM     12  C   UNL     1      -3.688  10.662  15.412  0.00  0.00    +0.000 A 
ATOM     13  C   UNL     1      -4.530  11.251  16.326  0.00  0.00    +0.000 A 
ATOM     14  C   UNL     1      -3.752  11.487  17.479  0.00  0.00    +0.000 A 
ATOM     15  C   UNL     1      -2.465  11.040  17.214  0.00  0.00    +0.000 A 
ATOM     16  O   UNL     1      -2.436  10.541  15.935  0.00  0.00    +0.000 OA
ENDBRANCH   6  15
ENDBRANCH   5   8
ENDBRANCH   1   5
BRANCH   3  17
ATOM     17  C   UNL     1       3.545   6.767  17.599  0.00  0.00    +0.000 C 
BRANCH  17  18
ATOM     18  C   UNL     1       4.667   5.883  18.173  0.00  0.00    +0.000 C 
ATOM     19  C   UNL     1       5.284   4.929  17.147  0.00  0.00    +0.000 C 
ATOM     20  C   UNL     1       4.305   3.831  16.762  0.00  0.00    +0.000 C 
ATOM     21  C   UNL     1       3.731   3.128  17.995  0.00  0.00    +0.000 C 
ATOM     22  N   UNL     1       3.124   4.069  18.961  0.00  0.00    +0.000 NA
ATOM     23  C   UNL     1       4.130   5.071  19.371  0.00  0.00    +0.000 C 
BRANCH  22  24
ATOM     24  C   UNL     1       2.508   3.365  20.117  0.00  0.00    +0.000 C 
ATOM     25  C   UNL     1       2.155   4.322  21.270  0.00  0.00    +0.000 C 
ATOM     26  C   UNL     1       1.201   2.646  19.729  0.00  0.00    +0.000 C 
ENDBRANCH  22  24
ENDBRANCH  17  18
ENDBRANCH   3  17
TORSDOF 6
ENDMDL
MODEL 7
REMARK VINA RESULT:      -7.4      1.551      2.124
REMARK  Name = 
REMARK  9 active torsions:
REMARK  status: ('A' for Active; 'I' for Inactive)
REMARK    1  A    between atoms: C_1  and  C_2
REMARK    2  A    between atoms: C_5  and  C_6
REMARK    3  A    between atoms: C_8  and  C_9
REMARK    4  A    between atoms: C_9  and  C_10
REMARK    5  A    between atoms: N_12  and  C_13
REMARK    6  A    between atoms: C_13  and  C_14
REMARK    7  A    between atoms: N_18  and  C_19
REMARK    8  A    between atoms: C_19  and  C_20
REMARK    9  A    between atoms: C_19  and  C_21
REMARK                            x       y       z     vdW  Elec       q    Type
REMARK                         _______ _______ _______ _____ _____    ______ ____
ROOT
ATOM      1  C   UNL     1       7.954   8.091  17.949  0.00  0.00    +0.000 C 
ATOM      2  O   UNL     1       8.399   7.303  18.785  0.00  0.00    +0.000 OA
ATOM      3  N   UNL     1       8.216   9.443  17.977  0.00  0.00    +0.000 N 
ATOM      4  H   UNL     1       7.782  10.023  17.261  0.00  0.00    +0.000 HD
ENDROOT
BRANCH   1   5
ATOM      5  C   UNL     1       7.007   7.600  16.871  0.00  0.00    +0.000 C 
BRANCH   5   8
ATOM      6  C   UNL     1       4.672   5.287  18.372  0.00  0.00    +0.000 A 
ATOM      7  N   UNL     1       5.185   6.476  18.124  0.00  0.00    +0.000 NA
ATOM      8  C   UNL     1       6.242   6.367  17.228  0.00  0.00    +0.000 A 
ATOM      9  C   UNL     1       6.489   5.081  16.788  0.00  0.00    +0.000 A 
ATOM     10  S   UNL     1       5.398   3.984  17.529  0.00  0.00    +0.000 S 
BRANCH   6  15
ATOM     11  C   UNL     1       1.798   3.050  21.619  0.00  0.00    +0.000 C 
ATOM     12  C   UNL     1       2.229   4.174  20.765  0.00  0.00    +0.000 A 
ATOM     13  C   UNL     1       1.764   5.456  20.587  0.00  0.00    +0.000 A 
ATOM     14  C   UNL     1       2.629   6.059  19.649  0.00  0.00    +0.000 A 
ATOM     15  C   UNL     1       3.579   5.115  19.289  0.00  0.00    +0.000 A 
ATOM     16  O   UNL     1       3.318   3.955  19.976  0.00  0.00    +0.000 OA
ENDBRANCH   6  15
ENDBRANCH   5   8
ENDBRANCH   1   5
BRANCH   3  17
ATOM     17  C   UNL     1       9.049  10.059  18.987  0.00  0.00    +0.000 C 
BRANCH  17  18
ATOM     18  C   UNL     1      10.087  11.031  18.395  0.00  0.00    +0.000 C 
ATOM     19  C   UNL     1      11.223  11.381  19.360  0.00  0.00    +0.000 C 
ATOM     20  C   UNL     1      10.722  12.252  20.501  0.00  0.00    +0.000 C 
ATOM     21  C   UNL     1       9.948  13.469  19.986  0.00  0.00    +0.000 C 
ATOM     22  N   UNL     1       8.845  13.102  19.072  0.00  0.00    +0.000 NA
ATOM     23  C   UNL     1       9.384  12.326  17.936  0.00  0.00    +0.000 C 
BRANCH  22  24
ATOM     24  C   UNL     1       8.059  14.288  18.638  0.00  0.00    +0.000 C 
ATOM     25  C   UNL     1       6.957  13.927  17.626  0.00  0.00    +0.000 C 
ATOM     26  C   UNL     1       7.357  14.983  19.821  0.00  0.00    +0.000 C 
ENDBRANCH  22  24
ENDBRANCH  17  18
ENDBRANCH   3  17
TORSDOF 6
ENDMDL
MODEL 8
REMARK VINA RESULT:      -7.4      5.774      8.908
REMARK  Name = 
REMARK  9 active torsions:
REMARK  status: ('A' for Active; 'I' for Inactive)
REMARK    1  A    between atoms: C_1  and  C_2
REMARK    2  A    between atoms: C_5  and  C_6
REMARK    3  A    between atoms: C_8  and  C_9
REMARK    4  A    between atoms: C_9  and  C_10
REMARK    5  A    between atoms: N_12  and  C_13
REMARK    6  A    between atoms: C_13  and  C_14
REMARK    7  A    between atoms: N_18  and  C_19
REMARK    8  A    between atoms: C_19  and  C_20
REMARK    9  A    between atoms: C_19  and  C_21
REMARK                            x       y       z     vdW  Elec       q    Type
REMARK                         _______ _______ _______ _____ _____    ______ ____
ROOT
ATOM      1  C   UNL     1       2.172   7.055  18.798  0.00  0.00    +0.000 C 
ATOM      2  O   UNL     1       2.185   6.810  20.006  0.00  0.00    +0.000 OA
ATOM      3  N   UNL     1       2.086   6.075  17.835  0.00  0.00    +0.000 N 
ATOM      4  H   UNL     1       2.111   6.368  16.859  0.00  0.00    +0.000 HD
ENDROOT
BRANCH   1   5
ATOM      5  C   UNL     1       2.336   8.481  18.311  0.00  0.00    +0.000 C 
BRANCH   5   8
ATOM      6  C   UNL     1      -0.778  10.299  18.078  0.00  0.00    +0.000 A 
ATOM      7  N   UNL     1       0.120   9.412  17.697  0.00  0.00    +0.000 NA
ATOM      8  C   UNL     1       1.175   9.376  18.602  0.00  0.00    +0.000 A 
ATOM      9  C   UNL     1       1.032  10.228  19.681  0.00  0.00    +0.000 A 
ATOM     10  S   UNL     1      -0.433  11.110  19.547  0.00  0.00    +0.000 S 
BRANCH   6  15
ATOM     11  C   UNL     1      -3.829  10.089  14.275  0.00  0.00    +0.000 C 
ATOM     12  C   UNL     1      -3.399  10.509  15.624  0.00  0.00    +0.000 A 
ATOM     13  C   UNL     1      -3.998  11.246  16.618  0.00  0.00    +0.000 A 
ATOM     14  C   UNL     1      -3.082  11.270  17.692  0.00  0.00    +0.000 A 
ATOM     15  C   UNL     1      -1.960  10.554  17.301  0.00  0.00    +0.000 A 
ATOM     16  O   UNL     1      -2.163  10.097  16.022  0.00  0.00    +0.000 OA
ENDBRANCH   6  15
ENDBRANCH   5   8
ENDBRANCH   1   5
BRANCH   3  17
ATOM     17  C   UNL     1       1.992   4.667  18.154  0.00  0.00    +0.000 C 
BRANCH  17  18
ATOM     18  C   UNL     1       3.040   3.814  17.415  0.00  0.00    +0.000 C 
ATOM     19  C   UNL     1       3.407   2.521  18.147  0.00  0.00    +0.000 C 
ATOM     20  C   UNL     1       4.203   2.813  19.409  0.00  0.00    +0.000 C 
ATOM     21  C   UNL     1       5.399   3.726  19.125  0.00  0.00    +0.000 C 
ATOM     22  N   UNL     1       5.015   4.976  18.435  0.00  0.00    +0.000 NA
ATOM     23  C   UNL     1       4.315   4.649  17.175  0.00  0.00    +0.000 C 
BRANCH  22  24
ATOM     24  C   UNL     1       6.176   5.882  18.232  0.00  0.00    +0.000 C 
ATOM     25  C   UNL     1       7.466   5.118  17.881  0.00  0.00    +0.000 C 
ATOM     26  C   UNL     1       5.936   6.885  17.087  0.00  0.00    +0.000 C 
ENDBRANCH  22  24
ENDBRANCH  17  18
ENDBRANCH   3  17
TORSDOF 6
ENDMDL
MODEL 9
REMARK VINA RESULT:      -7.4      1.157      1.485
REMARK  Name = 
REMARK  9 active torsions:
REMARK  status: ('A' for Active; 'I' for Inactive)
REMARK    1  A    between atoms: C_1  and  C_2
REMARK    2  A    between atoms: C_5  and  C_6
REMARK    3  A    between atoms: C_8  and  C_9
REMARK    4  A    between atoms: C_9  and  C_10
REMARK    5  A    between atoms: N_12  and  C_13
REMARK    6  A    between atoms: C_13  and  C_14
REMARK    7  A    between atoms: N_18  and  C_19
REMARK    8  A    between atoms: C_19  and  C_20
REMARK    9  A    between atoms: C_19  and  C_21
REMARK                            x       y       z     vdW  Elec       q    Type
REMARK                         _______ _______ _______ _____ _____    ______ ____
ROOT
ATOM      1  C   UNL     1       7.940   8.493  17.960  0.00  0.00    +0.000 C 
ATOM      2  O   UNL     1       7.144   8.812  17.075  0.00  0.00    +0.000 OA
ATOM      3  N   UNL     1       8.787   9.393  18.568  0.00  0.00    +0.000 N 
ATOM      4  H   UNL     1       9.432   9.035  19.270  0.00  0.00    +0.000 HD
ENDROOT
BRANCH   1   5
ATOM      5  C   UNL     1       8.078   7.040  18.370  0.00  0.00    +0.000 C 
BRANCH   5   8
ATOM      6  C   UNL     1       5.225   4.989  17.526  0.00  0.00    +0.000 A 
ATOM      7  N   UNL     1       5.887   5.887  18.231  0.00  0.00    +0.000 NA
ATOM      8  C   UNL     1       7.142   6.105  17.676  0.00  0.00    +0.000 A 
ATOM      9  C   UNL     1       7.394   5.379  16.528  0.00  0.00    +0.000 A 
ATOM     10  S   UNL     1       6.048   4.383  16.151  0.00  0.00    +0.000 S 
BRANCH   6  15
ATOM     11  C   UNL     1       1.727   1.996  19.141  0.00  0.00    +0.000 C 
ATOM     12  C   UNL     1       2.263   3.270  18.623  0.00  0.00    +0.000 A 
ATOM     13  C   UNL     1       1.698   4.496  18.366  0.00  0.00    +0.000 A 
ATOM     14  C   UNL     1       2.747   5.323  17.911  0.00  0.00    +0.000 A 
ATOM     15  C   UNL     1       3.906   4.561  17.902  0.00  0.00    +0.000 A 
ATOM     16  O   UNL     1       3.594   3.295  18.334  0.00  0.00    +0.000 OA
ENDBRANCH   6  15
ENDBRANCH   5   8
ENDBRANCH   1   5
BRANCH   3  17
ATOM     17  C   UNL     1       8.810  10.800  18.228  0.00  0.00    +0.000 C 
BRANCH  17  18
ATOM     18  C   UNL     1      10.238  11.355  18.079  0.00  0.00    +0.000 C 
ATOM     19  C   UNL     1      11.107  11.160  19.325  0.00  0.00    +0.000 C 
ATOM     20  C   UNL     1      10.636  12.049  20.465  0.00  0.00    +0.000 C 
ATOM     21  C   UNL     1      10.502  13.510  20.026  0.00  0.00    +0.000 C 
ATOM     22  N   UNL     1       9.642  13.673  18.833  0.00  0.00    +0.000 NA
ATOM     23  C   UNL     1      10.179  12.856  17.724  0.00  0.00    +0.000 C 
BRANCH  22  24
ATOM     24  C   UNL     1       9.464  15.102  18.463  0.00  0.00    +0.000 C 
ATOM     25  C   UNL     1      10.438  15.551  17.358  0.00  0.00    +0.000 C 
ATOM     26  C   UNL     1       8.044  15.393  17.940  0.00  0.00    +0.000 C 
ENDBRANCH  22  24
ENDBRANCH  17  18
ENDBRANCH   3  17
TORSDOF 6
ENDMDL
