MODEL 1
REMARK VINA RESULT:      -6.5      0.000      0.000
REMARK  Name = 
REMARK  3 active torsions:
REMARK  status: ('A' for Active; 'I' for Inactive)
REMARK    1  A    between atoms: C_1  and  O_2
REMARK    2  A    between atoms: O_2  and  C_3
REMARK    3  A    between atoms: N_15  and  C_16
REMARK                            x       y       z     vdW  Elec       q    Type
REMARK                         _______ _______ _______ _____ _____    ______ ____
ROOT
ATOM      1  C   UNL     1       6.886   4.911  15.128  0.00  0.00    +0.000 C 
ATOM      2  O   UNL     1       7.770   5.758  15.211  0.00  0.00    +0.000 OA
ATOM      3  N   UNL     1       5.985   4.642  16.140  0.00  0.00    +0.000 N 
ATOM      4  C   UNL     1       6.043   5.437  17.355  0.00  0.00    +0.000 C 
ATOM      5  C   UNL     1       4.665   6.011  17.650  0.00  0.00    +0.000 C 
ATOM      6  C   UNL     1       3.590   4.901  17.788  0.00  0.00    +0.000 C 
ATOM      7  C   UNL     1       3.854   3.973  19.004  0.00  0.00    +0.000 C 
ATOM      8  C   UNL     1       3.766   4.731  20.324  0.00  0.00    +0.000 C 
ATOM      9  C   UNL     1       2.420   5.430  20.446  0.00  0.00    +0.000 C 
ATOM     10  N   UNL     1       2.130   6.265  19.272  0.00  0.00    +0.000 N 
ATOM     11  C   UNL     1       1.849   7.603  19.508  0.00  0.00    +0.000 C 
ATOM     12  O   UNL     1       1.897   8.039  20.662  0.00  0.00    +0.000 OA
ATOM     13  N   UNL     1       1.508   8.372  18.415  0.00  0.00    +0.000 N 
ATOM     14  C   UNL     1       2.206   5.570  17.981  0.00  0.00    +0.000 C 
ATOM     15  C   UNL     1       3.600   4.064  16.481  0.00  0.00    +0.000 C 
ATOM     16  C   UNL     1       5.003   3.560  16.110  0.00  0.00    +0.000 C 
ATOM     17  H   UNL     1       1.153   7.893  17.604  0.00  0.00    +0.000 HD
ENDROOT
BRANCH  13  18
ATOM     18  C   UNL     1       1.284   9.776  18.457  0.00  0.00    +0.000 A 
ATOM     19  C   UNL     1       2.295  10.710  18.206  0.00  0.00    +0.000 A 
ATOM     20  C   UNL     1       2.058  12.080  18.307  0.00  0.00    +0.000 A 
ATOM     21  C   UNL     1       0.791  12.540  18.641  0.00  0.00    +0.000 A 
ATOM     22  C   UNL     1      -0.238  11.627  18.860  0.00  0.00    +0.000 A 
ATOM     23  C   UNL     1       0.002  10.248  18.763  0.00  0.00    +0.000 A 
ENDBRANCH  13  18
BRANCH   1  25
ATOM     24  C   UNL     1       7.270   4.685  12.833  0.00  0.00    +0.000 C 
ATOM     25  O   UNL     1       6.672   4.159  14.018  0.00  0.00    +0.000 OA
ENDBRANCH   1  25
TORSDOF 2
ENDMDL
MODEL 2
REMARK VINA RESULT:      -6.3      4.957     11.085
REMARK  Name = 
REMARK  3 active torsions:
REMARK  status: ('A' for Active; 'I' for Inactive)
REMARK    1  A    between atoms: C_1  and  O_2
REMARK    2  A    between atoms: O_2  and  C_3
REMARK    3  A    between atoms: N_15  and  C_16
REMARK                            x       y       z     vdW  Elec       q    Type
REMARK                         _______ _______ _______ _____ _____    ______ ____
ROOT
ATOM      1  C   UNL     1      -5.108  12.421  23.843  0.00  0.00    +0.000 C 
ATOM      2  O   UNL     1      -4.679  11.880  24.857  0.00  0.00    +0.000 OA
ATOM      3  N   UNL     1      -4.311  13.088  22.933  0.00  0.00    +0.000 N 
ATOM      4  C   UNL     1      -2.875  13.110  23.149  0.00  0.00    +0.000 C 
ATOM      5  C   UNL     1      -2.166  12.626  21.892  0.00  0.00    +0.000 C 
ATOM      6  C   UNL     1      -2.534  13.482  20.652  0.00  0.00    +0.000 C 
ATOM      7  C   UNL     1      -2.051  14.951  20.785  0.00  0.00    +0.000 C 
ATOM      8  C   UNL     1      -0.531  15.044  20.855  0.00  0.00    +0.000 C 
ATOM      9  C   UNL     1       0.097  14.364  19.646  0.00  0.00    +0.000 C 
ATOM     10  N   UNL     1      -0.398  12.993  19.472  0.00  0.00    +0.000 N 
ATOM     11  C   UNL     1       0.554  11.984  19.422  0.00  0.00    +0.000 C 
ATOM     12  O   UNL     1       1.747  12.267  19.568  0.00  0.00    +0.000 OA
ATOM     13  N   UNL     1       0.096  10.704  19.188  0.00  0.00    +0.000 N 
ATOM     14  C   UNL     1      -1.858  12.863  19.402  0.00  0.00    +0.000 C 
ATOM     15  C   UNL     1      -4.078  13.452  20.494  0.00  0.00    +0.000 C 
ATOM     16  C   UNL     1      -4.814  13.840  21.784  0.00  0.00    +0.000 C 
ATOM     17  H   UNL     1      -0.799  10.607  18.741  0.00  0.00    +0.000 HD
ENDROOT
BRANCH  13  18
ATOM     18  C   UNL     1       0.916   9.541  19.201  0.00  0.00    +0.000 A 
ATOM     19  C   UNL     1       1.594   9.084  18.066  0.00  0.00    +0.000 A 
ATOM     20  C   UNL     1       2.347   7.910  18.095  0.00  0.00    +0.000 A 
ATOM     21  C   UNL     1       2.452   7.185  19.274  0.00  0.00    +0.000 A 
ATOM     22  C   UNL     1       1.812   7.643  20.425  0.00  0.00    +0.000 A 
ATOM     23  C   UNL     1       1.051   8.821  20.393  0.00  0.00    +0.000 A 
ENDBRANCH  13  18
BRANCH   1  25
ATOM     24  C   UNL     1      -7.253  13.246  24.276  0.00  0.00    +0.000 C 
ATOM     25  O   UNL     1      -6.417  12.402  23.482  0.00  0.00    +0.000 OA
ENDBRANCH   1  25
TORSDOF 2
ENDMDL
MODEL 3
REMARK VINA RESULT:      -6.3      0.958      1.296
REMARK  Name = 
REMARK  3 active torsions:
REMARK  status: ('A' for Active; 'I' for Inactive)
REMARK    1  A    between atoms: C_1  and  O_2
REMARK    2  A    between atoms: O_2  and  C_3
REMARK    3  A    between atoms: N_15  and  C_16
REMARK                            x       y       z     vdW  Elec       q    Type
REMARK                         _______ _______ _______ _____ _____    ______ ____
ROOT
ATOM      1  C   UNL     1       6.845   4.524  16.286  0.00  0.00    +0.000 C 
ATOM      2  O   UNL     1       7.820   5.209  16.577  0.00  0.00    +0.000 OA
ATOM      3  N   UNL     1       5.750   4.356  17.112  0.00  0.00    +0.000 N 
ATOM      4  C   UNL     1       5.717   5.069  18.378  0.00  0.00    +0.000 C 
ATOM      5  C   UNL     1       4.413   5.847  18.486  0.00  0.00    +0.000 C 
ATOM      6  C   UNL     1       3.174   4.923  18.359  0.00  0.00    +0.000 C 
ATOM      7  C   UNL     1       3.075   3.905  19.527  0.00  0.00    +0.000 C 
ATOM      8  C   UNL     1       2.877   4.600  20.869  0.00  0.00    +0.000 C 
ATOM      9  C   UNL     1       1.653   5.504  20.822  0.00  0.00    +0.000 C 
ATOM     10  N   UNL     1       1.704   6.433  19.685  0.00  0.00    +0.000 N 
ATOM     11  C   UNL     1       1.595   7.785  19.974  0.00  0.00    +0.000 C 
ATOM     12  O   UNL     1       1.508   8.150  21.150  0.00  0.00    +0.000 OA
ATOM     13  N   UNL     1       1.572   8.653  18.902  0.00  0.00    +0.000 N 
ATOM     14  C   UNL     1       1.896   5.801  18.374  0.00  0.00    +0.000 C 
ATOM     15  C   UNL     1       3.283   4.162  17.011  0.00  0.00    +0.000 C 
ATOM     16  C   UNL     1       4.634   3.454  16.837  0.00  0.00    +0.000 C 
ATOM     17  H   UNL     1       1.295   8.281  18.010  0.00  0.00    +0.000 HD
ENDROOT
BRANCH  13  18
ATOM     18  C   UNL     1       1.562  10.072  19.016  0.00  0.00    +0.000 A 
ATOM     19  C   UNL     1       0.813  10.746  19.986  0.00  0.00    +0.000 A 
ATOM     20  C   UNL     1       0.781  12.139  20.037  0.00  0.00    +0.000 A 
ATOM     21  C   UNL     1       1.521  12.882  19.128  0.00  0.00    +0.000 A 
ATOM     22  C   UNL     1       2.301  12.229  18.176  0.00  0.00    +0.000 A 
ATOM     23  C   UNL     1       2.330  10.827  18.121  0.00  0.00    +0.000 A 
ENDBRANCH  13  18
BRANCH   1  25
ATOM     24  C   UNL     1       6.850   4.716  13.955  0.00  0.00    +0.000 C 
ATOM     25  O   UNL     1       6.714   3.874  15.101  0.00  0.00    +0.000 OA
ENDBRANCH   1  25
TORSDOF 2
ENDMDL
MODEL 4
REMARK VINA RESULT:      -6.1      6.904     10.485
REMARK  Name = 
REMARK  3 active torsions:
REMARK  status: ('A' for Active; 'I' for Inactive)
REMARK    1  A    between atoms: C_1  and  O_2
REMARK    2  A    between atoms: O_2  and  C_3
REMARK    3  A    between atoms: N_15  and  C_16
REMARK                            x       y       z     vdW  Elec       q    Type
REMARK                         _______ _______ _______ _____ _____    ______ ____
ROOT
ATOM      1  C   UNL     1       1.193  12.517  20.320  0.00  0.00    +0.000 C 
ATOM      2  O   UNL     1       1.380  11.937  21.384  0.00  0.00    +0.000 OA
ATOM      3  N   UNL     1       1.929  13.609  19.901  0.00  0.00    +0.000 N 
ATOM      4  C   UNL     1       3.023  14.073  20.737  0.00  0.00    +0.000 C 
ATOM      5  C   UNL     1       4.292  14.168  19.902  0.00  0.00    +0.000 C 
ATOM      6  C   UNL     1       4.115  15.109  18.681  0.00  0.00    +0.000 C 
ATOM      7  C   UNL     1       3.859  16.580  19.102  0.00  0.00    +0.000 C 
ATOM      8  C   UNL     1       5.050  17.171  19.848  0.00  0.00    +0.000 C 
ATOM      9  C   UNL     1       6.314  17.050  19.008  0.00  0.00    +0.000 C 
ATOM     10  N   UNL     1       6.535  15.672  18.551  0.00  0.00    +0.000 N 
ATOM     11  C   UNL     1       7.755  15.094  18.871  0.00  0.00    +0.000 C 
ATOM     12  O   UNL     1       8.568  15.727  19.550  0.00  0.00    +0.000 OA
ATOM     13  N   UNL     1       7.993  13.826  18.382  0.00  0.00    +0.000 N 
ATOM     14  C   UNL     1       5.409  15.068  17.829  0.00  0.00    +0.000 C 
ATOM     15  C   UNL     1       2.912  14.587  17.849  0.00  0.00    +0.000 C 
ATOM     16  C   UNL     1       1.647  14.386  18.696  0.00  0.00    +0.000 C 
ATOM     17  H   UNL     1       7.465  13.533  17.578  0.00  0.00    +0.000 HD
ENDROOT
BRANCH  13  18
ATOM     18  C   UNL     1       9.143  13.047  18.690  0.00  0.00    +0.000 A 
ATOM     19  C   UNL     1       9.335  12.446  19.939  0.00  0.00    +0.000 A 
ATOM     20  C   UNL     1      10.498  11.733  20.229  0.00  0.00    +0.000 A 
ATOM     21  C   UNL     1      11.482  11.591  19.260  0.00  0.00    +0.000 A 
ATOM     22  C   UNL     1      11.294  12.152  17.999  0.00  0.00    +0.000 A 
ATOM     23  C   UNL     1      10.126  12.873  17.709  0.00  0.00    +0.000 A 
ENDBRANCH  13  18
BRANCH   1  25
ATOM     24  C   UNL     1       0.060  10.720  19.342  0.00  0.00    +0.000 C 
ATOM     25  O   UNL     1       0.258  12.133  19.412  0.00  0.00    +0.000 OA
ENDBRANCH   1  25
TORSDOF 2
ENDMDL
MODEL 5
REMARK VINA RESULT:      -6.0      3.466      7.982
REMARK  Name = 
REMARK  3 active torsions:
REMARK  status: ('A' for Active; 'I' for Inactive)
REMARK    1  A    between atoms: C_1  and  O_2
REMARK    2  A    between atoms: O_2  and  C_3
REMARK    3  A    between atoms: N_15  and  C_16
REMARK                            x       y       z     vdW  Elec       q    Type
REMARK                         _______ _______ _______ _____ _____    ______ ____
ROOT
ATOM      1  C   UNL     1       2.593   2.980  20.331  0.00  0.00    +0.000 C 
ATOM      2  O   UNL     1       2.907   1.799  20.434  0.00  0.00    +0.000 OA
ATOM      3  N   UNL     1       3.436   3.958  19.839  0.00  0.00    +0.000 N 
ATOM      4  C   UNL     1       4.752   3.569  19.363  0.00  0.00    +0.000 C 
ATOM      5  C   UNL     1       4.957   4.100  17.951  0.00  0.00    +0.000 C 
ATOM      6  C   UNL     1       4.796   5.642  17.882  0.00  0.00    +0.000 C 
ATOM      7  C   UNL     1       5.886   6.385  18.700  0.00  0.00    +0.000 C 
ATOM      8  C   UNL     1       7.282   6.138  18.140  0.00  0.00    +0.000 C 
ATOM      9  C   UNL     1       7.339   6.524  16.668  0.00  0.00    +0.000 C 
ATOM     10  N   UNL     1       6.274   5.874  15.892  0.00  0.00    +0.000 N 
ATOM     11  C   UNL     1       6.668   5.119  14.797  0.00  0.00    +0.000 C 
ATOM     12  O   UNL     1       7.870   4.988  14.551  0.00  0.00    +0.000 OA
ATOM     13  N   UNL     1       5.666   4.566  14.027  0.00  0.00    +0.000 N 
ATOM     14  C   UNL     1       4.914   6.088  16.402  0.00  0.00    +0.000 C 
ATOM     15  C   UNL     1       3.392   6.000  18.437  0.00  0.00    +0.000 C 
ATOM     16  C   UNL     1       3.126   5.387  19.819  0.00  0.00    +0.000 C 
ATOM     17  H   UNL     1       4.757   4.993  14.074  0.00  0.00    +0.000 HD
ENDROOT
BRANCH  13  18
ATOM     18  C   UNL     1       5.887   3.687  12.929  0.00  0.00    +0.000 A 
ATOM     19  C   UNL     1       4.847   3.009  12.285  0.00  0.00    +0.000 A 
ATOM     20  C   UNL     1       5.099   2.113  11.247  0.00  0.00    +0.000 A 
ATOM     21  C   UNL     1       6.402   1.899  10.820  0.00  0.00    +0.000 A 
ATOM     22  C   UNL     1       7.449   2.592  11.425  0.00  0.00    +0.000 A 
ATOM     23  C   UNL     1       7.195   3.490  12.473  0.00  0.00    +0.000 A 
ENDBRANCH  13  18
BRANCH   1  25
ATOM     24  C   UNL     1       0.356   3.200  19.688  0.00  0.00    +0.000 C 
ATOM     25  O   UNL     1       1.367   3.460  20.663  0.00  0.00    +0.000 OA
ENDBRANCH   1  25
TORSDOF 2
ENDMDL
MODEL 6
REMARK VINA RESULT:      -5.9      4.264      8.630
REMARK  Name = 
REMARK  3 active torsions:
REMARK  status: ('A' for Active; 'I' for Inactive)
REMARK    1  A    between atoms: C_1  and  O_2
REMARK    2  A    between atoms: O_2  and  C_3
REMARK    3  A    between atoms: N_15  and  C_16
REMARK                            x       y       z     vdW  Elec       q    Type
REMARK                         _______ _______ _______ _____ _____    ______ ____
ROOT
ATOM      1  C   UNL     1       5.187  15.487  19.019  0.00  0.00    +0.000 C 
ATOM      2  O   UNL     1       5.857  15.155  18.047  0.00  0.00    +0.000 OA
ATOM      3  N   UNL     1       3.855  15.159  19.182  0.00  0.00    +0.000 N 
ATOM      4  C   UNL     1       3.214  14.329  18.176  0.00  0.00    +0.000 C 
ATOM      5  C   UNL     1       2.549  13.138  18.852  0.00  0.00    +0.000 C 
ATOM      6  C   UNL     1       1.514  13.580  19.920  0.00  0.00    +0.000 C 
ATOM      7  C   UNL     1       0.317  14.348  19.299  0.00  0.00    +0.000 C 
ATOM      8  C   UNL     1      -0.490  13.467  18.351  0.00  0.00    +0.000 C 
ATOM      9  C   UNL     1      -0.955  12.206  19.066  0.00  0.00    +0.000 C 
ATOM     10  N   UNL     1       0.161  11.502  19.711  0.00  0.00    +0.000 N 
ATOM     11  C   UNL     1       0.347  10.172  19.364  0.00  0.00    +0.000 C 
ATOM     12  O   UNL     1      -0.385   9.658  18.514  0.00  0.00    +0.000 OA
ATOM     13  N   UNL     1       1.350   9.489  20.021  0.00  0.00    +0.000 N 
ATOM     14  C   UNL     1       0.963  12.318  20.630  0.00  0.00    +0.000 C 
ATOM     15  C   UNL     1       2.245  14.492  20.942  0.00  0.00    +0.000 C 
ATOM     16  C   UNL     1       3.009  15.643  20.271  0.00  0.00    +0.000 C 
ATOM     17  H   UNL     1       1.649   9.849  20.911  0.00  0.00    +0.000 HD
ENDROOT
BRANCH  13  18
ATOM     18  C   UNL     1       1.743   8.154  19.724  0.00  0.00    +0.000 A 
ATOM     19  C   UNL     1       2.342   7.795  18.512  0.00  0.00    +0.000 A 
ATOM     20  C   UNL     1       2.666   6.468  18.229  0.00  0.00    +0.000 A 
ATOM     21  C   UNL     1       2.416   5.479  19.170  0.00  0.00    +0.000 A 
ATOM     22  C   UNL     1       1.851   5.821  20.397  0.00  0.00    +0.000 A 
ATOM     23  C   UNL     1       1.521   7.155  20.680  0.00  0.00    +0.000 A 
ENDBRANCH  13  18
BRANCH   1  25
ATOM     24  C   UNL     1       7.024  15.836  20.424  0.00  0.00    +0.000 C 
ATOM     25  O   UNL     1       5.688  16.192  20.067  0.00  0.00    +0.000 OA
ENDBRANCH   1  25
TORSDOF 2
ENDMDL
MODEL 7
REMARK VINA RESULT:      -5.6      4.786      9.634
REMARK  Name = 
REMARK  3 active torsions:
REMARK  status: ('A' for Active; 'I' for Inactive)
REMARK    1  A    between atoms: C_1  and  O_2
REMARK    2  A    between atoms: O_2  and  C_3
REMARK    3  A    between atoms: N_15  and  C_16
REMARK                            x       y       z     vdW  Elec       q    Type
REMARK                         _______ _______ _______ _____ _____    ______ ____
ROOT
ATOM      1  C   UNL     1       2.690  17.108  18.974  0.00  0.00    +0.000 C 
ATOM      2  O   UNL     1       2.948  17.040  17.776  0.00  0.00    +0.000 OA
ATOM      3  N   UNL     1       1.650  16.426  19.575  0.00  0.00    +0.000 N 
ATOM      4  C   UNL     1       0.842  15.531  18.764  0.00  0.00    +0.000 C 
ATOM      5  C   UNL     1       0.791  14.159  19.422  0.00  0.00    +0.000 C 
ATOM      6  C   UNL     1       0.226  14.229  20.865  0.00  0.00    +0.000 C 
ATOM      7  C   UNL     1      -1.255  14.692  20.897  0.00  0.00    +0.000 C 
ATOM      8  C   UNL     1      -2.174  13.700  20.194  0.00  0.00    +0.000 C 
ATOM      9  C   UNL     1      -2.017  12.312  20.798  0.00  0.00    +0.000 C 
ATOM     10  N   UNL     1      -0.612  11.886  20.830  0.00  0.00    +0.000 N 
ATOM     11  C   UNL     1      -0.307  10.683  20.210  0.00  0.00    +0.000 C 
ATOM     12  O   UNL     1      -1.198  10.055  19.630  0.00  0.00    +0.000 OA
ATOM     13  N   UNL     1       0.999  10.247  20.299  0.00  0.00    +0.000 N 
ATOM     14  C   UNL     1       0.305  12.816  21.499  0.00  0.00    +0.000 C 
ATOM     15  C   UNL     1       1.103  15.225  21.671  0.00  0.00    +0.000 C 
ATOM     16  C   UNL     1       1.252  16.584  20.973  0.00  0.00    +0.000 C 
ATOM     17  H   UNL     1       1.556  10.607  21.055  0.00  0.00    +0.000 HD
ENDROOT
BRANCH  13  18
ATOM     18  C   UNL     1       1.508   9.090  19.645  0.00  0.00    +0.000 A 
ATOM     19  C   UNL     1       1.721   7.879  20.310  0.00  0.00    +0.000 A 
ATOM     20  C   UNL     1       2.272   6.778  19.655  0.00  0.00    +0.000 A 
ATOM     21  C   UNL     1       2.599   6.868  18.309  0.00  0.00    +0.000 A 
ATOM     22  C   UNL     1       2.363   8.056  17.619  0.00  0.00    +0.000 A 
ATOM     23  C   UNL     1       1.812   9.164  18.280  0.00  0.00    +0.000 A 
ENDBRANCH  13  18
BRANCH   1  25
ATOM     24  C   UNL     1       4.735  17.342  20.083  0.00  0.00    +0.000 C 
ATOM     25  O   UNL     1       3.416  17.843  19.855  0.00  0.00    +0.000 OA
ENDBRANCH   1  25
TORSDOF 2
ENDMDL
MODEL 8
REMARK VINA RESULT:      -5.6      7.478     10.903
REMARK  Name = 
REMARK  3 active torsions:
REMARK  status: ('A' for Active; 'I' for Inactive)
REMARK    1  A    between atoms: C_1  and  O_2
REMARK    2  A    between atoms: O_2  and  C_3
REMARK    3  A    between atoms: N_15  and  C_16
REMARK                            x       y       z     vdW  Elec       q    Type
REMARK                         _______ _______ _______ _____ _____    ______ ____
ROOT
ATOM      1  C   UNL     1       1.196  13.262  19.316  0.00  0.00    +0.000 C 
ATOM      2  O   UNL     1       1.285  12.269  20.032  0.00  0.00    +0.000 OA
ATOM      3  N   UNL     1       2.062  14.336  19.382  0.00  0.00    +0.000 N 
ATOM      4  C   UNL     1       3.179  14.275  20.310  0.00  0.00    +0.000 C 
ATOM      5  C   UNL     1       4.473  14.567  19.564  0.00  0.00    +0.000 C 
ATOM      6  C   UNL     1       4.438  15.948  18.859  0.00  0.00    +0.000 C 
ATOM      7  C   UNL     1       4.340  17.123  19.869  0.00  0.00    +0.000 C 
ATOM      8  C   UNL     1       5.569  17.203  20.767  0.00  0.00    +0.000 C 
ATOM      9  C   UNL     1       6.834  17.303  19.926  0.00  0.00    +0.000 C 
ATOM     10  N   UNL     1       6.910  16.232  18.924  0.00  0.00    +0.000 N 
ATOM     11  C   UNL     1       8.046  15.436  18.942  0.00  0.00    +0.000 C 
ATOM     12  O   UNL     1       8.907  15.625  19.806  0.00  0.00    +0.000 OA
ATOM     13  N   UNL     1       8.151  14.475  17.958  0.00  0.00    +0.000 N 
ATOM     14  C   UNL     1       5.743  16.122  18.041  0.00  0.00    +0.000 C 
ATOM     15  C   UNL     1       3.208  15.969  17.913  0.00  0.00    +0.000 C 
ATOM     16  C   UNL     1       1.904  15.577  18.625  0.00  0.00    +0.000 C 
ATOM     17  H   UNL     1       7.617  14.612  17.117  0.00  0.00    +0.000 HD
ENDROOT
BRANCH  13  18
ATOM     18  C   UNL     1       9.196  13.512  17.881  0.00  0.00    +0.000 A 
ATOM     19  C   UNL     1       9.026  12.180  18.275  0.00  0.00    +0.000 A 
ATOM     20  C   UNL     1      10.084  11.273  18.239  0.00  0.00    +0.000 A 
ATOM     21  C   UNL     1      11.330  11.681  17.784  0.00  0.00    +0.000 A 
ATOM     22  C   UNL     1      11.511  12.994  17.354  0.00  0.00    +0.000 A 
ATOM     23  C   UNL     1      10.447  13.908  17.395  0.00  0.00    +0.000 A 
ENDBRANCH  13  18
BRANCH   1  25
ATOM     24  C   UNL     1      -0.922  12.616  18.562  0.00  0.00    +0.000 C 
ATOM     25  O   UNL     1       0.249  13.408  18.353  0.00  0.00    +0.000 OA
ENDBRANCH   1  25
TORSDOF 2
ENDMDL
MODEL 9
REMARK VINA RESULT:      -5.5      7.532     10.939
REMARK  Name = 
REMARK  3 active torsions:
REMARK  status: ('A' for Active; 'I' for Inactive)
REMARK    1  A    between atoms: C_1  and  O_2
REMARK    2  A    between atoms: O_2  and  C_3
REMARK    3  A    between atoms: N_15  and  C_16
REMARK                            x       y       z     vdW  Elec       q    Type
REMARK                         _______ _______ _______ _____ _____    ______ ____
ROOT
ATOM      1  C   UNL     1       1.378  13.273  19.267  0.00  0.00    +0.000 C 
ATOM      2  O   UNL     1       1.463  12.258  19.950  0.00  0.00    +0.000 OA
ATOM      3  N   UNL     1       2.229  14.355  19.389  0.00  0.00    +0.000 N 
ATOM      4  C   UNL     1       3.324  14.276  20.342  0.00  0.00    +0.000 C 
ATOM      5  C   UNL     1       4.632  14.609  19.638  0.00  0.00    +0.000 C 
ATOM      6  C   UNL     1       4.595  16.013  18.979  0.00  0.00    +0.000 C 
ATOM      7  C   UNL     1       4.458  17.151  20.025  0.00  0.00    +0.000 C 
ATOM      8  C   UNL     1       5.664  17.215  20.955  0.00  0.00    +0.000 C 
ATOM      9  C   UNL     1       6.947  17.360  20.148  0.00  0.00    +0.000 C 
ATOM     10  N   UNL     1       7.061  16.324  19.113  0.00  0.00    +0.000 N 
ATOM     11  C   UNL     1       8.207  15.542  19.132  0.00  0.00    +0.000 C 
ATOM     12  O   UNL     1       9.044  15.713  20.023  0.00  0.00    +0.000 OA
ATOM     13  N   UNL     1       8.348  14.616  18.119  0.00  0.00    +0.000 N 
ATOM     14  C   UNL     1       5.917  16.230  18.199  0.00  0.00    +0.000 C 
ATOM     15  C   UNL     1       3.388  16.050  18.004  0.00  0.00    +0.000 C 
ATOM     16  C   UNL     1       2.073  15.618  18.671  0.00  0.00    +0.000 C 
ATOM     17  H   UNL     1       7.832  14.775  17.271  0.00  0.00    +0.000 HD
ENDROOT
BRANCH  13  18
ATOM     18  C   UNL     1       9.407  13.669  18.036  0.00  0.00    +0.000 A 
ATOM     19  C   UNL     1      10.639  13.965  17.442  0.00  0.00    +0.000 A 
ATOM     20  C   UNL     1      11.638  12.999  17.327  0.00  0.00    +0.000 A 
ATOM     21  C   UNL     1      11.428  11.723  17.828  0.00  0.00    +0.000 A 
ATOM     22  C   UNL     1      10.221  11.418  18.455  0.00  0.00    +0.000 A 
ATOM     23  C   UNL     1       9.213  12.388  18.566  0.00  0.00    +0.000 A 
ENDBRANCH  13  18
BRANCH   1  25
ATOM     24  C   UNL     1      -0.790  12.782  18.540  0.00  0.00    +0.000 C 
ATOM     25  O   UNL     1       0.453  13.439  18.286  0.00  0.00    +0.000 OA
ENDBRANCH   1  25
TORSDOF 2
ENDMDL
