MODEL 1
REMARK VINA RESULT:      -7.2      0.000      0.000
REMARK  Name = 
REMARK  6 active torsions:
REMARK  status: ('A' for Active; 'I' for Inactive)
REMARK    1  A    between atoms: C_1  and  C_2
REMARK    2  A    between atoms: C_2  and  C_3
REMARK    3  A    between atoms: C_2  and  N_4
REMARK    4  A    between atoms: N_11  and  C_12
REMARK    5  A    between atoms: C_14  and  C_15
REMARK    6  A    between atoms: N_18  and  C_19
REMARK                            x       y       z     vdW  Elec       q    Type
REMARK                         _______ _______ _______ _____ _____    ______ ____
ROOT
ATOM      1  N   UNL     1       2.370   3.997  18.520  0.00  0.00    +0.000 N 
ATOM      2  N   UNL     1       3.061   2.939  18.020  0.00  0.00    +0.000 NA
ATOM      3  C   UNL     1       4.028   3.512  17.295  0.00  0.00    +0.000 A 
ATOM      4  C   UNL     1       3.978   4.915  17.331  0.00  0.00    +0.000 A 
ATOM      5  C   UNL     1       4.677   5.998  16.821  0.00  0.00    +0.000 A 
ATOM      6  N   UNL     1       4.275   7.254  17.130  0.00  0.00    +0.000 NA
ATOM      7  C   UNL     1       3.183   7.424  17.905  0.00  0.00    +0.000 A 
ATOM      8  N   UNL     1       2.787   8.761  18.081  0.00  0.00    +0.000 N 
ATOM      9  N   UNL     1       2.457   6.428  18.446  0.00  0.00    +0.000 NA
ATOM     10  C   UNL     1       2.893   5.206  18.131  0.00  0.00    +0.000 A 
ATOM     11  H   UNL     1       3.459   9.348  17.603  0.00  0.00    +0.000 HD
ENDROOT
BRANCH   8  12
ATOM     12  C   UNL     1       1.558   9.218  18.385  0.00  0.00    +0.000 A 
ATOM     13  C   UNL     1       0.484   9.435  17.507  0.00  0.00    +0.000 A 
ATOM     14  C   UNL     1      -0.574  10.008  18.198  0.00  0.00    +0.000 A 
ATOM     15  N   UNL     1      -0.128  10.137  19.505  0.00  0.00    +0.000 N 
ATOM     16  C   UNL     1      -0.784  10.768  20.631  0.00  0.00    +0.000 C 
ATOM     17  C   UNL     1       1.141   9.604  19.630  0.00  0.00    +0.000 A 
BRANCH  14  18
ATOM     18  C   UNL     1      -1.854  10.404  17.650  0.00  0.00    +0.000 C 
ATOM     19  N   UNL     1      -1.875  11.579  16.949  0.00  0.00    +0.000 N 
ATOM     20  O   UNL     1      -2.898   9.765  17.762  0.00  0.00    +0.000 OA
ATOM     21  H   UNL     1      -1.046  12.119  16.746  0.00  0.00    +0.000 HD
ATOM     22  H   UNL     1      -2.743  11.857  16.518  0.00  0.00    +0.000 HD
ENDBRANCH  14  18
ENDBRANCH   8  12
BRANCH   1  24
ATOM     23  C   UNL     1       0.545   2.428  19.083  0.00  0.00    +0.000 C 
ATOM     24  C   UNL     1       1.213   3.773  19.380  0.00  0.00    +0.000 C 
ATOM     25  C   UNL     1       1.588   3.886  20.859  0.00  0.00    +0.000 C 
ENDBRANCH   1  24
TORSDOF 3
ENDMDL
MODEL 2
REMARK VINA RESULT:      -6.8      1.446      1.803
REMARK  Name = 
REMARK  6 active torsions:
REMARK  status: ('A' for Active; 'I' for Inactive)
REMARK    1  A    between atoms: C_1  and  C_2
REMARK    2  A    between atoms: C_2  and  C_3
REMARK    3  A    between atoms: C_2  and  N_4
REMARK    4  A    between atoms: N_11  and  C_12
REMARK    5  A    between atoms: C_14  and  C_15
REMARK    6  A    between atoms: N_18  and  C_19
REMARK                            x       y       z     vdW  Elec       q    Type
REMARK                         _______ _______ _______ _____ _____    ______ ____
ROOT
ATOM      1  N   UNL     1       2.542   2.797  19.226  0.00  0.00    +0.000 N 
ATOM      2  N   UNL     1       2.903   1.581  18.736  0.00  0.00    +0.000 NA
ATOM      3  C   UNL     1       3.680   1.884  17.690  0.00  0.00    +0.000 A 
ATOM      4  C   UNL     1       3.836   3.268  17.509  0.00  0.00    +0.000 A 
ATOM      5  C   UNL     1       4.493   4.141  16.657  0.00  0.00    +0.000 A 
ATOM      6  N   UNL     1       4.377   5.476  16.855  0.00  0.00    +0.000 NA
ATOM      7  C   UNL     1       3.598   5.928  17.860  0.00  0.00    +0.000 A 
ATOM      8  N   UNL     1       3.459   7.325  17.917  0.00  0.00    +0.000 N 
ATOM      9  N   UNL     1       2.936   5.147  18.734  0.00  0.00    +0.000 NA
ATOM     10  C   UNL     1       3.087   3.839  18.516  0.00  0.00    +0.000 A 
ATOM     11  H   UNL     1       4.033   7.723  17.184  0.00  0.00    +0.000 HD
ENDROOT
BRANCH   8  12
ATOM     12  C   UNL     1       2.450   8.026  18.466  0.00  0.00    +0.000 A 
ATOM     13  C   UNL     1       1.657   9.009  17.853  0.00  0.00    +0.000 A 
ATOM     14  C   UNL     1       0.795   9.563  18.789  0.00  0.00    +0.000 A 
ATOM     15  N   UNL     1       1.078   8.905  19.978  0.00  0.00    +0.000 N 
ATOM     16  C   UNL     1       0.550   9.156  21.302  0.00  0.00    +0.000 C 
ATOM     17  C   UNL     1       2.038   7.934  19.768  0.00  0.00    +0.000 A 
BRANCH  14  18
ATOM     18  C   UNL     1      -0.168  10.619  18.562  0.00  0.00    +0.000 C 
ATOM     19  N   UNL     1       0.346  11.853  18.267  0.00  0.00    +0.000 N 
ATOM     20  O   UNL     1      -1.388  10.483  18.607  0.00  0.00    +0.000 OA
ATOM     21  H   UNL     1       1.332  12.027  18.133  0.00  0.00    +0.000 HD
ATOM     22  H   UNL     1      -0.302  12.598  18.059  0.00  0.00    +0.000 HD
ENDBRANCH  14  18
ENDBRANCH   8  12
BRANCH   1  24
ATOM     23  C   UNL     1       2.478   2.862  21.696  0.00  0.00    +0.000 C 
ATOM     24  C   UNL     1       1.673   2.885  20.394  0.00  0.00    +0.000 C 
ATOM     25  C   UNL     1       0.772   4.120  20.327  0.00  0.00    +0.000 C 
ENDBRANCH   1  24
TORSDOF 3
ENDMDL
MODEL 3
REMARK VINA RESULT:      -6.7      5.152      7.843
REMARK  Name = 
REMARK  6 active torsions:
REMARK  status: ('A' for Active; 'I' for Inactive)
REMARK    1  A    between atoms: C_1  and  C_2
REMARK    2  A    between atoms: C_2  and  C_3
REMARK    3  A    between atoms: C_2  and  N_4
REMARK    4  A    between atoms: N_11  and  C_12
REMARK    5  A    between atoms: C_14  and  C_15
REMARK    6  A    between atoms: N_18  and  C_19
REMARK                            x       y       z     vdW  Elec       q    Type
REMARK                         _______ _______ _______ _____ _____    ______ ____
ROOT
ATOM      1  N   UNL     1       4.067   3.946  17.864  0.00  0.00    +0.000 N 
ATOM      2  N   UNL     1       4.269   4.014  19.206  0.00  0.00    +0.000 NA
ATOM      3  C   UNL     1       5.556   4.367  19.310  0.00  0.00    +0.000 A 
ATOM      4  C   UNL     1       6.176   4.541  18.062  0.00  0.00    +0.000 A 
ATOM      5  C   UNL     1       7.415   4.895  17.554  0.00  0.00    +0.000 A 
ATOM      6  N   UNL     1       7.591   4.953  16.212  0.00  0.00    +0.000 NA
ATOM      7  C   UNL     1       6.563   4.635  15.398  0.00  0.00    +0.000 A 
ATOM      8  N   UNL     1       6.875   4.624  14.028  0.00  0.00    +0.000 N 
ATOM      9  N   UNL     1       5.328   4.291  15.812  0.00  0.00    +0.000 NA
ATOM     10  C   UNL     1       5.191   4.260  17.139  0.00  0.00    +0.000 A 
ATOM     11  H   UNL     1       7.841   4.911  13.929  0.00  0.00    +0.000 HD
ENDROOT
BRANCH   8  12
ATOM     12  C   UNL     1       6.250   3.941  13.051  0.00  0.00    +0.000 A 
ATOM     13  C   UNL     1       4.999   4.219  12.476  0.00  0.00    +0.000 A 
ATOM     14  C   UNL     1       4.668   3.218  11.574  0.00  0.00    +0.000 A 
ATOM     15  N   UNL     1       5.733   2.330  11.610  0.00  0.00    +0.000 N 
ATOM     16  C   UNL     1       5.872   1.051  10.945  0.00  0.00    +0.000 C 
ATOM     17  C   UNL     1       6.716   2.799  12.460  0.00  0.00    +0.000 A 
BRANCH  14  18
ATOM     18  C   UNL     1       3.455   3.125  10.790  0.00  0.00    +0.000 C 
ATOM     19  N   UNL     1       3.257   4.112   9.862  0.00  0.00    +0.000 N 
ATOM     20  O   UNL     1       2.614   2.236  10.894  0.00  0.00    +0.000 OA
ATOM     21  H   UNL     1       3.937   4.830   9.663  0.00  0.00    +0.000 HD
ATOM     22  H   UNL     1       2.442   4.048   9.271  0.00  0.00    +0.000 HD
ENDBRANCH  14  18
ENDBRANCH   8  12
BRANCH   1  24
ATOM     23  C   UNL     1       2.370   2.153  17.739  0.00  0.00    +0.000 C 
ATOM     24  C   UNL     1       2.755   3.580  17.341  0.00  0.00    +0.000 C 
ATOM     25  C   UNL     1       1.682   4.580  17.777  0.00  0.00    +0.000 C 
ENDBRANCH   1  24
TORSDOF 3
ENDMDL
MODEL 4
REMARK VINA RESULT:      -6.7      1.269      1.352
REMARK  Name = 
REMARK  6 active torsions:
REMARK  status: ('A' for Active; 'I' for Inactive)
REMARK    1  A    between atoms: C_1  and  C_2
REMARK    2  A    between atoms: C_2  and  C_3
REMARK    3  A    between atoms: C_2  and  N_4
REMARK    4  A    between atoms: N_11  and  C_12
REMARK    5  A    between atoms: C_14  and  C_15
REMARK    6  A    between atoms: N_18  and  C_19
REMARK                            x       y       z     vdW  Elec       q    Type
REMARK                         _______ _______ _______ _____ _____    ______ ____
ROOT
ATOM      1  N   UNL     1       2.901   3.494  19.401  0.00  0.00    +0.000 N 
ATOM      2  N   UNL     1       3.404   2.309  18.964  0.00  0.00    +0.000 NA
ATOM      3  C   UNL     1       4.132   2.654  17.896  0.00  0.00    +0.000 A 
ATOM      4  C   UNL     1       4.118   4.036  17.649  0.00  0.00    +0.000 A 
ATOM      5  C   UNL     1       4.659   4.941  16.751  0.00  0.00    +0.000 A 
ATOM      6  N   UNL     1       4.382   6.260  16.888  0.00  0.00    +0.000 NA
ATOM      7  C   UNL     1       3.560   6.661  17.880  0.00  0.00    +0.000 A 
ATOM      8  N   UNL     1       3.252   8.033  17.874  0.00  0.00    +0.000 N 
ATOM      9  N   UNL     1       3.003   5.848  18.797  0.00  0.00    +0.000 NA
ATOM     10  C   UNL     1       3.311   4.559  18.638  0.00  0.00    +0.000 A 
ATOM     11  H   UNL     1       3.769   8.462  17.117  0.00  0.00    +0.000 HD
ENDROOT
BRANCH   8  12
ATOM     12  C   UNL     1       2.169   8.631  18.402  0.00  0.00    +0.000 A 
ATOM     13  C   UNL     1       1.312   9.554  17.781  0.00  0.00    +0.000 A 
ATOM     14  C   UNL     1       0.376  10.011  18.697  0.00  0.00    +0.000 A 
ATOM     15  N   UNL     1       0.677   9.355  19.883  0.00  0.00    +0.000 N 
ATOM     16  C   UNL     1       0.087   9.530  21.193  0.00  0.00    +0.000 C 
ATOM     17  C   UNL     1       1.725   8.476  19.687  0.00  0.00    +0.000 A 
BRANCH  14  18
ATOM     18  C   UNL     1      -0.669  10.984  18.457  0.00  0.00    +0.000 C 
ATOM     19  N   UNL     1      -1.512  10.720  17.411  0.00  0.00    +0.000 N 
ATOM     20  O   UNL     1      -0.850  12.002  19.119  0.00  0.00    +0.000 OA
ATOM     21  H   UNL     1      -1.477   9.868  16.872  0.00  0.00    +0.000 HD
ATOM     22  H   UNL     1      -2.276  11.357  17.248  0.00  0.00    +0.000 HD
ENDBRANCH  14  18
ENDBRANCH   8  12
BRANCH   1  24
ATOM     23  C   UNL     1       0.570   3.293  20.199  0.00  0.00    +0.000 C 
ATOM     24  C   UNL     1       2.035   3.531  20.574  0.00  0.00    +0.000 C 
ATOM     25  C   UNL     1       2.497   2.535  21.640  0.00  0.00    +0.000 C 
ENDBRANCH   1  24
TORSDOF 3
ENDMDL
MODEL 5
REMARK VINA RESULT:      -6.6      5.644      8.359
REMARK  Name = 
REMARK  6 active torsions:
REMARK  status: ('A' for Active; 'I' for Inactive)
REMARK    1  A    between atoms: C_1  and  C_2
REMARK    2  A    between atoms: C_2  and  C_3
REMARK    3  A    between atoms: C_2  and  N_4
REMARK    4  A    between atoms: N_11  and  C_12
REMARK    5  A    between atoms: C_14  and  C_15
REMARK    6  A    between atoms: N_18  and  C_19
REMARK                            x       y       z     vdW  Elec       q    Type
REMARK                         _______ _______ _______ _____ _____    ______ ____
ROOT
ATOM      1  N   UNL     1       4.252   4.156  18.176  0.00  0.00    +0.000 N 
ATOM      2  N   UNL     1       4.460   4.427  19.491  0.00  0.00    +0.000 NA
ATOM      3  C   UNL     1       5.604   5.121  19.490  0.00  0.00    +0.000 A 
ATOM      4  C   UNL     1       6.124   5.313  18.199  0.00  0.00    +0.000 A 
ATOM      5  C   UNL     1       7.207   5.926  17.592  0.00  0.00    +0.000 A 
ATOM      6  N   UNL     1       7.328   5.877  16.243  0.00  0.00    +0.000 NA
ATOM      7  C   UNL     1       6.406   5.206  15.523  0.00  0.00    +0.000 A 
ATOM      8  N   UNL     1       6.677   5.124  14.146  0.00  0.00    +0.000 N 
ATOM      9  N   UNL     1       5.322   4.593  16.035  0.00  0.00    +0.000 NA
ATOM     10  C   UNL     1       5.230   4.676  17.364  0.00  0.00    +0.000 A 
ATOM     11  H   UNL     1       7.525   5.647  13.967  0.00  0.00    +0.000 HD
ENDROOT
BRANCH   8  12
ATOM     12  C   UNL     1       6.238   4.193  13.278  0.00  0.00    +0.000 A 
ATOM     13  C   UNL     1       6.969   3.135  12.716  0.00  0.00    +0.000 A 
ATOM     14  C   UNL     1       6.181   2.464  11.792  0.00  0.00    +0.000 A 
ATOM     15  N   UNL     1       4.964   3.131  11.799  0.00  0.00    +0.000 N 
ATOM     16  C   UNL     1       3.809   2.921  10.952  0.00  0.00    +0.000 C 
ATOM     17  C   UNL     1       4.980   4.140  12.742  0.00  0.00    +0.000 A 
BRANCH  14  18
ATOM     18  C   UNL     1       6.571   1.329  10.983  0.00  0.00    +0.000 C 
ATOM     19  N   UNL     1       6.121   0.105  11.401  0.00  0.00    +0.000 N 
ATOM     20  O   UNL     1       7.256   1.389   9.965  0.00  0.00    +0.000 OA
ATOM     21  H   UNL     1       5.490  -0.018  12.179  0.00  0.00    +0.000 HD
ATOM     22  H   UNL     1       6.339  -0.698  10.832  0.00  0.00    +0.000 HD
ENDBRANCH  14  18
ENDBRANCH   8  12
BRANCH   1  24
ATOM     23  C   UNL     1       2.885   2.147  18.629  0.00  0.00    +0.000 C 
ATOM     24  C   UNL     1       3.077   3.395  17.764  0.00  0.00    +0.000 C 
ATOM     25  C   UNL     1       1.819   4.266  17.770  0.00  0.00    +0.000 C 
ENDBRANCH   1  24
TORSDOF 3
ENDMDL
MODEL 6
REMARK VINA RESULT:      -6.4      1.576      2.223
REMARK  Name = 
REMARK  6 active torsions:
REMARK  status: ('A' for Active; 'I' for Inactive)
REMARK    1  A    between atoms: C_1  and  C_2
REMARK    2  A    between atoms: C_2  and  C_3
REMARK    3  A    between atoms: C_2  and  N_4
REMARK    4  A    between atoms: N_11  and  C_12
REMARK    5  A    between atoms: C_14  and  C_15
REMARK    6  A    between atoms: N_18  and  C_19
REMARK                            x       y       z     vdW  Elec       q    Type
REMARK                         _______ _______ _______ _____ _____    ______ ____
ROOT
ATOM      1  N   UNL     1       3.031   3.632  19.479  0.00  0.00    +0.000 N 
ATOM      2  N   UNL     1       3.523   2.454  19.012  0.00  0.00    +0.000 NA
ATOM      3  C   UNL     1       4.167   2.806  17.893  0.00  0.00    +0.000 A 
ATOM      4  C   UNL     1       4.110   4.187  17.643  0.00  0.00    +0.000 A 
ATOM      5  C   UNL     1       4.568   5.097  16.704  0.00  0.00    +0.000 A 
ATOM      6  N   UNL     1       4.278   6.411  16.855  0.00  0.00    +0.000 NA
ATOM      7  C   UNL     1       3.521   6.803  17.902  0.00  0.00    +0.000 A 
ATOM      8  N   UNL     1       3.189   8.168  17.913  0.00  0.00    +0.000 N 
ATOM      9  N   UNL     1       3.046   5.985  18.860  0.00  0.00    +0.000 NA
ATOM     10  C   UNL     1       3.366   4.701  18.684  0.00  0.00    +0.000 A 
ATOM     11  H   UNL     1       3.642   8.602  17.118  0.00  0.00    +0.000 HD
ENDROOT
BRANCH   8  12
ATOM     12  C   UNL     1       2.134   8.750  18.514  0.00  0.00    +0.000 A 
ATOM     13  C   UNL     1       1.764   8.663  19.866  0.00  0.00    +0.000 A 
ATOM     14  C   UNL     1       0.559   9.323  20.062  0.00  0.00    +0.000 A 
ATOM     15  N   UNL     1       0.203   9.809  18.812  0.00  0.00    +0.000 N 
ATOM     16  C   UNL     1      -1.013  10.486  18.413  0.00  0.00    +0.000 C 
ATOM     17  C   UNL     1       1.187   9.513  17.888  0.00  0.00    +0.000 A 
BRANCH  14  18
ATOM     18  C   UNL     1      -0.169   9.446  21.307  0.00  0.00    +0.000 C 
ATOM     19  N   UNL     1      -0.248  10.704  21.839  0.00  0.00    +0.000 N 
ATOM     20  O   UNL     1      -0.715   8.519  21.899  0.00  0.00    +0.000 OA
ATOM     21  H   UNL     1       0.105  11.527  21.373  0.00  0.00    +0.000 HD
ATOM     22  H   UNL     1      -0.787  10.828  22.683  0.00  0.00    +0.000 HD
ENDBRANCH  14  18
ENDBRANCH   8  12
BRANCH   1  24
ATOM     23  C   UNL     1       0.747   3.681  20.422  0.00  0.00    +0.000 C 
ATOM     24  C   UNL     1       2.250   3.659  20.711  0.00  0.00    +0.000 C 
ATOM     25  C   UNL     1       2.616   2.491  21.629  0.00  0.00    +0.000 C 
ENDBRANCH   1  24
TORSDOF 3
ENDMDL
MODEL 7
REMARK VINA RESULT:      -6.4      1.773      2.554
REMARK  Name = 
REMARK  6 active torsions:
REMARK  status: ('A' for Active; 'I' for Inactive)
REMARK    1  A    between atoms: C_1  and  C_2
REMARK    2  A    between atoms: C_2  and  C_3
REMARK    3  A    between atoms: C_2  and  N_4
REMARK    4  A    between atoms: N_11  and  C_12
REMARK    5  A    between atoms: C_14  and  C_15
REMARK    6  A    between atoms: N_18  and  C_19
REMARK                            x       y       z     vdW  Elec       q    Type
REMARK                         _______ _______ _______ _____ _____    ______ ____
ROOT
ATOM      1  N   UNL     1       2.304   2.939  19.282  0.00  0.00    +0.000 N 
ATOM      2  N   UNL     1       2.616   1.702  18.813  0.00  0.00    +0.000 NA
ATOM      3  C   UNL     1       3.420   1.956  17.774  0.00  0.00    +0.000 A 
ATOM      4  C   UNL     1       3.641   3.329  17.578  0.00  0.00    +0.000 A 
ATOM      5  C   UNL     1       4.348   4.161  16.725  0.00  0.00    +0.000 A 
ATOM      6  N   UNL     1       4.290   5.502  16.905  0.00  0.00    +0.000 NA
ATOM      7  C   UNL     1       3.518   6.002  17.893  0.00  0.00    +0.000 A 
ATOM      8  N   UNL     1       3.442   7.404  17.931  0.00  0.00    +0.000 N 
ATOM      9  N   UNL     1       2.810   5.263  18.768  0.00  0.00    +0.000 NA
ATOM     10  C   UNL     1       2.905   3.946  18.568  0.00  0.00    +0.000 A 
ATOM     11  H   UNL     1       4.043   7.766  17.201  0.00  0.00    +0.000 HD
ENDROOT
BRANCH   8  12
ATOM     12  C   UNL     1       2.458   8.157  18.457  0.00  0.00    +0.000 A 
ATOM     13  C   UNL     1       2.028   8.192  19.793  0.00  0.00    +0.000 A 
ATOM     14  C   UNL     1       0.921   9.022  19.905  0.00  0.00    +0.000 A 
ATOM     15  N   UNL     1       0.686   9.489  18.619  0.00  0.00    +0.000 N 
ATOM     16  C   UNL     1      -0.406  10.307  18.136  0.00  0.00    +0.000 C 
ATOM     17  C   UNL     1       1.652   9.011  17.755  0.00  0.00    +0.000 A 
BRANCH  14  18
ATOM     18  C   UNL     1       0.171   9.309  21.109  0.00  0.00    +0.000 C 
ATOM     19  N   UNL     1      -0.482   8.250  21.681  0.00  0.00    +0.000 N 
ATOM     20  O   UNL     1       0.088  10.411  21.643  0.00  0.00    +0.000 OA
ATOM     21  H   UNL     1      -0.399   7.301  21.347  0.00  0.00    +0.000 HD
ATOM     22  H   UNL     1      -0.976   8.410  22.545  0.00  0.00    +0.000 HD
ENDBRANCH  14  18
ENDBRANCH   8  12
BRANCH   1  24
ATOM     23  C   UNL     1       2.149   2.741  21.741  0.00  0.00    +0.000 C 
ATOM     24  C   UNL     1       1.424   3.081  20.437  0.00  0.00    +0.000 C 
ATOM     25  C   UNL     1       0.809   4.481  20.500  0.00  0.00    +0.000 C 
ENDBRANCH   1  24
TORSDOF 3
ENDMDL
MODEL 8
REMARK VINA RESULT:      -6.2      2.891      6.895
REMARK  Name = 
REMARK  6 active torsions:
REMARK  status: ('A' for Active; 'I' for Inactive)
REMARK    1  A    between atoms: C_1  and  C_2
REMARK    2  A    between atoms: C_2  and  C_3
REMARK    3  A    between atoms: C_2  and  N_4
REMARK    4  A    between atoms: N_11  and  C_12
REMARK    5  A    between atoms: C_14  and  C_15
REMARK    6  A    between atoms: N_18  and  C_19
REMARK                            x       y       z     vdW  Elec       q    Type
REMARK                         _______ _______ _______ _____ _____    ______ ____
ROOT
ATOM      1  N   UNL     1       0.361  10.771  21.121  0.00  0.00    +0.000 N 
ATOM      2  N   UNL     1       0.191  12.108  21.296  0.00  0.00    +0.000 NA
ATOM      3  C   UNL     1       0.770  12.641  20.213  0.00  0.00    +0.000 A 
ATOM      4  C   UNL     1       1.293  11.671  19.342  0.00  0.00    +0.000 A 
ATOM      5  C   UNL     1       1.956  11.609  18.127  0.00  0.00    +0.000 A 
ATOM      6  N   UNL     1       2.285  10.401  17.611  0.00  0.00    +0.000 NA
ATOM      7  C   UNL     1       1.987   9.284  18.306  0.00  0.00    +0.000 A 
ATOM      8  N   UNL     1       2.462   8.090  17.737  0.00  0.00    +0.000 N 
ATOM      9  N   UNL     1       1.338   9.258  19.485  0.00  0.00    +0.000 NA
ATOM     10  C   UNL     1       1.017  10.467  19.954  0.00  0.00    +0.000 A 
ATOM     11  H   UNL     1       2.914   8.323  16.862  0.00  0.00    +0.000 HD
ENDROOT
BRANCH   8  12
ATOM     12  C   UNL     1       2.727   6.930  18.368  0.00  0.00    +0.000 A 
ATOM     13  C   UNL     1       3.410   5.814  17.858  0.00  0.00    +0.000 A 
ATOM     14  C   UNL     1       3.382   4.786  18.789  0.00  0.00    +0.000 A 
ATOM     15  N   UNL     1       2.673   5.292  19.869  0.00  0.00    +0.000 N 
ATOM     16  C   UNL     1       2.253   4.615  21.078  0.00  0.00    +0.000 C 
ATOM     17  C   UNL     1       2.328   6.610  19.637  0.00  0.00    +0.000 A 
BRANCH  14  18
ATOM     18  C   UNL     1       3.954   3.465  18.639  0.00  0.00    +0.000 C 
ATOM     19  N   UNL     1       5.193   3.276  19.190  0.00  0.00    +0.000 N 
ATOM     20  O   UNL     1       3.411   2.522  18.070  0.00  0.00    +0.000 OA
ATOM     21  H   UNL     1       5.668   3.976  19.740  0.00  0.00    +0.000 HD
ATOM     22  H   UNL     1       5.597   2.353  19.140  0.00  0.00    +0.000 HD
ENDBRANCH  14  18
ENDBRANCH   8  12
BRANCH   1  24
ATOM     23  C   UNL     1       0.995   9.121  22.849  0.00  0.00    +0.000 C 
ATOM     24  C   UNL     1      -0.145   9.835  22.119  0.00  0.00    +0.000 C 
ATOM     25  C   UNL     1      -1.082  10.529  23.110  0.00  0.00    +0.000 C 
ENDBRANCH   1  24
TORSDOF 3
ENDMDL
MODEL 9
REMARK VINA RESULT:      -6.2      0.664      1.003
REMARK  Name = 
REMARK  6 active torsions:
REMARK  status: ('A' for Active; 'I' for Inactive)
REMARK    1  A    between atoms: C_1  and  C_2
REMARK    2  A    between atoms: C_2  and  C_3
REMARK    3  A    between atoms: C_2  and  N_4
REMARK    4  A    between atoms: N_11  and  C_12
REMARK    5  A    between atoms: C_14  and  C_15
REMARK    6  A    between atoms: N_18  and  C_19
REMARK                            x       y       z     vdW  Elec       q    Type
REMARK                         _______ _______ _______ _____ _____    ______ ____
ROOT
ATOM      1  N   UNL     1       2.935   3.807  19.057  0.00  0.00    +0.000 N 
ATOM      2  N   UNL     1       3.575   2.703  18.591  0.00  0.00    +0.000 NA
ATOM      3  C   UNL     1       4.363   3.184  17.623  0.00  0.00    +0.000 A 
ATOM      4  C   UNL     1       4.251   4.575  17.469  0.00  0.00    +0.000 A 
ATOM      5  C   UNL     1       4.790   5.585  16.689  0.00  0.00    +0.000 A 
ATOM      6  N   UNL     1       4.389   6.864  16.888  0.00  0.00    +0.000 NA
ATOM      7  C   UNL     1       3.450   7.123  17.822  0.00  0.00    +0.000 A 
ATOM      8  N   UNL     1       3.027   8.462  17.880  0.00  0.00    +0.000 N 
ATOM      9  N   UNL     1       2.886   6.201  18.626  0.00  0.00    +0.000 NA
ATOM     10  C   UNL     1       3.318   4.957  18.410  0.00  0.00    +0.000 A 
ATOM     11  H   UNL     1       3.570   8.986  17.205  0.00  0.00    +0.000 HD
ENDROOT
BRANCH   8  12
ATOM     12  C   UNL     1       1.853   8.931  18.341  0.00  0.00    +0.000 A 
ATOM     13  C   UNL     1       0.787   9.456  17.593  0.00  0.00    +0.000 A 
ATOM     14  C   UNL     1      -0.198   9.923  18.452  0.00  0.00    +0.000 A 
ATOM     15  N   UNL     1       0.285   9.677  19.729  0.00  0.00    +0.000 N 
ATOM     16  C   UNL     1      -0.286  10.055  21.005  0.00  0.00    +0.000 C 
ATOM     17  C   UNL     1       1.500   9.022  19.660  0.00  0.00    +0.000 A 
BRANCH  14  18
ATOM     18  C   UNL     1      -1.446  10.554  18.077  0.00  0.00    +0.000 C 
ATOM     19  N   UNL     1      -1.360  11.843  17.624  0.00  0.00    +0.000 N 
ATOM     20  O   UNL     1      -2.551  10.020  18.131  0.00  0.00    +0.000 OA
ATOM     21  H   UNL     1      -0.483  12.322  17.476  0.00  0.00    +0.000 HD
ATOM     22  H   UNL     1      -2.207  12.293  17.313  0.00  0.00    +0.000 HD
ENDBRANCH  14  18
ENDBRANCH   8  12
BRANCH   1  24
ATOM     23  C   UNL     1       1.671   5.045  20.784  0.00  0.00    +0.000 C 
ATOM     24  C   UNL     1       1.967   3.687  20.143  0.00  0.00    +0.000 C 
ATOM     25  C   UNL     1       0.679   3.011  19.669  0.00  0.00    +0.000 C 
ENDBRANCH   1  24
TORSDOF 3
ENDMDL
