MODEL 1
REMARK VINA RESULT:      -8.6      0.000      0.000
REMARK  Name = 
REMARK  4 active torsions:
REMARK  status: ('A' for Active; 'I' for Inactive)
REMARK    1  A    between atoms: C_2  and  C_18
REMARK    2  A    between atoms: C_7  and  S_8
REMARK    3  A    between atoms: S_8  and  C_9
REMARK    4  A    between atoms: C_9  and  C_10
REMARK                            x       y       z     vdW  Elec       q    Type
REMARK                         _______ _______ _______ _____ _____    ______ ____
ROOT
ATOM      1  O   UNL     1       4.834   4.183  16.163  0.00  0.00    +0.000 OA
ATOM      2  C   UNL     1       4.956   3.626  17.248  0.00  0.00    +0.000 C 
ATOM      3  N   UNL     1       5.877   3.973  18.214  0.00  0.00    +0.000 N 
ATOM      4  C   UNL     1       6.641   5.120  18.211  0.00  0.00    +0.000 A 
ATOM      5  N   UNL     1       7.696   5.286  18.980  0.00  0.00    +0.000 NA
ATOM      6  N   UNL     1       8.259   6.548  18.830  0.00  0.00    +0.000 NA
ATOM      7  C   UNL     1       7.559   7.303  18.010  0.00  0.00    +0.000 A 
ATOM      8  S   UNL     1       6.219   6.502  17.299  0.00  0.00    +0.000 S 
ATOM      9  H   UNL     1       6.092   3.312  18.950  0.00  0.00    +0.000 HD
ENDROOT
BRANCH   2  10
ATOM     10  C   UNL     1       4.149   2.355  17.582  0.00  0.00    +0.000 C 
ATOM     11  C   UNL     1       2.774   2.395  16.917  0.00  0.00    +0.000 C 
ATOM     12  O   UNL     1       1.940   3.417  17.478  0.00  0.00    +0.000 OA
ATOM     13  C   UNL     1       2.056   3.493  18.840  0.00  0.00    +0.000 A 
ATOM     14  C   UNL     1       1.137   4.306  19.499  0.00  0.00    +0.000 A 
ATOM     15  C   UNL     1       1.180   4.422  20.889  0.00  0.00    +0.000 A 
ATOM     16  C   UNL     1       2.139   3.716  21.618  0.00  0.00    +0.000 A 
ATOM     17  C   UNL     1       3.072   2.916  20.957  0.00  0.00    +0.000 A 
ATOM     18  C   UNL     1       3.046   2.826  19.567  0.00  0.00    +0.000 A 
ATOM     19  O   UNL     1       4.040   2.086  18.980  0.00  0.00    +0.000 OA
ENDBRANCH   2  10
BRANCH   7  20
ATOM     20  S   UNL     1       7.892   9.000  17.734  0.00  0.00    +0.000 S 
BRANCH  20  21
ATOM     21  C   UNL     1       8.994   9.401  19.117  0.00  0.00    +0.000 C 
BRANCH  21  22
ATOM     22  C   UNL     1       9.581  10.795  18.993  0.00  0.00    +0.000 A 
ATOM     23  C   UNL     1      10.231  11.166  17.799  0.00  0.00    +0.000 A 
ATOM     24  C   UNL     1      10.754  12.452  17.630  0.00  0.00    +0.000 A 
ATOM     25  C   UNL     1      10.630  13.395  18.646  0.00  0.00    +0.000 A 
ATOM     26  C   UNL     1      10.014  13.041  19.844  0.00  0.00    +0.000 A 
ATOM     27  C   UNL     1       9.513  11.745  20.026  0.00  0.00    +0.000 A 
ATOM     28 CL   UNL     1       8.826  11.376  21.568  0.00  0.00    +0.000 Cl
ENDBRANCH  21  22
ENDBRANCH  20  21
ENDBRANCH   7  20
TORSDOF 4
ENDMDL
MODEL 2
REMARK VINA RESULT:      -8.6      5.677      7.933
REMARK  Name = 
REMARK  4 active torsions:
REMARK  status: ('A' for Active; 'I' for Inactive)
REMARK    1  A    between atoms: C_2  and  C_18
REMARK    2  A    between atoms: C_7  and  S_8
REMARK    3  A    between atoms: S_8  and  C_9
REMARK    4  A    between atoms: C_9  and  C_10
REMARK                            x       y       z     vdW  Elec       q    Type
REMARK                         _______ _______ _______ _____ _____    ______ ____
ROOT
ATOM      1  O   UNL     1       4.580   6.944  17.402  0.00  0.00    +0.000 OA
ATOM      2  C   UNL     1       4.127   6.069  18.131  0.00  0.00    +0.000 C 
ATOM      3  N   UNL     1       3.195   6.276  19.127  0.00  0.00    +0.000 N 
ATOM      4  C   UNL     1       2.470   7.433  19.312  0.00  0.00    +0.000 A 
ATOM      5  N   UNL     1       1.810   7.701  20.418  0.00  0.00    +0.000 NA
ATOM      6  N   UNL     1       1.115   8.902  20.335  0.00  0.00    +0.000 NA
ATOM      7  C   UNL     1       1.223   9.448  19.143  0.00  0.00    +0.000 A 
ATOM      8  S   UNL     1       2.245   8.584  18.070  0.00  0.00    +0.000 S 
ATOM      9  H   UNL     1       3.077   5.571  19.844  0.00  0.00    +0.000 HD
ENDROOT
BRANCH   2  10
ATOM     10  C   UNL     1       4.681   4.631  18.082  0.00  0.00    +0.000 C 
ATOM     11  C   UNL     1       4.082   3.858  16.908  0.00  0.00    +0.000 C 
ATOM     12  O   UNL     1       2.682   3.617  17.087  0.00  0.00    +0.000 OA
ATOM     13  C   UNL     1       2.374   3.271  18.375  0.00  0.00    +0.000 A 
ATOM     14  C   UNL     1       1.078   2.813  18.605  0.00  0.00    +0.000 A 
ATOM     15  C   UNL     1       0.695   2.426  19.890  0.00  0.00    +0.000 A 
ATOM     16  C   UNL     1       1.612   2.489  20.941  0.00  0.00    +0.000 A 
ATOM     17  C   UNL     1       2.904   2.965  20.714  0.00  0.00    +0.000 A 
ATOM     18  C   UNL     1       3.276   3.379  19.438  0.00  0.00    +0.000 A 
ATOM     19  O   UNL     1       4.534   3.909  19.305  0.00  0.00    +0.000 OA
ENDBRANCH   2  10
BRANCH   7  20
ATOM     20  S   UNL     1       0.333  10.873  18.645  0.00  0.00    +0.000 S 
BRANCH  20  21
ATOM     21  C   UNL     1      -1.373  10.421  19.065  0.00  0.00    +0.000 C 
BRANCH  21  22
ATOM     22  C   UNL     1      -2.311  10.574  17.883  0.00  0.00    +0.000 A 
ATOM     23  C   UNL     1      -1.998   9.937  16.665  0.00  0.00    +0.000 A 
ATOM     24  C   UNL     1      -2.852  10.024  15.563  0.00  0.00    +0.000 A 
ATOM     25  C   UNL     1      -4.043  10.739  15.656  0.00  0.00    +0.000 A 
ATOM     26  C   UNL     1      -4.360  11.398  16.842  0.00  0.00    +0.000 A 
ATOM     27  C   UNL     1      -3.491  11.336  17.940  0.00  0.00    +0.000 A 
ATOM     28 CL   UNL     1      -3.932  12.238  19.346  0.00  0.00    +0.000 Cl
ENDBRANCH  21  22
ENDBRANCH  20  21
ENDBRANCH   7  20
TORSDOF 4
ENDMDL
MODEL 3
REMARK VINA RESULT:      -8.3      5.998      8.243
REMARK  Name = 
REMARK  4 active torsions:
REMARK  status: ('A' for Active; 'I' for Inactive)
REMARK    1  A    between atoms: C_2  and  C_18
REMARK    2  A    between atoms: C_7  and  S_8
REMARK    3  A    between atoms: S_8  and  C_9
REMARK    4  A    between atoms: C_9  and  C_10
REMARK                            x       y       z     vdW  Elec       q    Type
REMARK                         _______ _______ _______ _____ _____    ______ ____
ROOT
ATOM      1  O   UNL     1       4.335   7.156  17.388  0.00  0.00    +0.000 OA
ATOM      2  C   UNL     1       3.971   6.287  18.171  0.00  0.00    +0.000 C 
ATOM      3  N   UNL     1       3.090   6.484  19.215  0.00  0.00    +0.000 N 
ATOM      4  C   UNL     1       2.319   7.610  19.405  0.00  0.00    +0.000 A 
ATOM      5  N   UNL     1       1.713   7.886  20.540  0.00  0.00    +0.000 NA
ATOM      6  N   UNL     1       0.953   9.047  20.458  0.00  0.00    +0.000 NA
ATOM      7  C   UNL     1       0.962   9.554  19.244  0.00  0.00    +0.000 A 
ATOM      8  S   UNL     1       1.962   8.703  18.141  0.00  0.00    +0.000 S 
ATOM      9  H   UNL     1       3.051   5.801  19.961  0.00  0.00    +0.000 HD
ENDROOT
BRANCH   2  10
ATOM     10  C   UNL     1       4.594   4.877  18.137  0.00  0.00    +0.000 C 
ATOM     11  C   UNL     1       4.063   4.077  16.949  0.00  0.00    +0.000 C 
ATOM     12  O   UNL     1       2.671   3.769  17.094  0.00  0.00    +0.000 OA
ATOM     13  C   UNL     1       2.349   3.408  18.374  0.00  0.00    +0.000 A 
ATOM     14  C   UNL     1       1.071   2.889  18.573  0.00  0.00    +0.000 A 
ATOM     15  C   UNL     1       0.675   2.483  19.848  0.00  0.00    +0.000 A 
ATOM     16  C   UNL     1       1.561   2.589  20.921  0.00  0.00    +0.000 A 
ATOM     17  C   UNL     1       2.835   3.126  20.726  0.00  0.00    +0.000 A 
ATOM     18  C   UNL     1       3.217   3.559  19.459  0.00  0.00    +0.000 A 
ATOM     19  O   UNL     1       4.452   4.148  19.357  0.00  0.00    +0.000 OA
ENDBRANCH   2  10
BRANCH   7  20
ATOM     20  S   UNL     1      -0.028  10.914  18.754  0.00  0.00    +0.000 S 
BRANCH  20  21
ATOM     21  C   UNL     1      -1.094  10.171  17.490  0.00  0.00    +0.000 C 
BRANCH  21  22
ATOM     22  C   UNL     1      -2.498  10.746  17.518  0.00  0.00    +0.000 A 
ATOM     23  C   UNL     1      -2.973  11.349  18.700  0.00  0.00    +0.000 A 
ATOM     24  C   UNL     1      -4.247  11.922  18.758  0.00  0.00    +0.000 A 
ATOM     25  C   UNL     1      -5.068  11.915  17.634  0.00  0.00    +0.000 A 
ATOM     26  C   UNL     1      -4.628  11.302  16.463  0.00  0.00    +0.000 A 
ATOM     27  C   UNL     1      -3.362  10.702  16.411  0.00  0.00    +0.000 A 
ATOM     28 CL   UNL     1      -2.928   9.906  14.940  0.00  0.00    +0.000 Cl
ENDBRANCH  21  22
ENDBRANCH  20  21
ENDBRANCH   7  20
TORSDOF 4
ENDMDL
MODEL 4
REMARK VINA RESULT:      -8.3      6.455      8.854
REMARK  Name = 
REMARK  4 active torsions:
REMARK  status: ('A' for Active; 'I' for Inactive)
REMARK    1  A    between atoms: C_2  and  C_18
REMARK    2  A    between atoms: C_7  and  S_8
REMARK    3  A    between atoms: S_8  and  C_9
REMARK    4  A    between atoms: C_9  and  C_10
REMARK                            x       y       z     vdW  Elec       q    Type
REMARK                         _______ _______ _______ _____ _____    ______ ____
ROOT
ATOM      1  O   UNL     1       2.586   7.765  18.053  0.00  0.00    +0.000 OA
ATOM      2  C   UNL     1       2.381   6.894  18.891  0.00  0.00    +0.000 C 
ATOM      3  N   UNL     1       2.004   7.129  20.197  0.00  0.00    +0.000 N 
ATOM      4  C   UNL     1       1.588   8.342  20.701  0.00  0.00    +0.000 A 
ATOM      5  N   UNL     1       1.510   8.600  21.989  0.00  0.00    +0.000 NA
ATOM      6  N   UNL     1       1.010   9.872  22.238  0.00  0.00    +0.000 NA
ATOM      7  C   UNL     1       0.664  10.489  21.128  0.00  0.00    +0.000 A 
ATOM      8  S   UNL     1       1.003   9.599  19.702  0.00  0.00    +0.000 S 
ATOM      9  H   UNL     1       2.115   6.391  20.881  0.00  0.00    +0.000 HD
ENDROOT
BRANCH   2  10
ATOM     10  C   UNL     1       2.667   5.412  18.579  0.00  0.00    +0.000 C 
ATOM     11  C   UNL     1       3.343   4.728  19.767  0.00  0.00    +0.000 C 
ATOM     12  O   UNL     1       4.666   5.232  19.989  0.00  0.00    +0.000 OA
ATOM     13  C   UNL     1       5.350   5.431  18.821  0.00  0.00    +0.000 A 
ATOM     14  C   UNL     1       6.709   5.718  18.934  0.00  0.00    +0.000 A 
ATOM     15  C   UNL     1       7.477   5.917  17.786  0.00  0.00    +0.000 A 
ATOM     16  C   UNL     1       6.886   5.820  16.525  0.00  0.00    +0.000 A 
ATOM     17  C   UNL     1       5.521   5.552  16.411  0.00  0.00    +0.000 A 
ATOM     18  C   UNL     1       4.750   5.383  17.559  0.00  0.00    +0.000 A 
ATOM     19  O   UNL     1       3.403   5.201  17.374  0.00  0.00    +0.000 OA
ENDBRANCH   2  10
BRANCH   7  20
ATOM     20  S   UNL     1      -0.159  12.035  21.095  0.00  0.00    +0.000 S 
BRANCH  20  21
ATOM     21  C   UNL     1      -0.722  12.128  19.374  0.00  0.00    +0.000 C 
BRANCH  21  22
ATOM     22  C   UNL     1      -2.235  12.099  19.266  0.00  0.00    +0.000 A 
ATOM     23  C   UNL     1      -3.009  12.754  20.246  0.00  0.00    +0.000 A 
ATOM     24  C   UNL     1      -4.404  12.782  20.166  0.00  0.00    +0.000 A 
ATOM     25  C   UNL     1      -5.055  12.166  19.101  0.00  0.00    +0.000 A 
ATOM     26  C   UNL     1      -4.311  11.492  18.135  0.00  0.00    +0.000 A 
ATOM     27  C   UNL     1      -2.914  11.438  18.228  0.00  0.00    +0.000 A 
ATOM     28 CL   UNL     1      -2.078  10.523  17.024  0.00  0.00    +0.000 Cl
ENDBRANCH  21  22
ENDBRANCH  20  21
ENDBRANCH   7  20
TORSDOF 4
ENDMDL
MODEL 5
REMARK VINA RESULT:      -8.0      6.365      8.774
REMARK  Name = 
REMARK  4 active torsions:
REMARK  status: ('A' for Active; 'I' for Inactive)
REMARK    1  A    between atoms: C_2  and  C_18
REMARK    2  A    between atoms: C_7  and  S_8
REMARK    3  A    between atoms: S_8  and  C_9
REMARK    4  A    between atoms: C_9  and  C_10
REMARK                            x       y       z     vdW  Elec       q    Type
REMARK                         _______ _______ _______ _____ _____    ______ ____
ROOT
ATOM      1  O   UNL     1       3.022   7.554  17.464  0.00  0.00    +0.000 OA
ATOM      2  C   UNL     1       2.599   6.796  18.329  0.00  0.00    +0.000 C 
ATOM      3  N   UNL     1       1.990   7.195  19.501  0.00  0.00    +0.000 N 
ATOM      4  C   UNL     1       1.566   8.476  19.781  0.00  0.00    +0.000 A 
ATOM      5  N   UNL     1       1.254   8.883  20.993  0.00  0.00    +0.000 NA
ATOM      6  N   UNL     1       0.801  10.197  21.003  0.00  0.00    +0.000 NA
ATOM      7  C   UNL     1       0.722  10.697  19.788  0.00  0.00    +0.000 A 
ATOM      8  S   UNL     1       1.273   9.634  18.560  0.00  0.00    +0.000 S 
ATOM      9  H   UNL     1       1.915   6.537  20.265  0.00  0.00    +0.000 HD
ENDROOT
BRANCH   2  10
ATOM     10  C   UNL     1       2.841   5.276  18.237  0.00  0.00    +0.000 C 
ATOM     11  C   UNL     1       3.223   4.703  19.601  0.00  0.00    +0.000 C 
ATOM     12  O   UNL     1       4.507   5.170  20.034  0.00  0.00    +0.000 OA
ATOM     13  C   UNL     1       5.419   5.202  19.014  0.00  0.00    +0.000 A 
ATOM     14  C   UNL     1       6.745   5.439  19.371  0.00  0.00    +0.000 A 
ATOM     15  C   UNL     1       7.735   5.470  18.388  0.00  0.00    +0.000 A 
ATOM     16  C   UNL     1       7.399   5.256  17.050  0.00  0.00    +0.000 A 
ATOM     17  C   UNL     1       6.068   5.037  16.690  0.00  0.00    +0.000 A 
ATOM     18  C   UNL     1       5.077   5.037  17.669  0.00  0.00    +0.000 A 
ATOM     19  O   UNL     1       3.784   4.895  17.234  0.00  0.00    +0.000 OA
ENDBRANCH   2  10
BRANCH   7  20
ATOM     20  S   UNL     1       0.027  12.265  19.429  0.00  0.00    +0.000 S 
BRANCH  20  21
ATOM     21  C   UNL     1      -1.715  12.018  19.870  0.00  0.00    +0.000 C 
BRANCH  21  22
ATOM     22  C   UNL     1      -2.572  11.705  18.658  0.00  0.00    +0.000 A 
ATOM     23  C   UNL     1      -1.953  11.267  17.470  0.00  0.00    +0.000 A 
ATOM     24  C   UNL     1      -2.708  10.934  16.341  0.00  0.00    +0.000 A 
ATOM     25  C   UNL     1      -4.096  11.022  16.379  0.00  0.00    +0.000 A 
ATOM     26  C   UNL     1      -4.727  11.478  17.534  0.00  0.00    +0.000 A 
ATOM     27  C   UNL     1      -3.971  11.839  18.658  0.00  0.00    +0.000 A 
ATOM     28 CL   UNL     1      -4.832  12.456  20.022  0.00  0.00    +0.000 Cl
ENDBRANCH  21  22
ENDBRANCH  20  21
ENDBRANCH   7  20
TORSDOF 4
ENDMDL
MODEL 6
REMARK VINA RESULT:      -7.9      5.813      8.115
REMARK  Name = 
REMARK  4 active torsions:
REMARK  status: ('A' for Active; 'I' for Inactive)
REMARK    1  A    between atoms: C_2  and  C_18
REMARK    2  A    between atoms: C_7  and  S_8
REMARK    3  A    between atoms: S_8  and  C_9
REMARK    4  A    between atoms: C_9  and  C_10
REMARK                            x       y       z     vdW  Elec       q    Type
REMARK                         _______ _______ _______ _____ _____    ______ ____
ROOT
ATOM      1  O   UNL     1       2.165   4.917  19.292  0.00  0.00    +0.000 OA
ATOM      2  C   UNL     1       2.839   5.397  18.388  0.00  0.00    +0.000 C 
ATOM      3  N   UNL     1       2.776   6.710  17.968  0.00  0.00    +0.000 N 
ATOM      4  C   UNL     1       2.123   7.727  18.629  0.00  0.00    +0.000 A 
ATOM      5  N   UNL     1       1.842   8.886  18.072  0.00  0.00    +0.000 NA
ATOM      6  N   UNL     1       1.232   9.760  18.963  0.00  0.00    +0.000 NA
ATOM      7  C   UNL     1       1.148   9.249  20.172  0.00  0.00    +0.000 A 
ATOM      8  S   UNL     1       1.726   7.638  20.289  0.00  0.00    +0.000 S 
ATOM      9  H   UNL     1       3.156   6.955  17.062  0.00  0.00    +0.000 HD
ENDROOT
BRANCH   2  10
ATOM     10  C   UNL     1       3.753   4.507  17.522  0.00  0.00    +0.000 C 
ATOM     11  C   UNL     1       4.484   3.478  18.384  0.00  0.00    +0.000 C 
ATOM     12  O   UNL     1       5.434   4.095  19.260  0.00  0.00    +0.000 OA
ATOM     13  C   UNL     1       6.127   5.105  18.648  0.00  0.00    +0.000 A 
ATOM     14  C   UNL     1       7.215   5.626  19.345  0.00  0.00    +0.000 A 
ATOM     15  C   UNL     1       7.980   6.646  18.778  0.00  0.00    +0.000 A 
ATOM     16  C   UNL     1       7.660   7.138  17.512  0.00  0.00    +0.000 A 
ATOM     17  C   UNL     1       6.559   6.629  16.821  0.00  0.00    +0.000 A 
ATOM     18  C   UNL     1       5.778   5.632  17.402  0.00  0.00    +0.000 A 
ATOM     19  O   UNL     1       4.667   5.236  16.702  0.00  0.00    +0.000 OA
ENDBRANCH   2  10
BRANCH   7  20
ATOM     20  S   UNL     1       0.592  10.148  21.569  0.00  0.00    +0.000 S 
BRANCH  20  21
ATOM     21  C   UNL     1       0.372  11.813  20.885  0.00  0.00    +0.000 C 
BRANCH  21  22
ATOM     22  C   UNL     1      -1.092  12.158  20.684  0.00  0.00    +0.000 A 
ATOM     23  C   UNL     1      -1.714  11.842  19.459  0.00  0.00    +0.000 A 
ATOM     24  C   UNL     1      -3.069  12.111  19.245  0.00  0.00    +0.000 A 
ATOM     25  C   UNL     1      -3.834  12.690  20.254  0.00  0.00    +0.000 A 
ATOM     26  C   UNL     1      -3.233  13.033  21.463  0.00  0.00    +0.000 A 
ATOM     27  C   UNL     1      -1.868  12.791  21.670  0.00  0.00    +0.000 A 
ATOM     28 CL   UNL     1      -1.195  13.311  23.174  0.00  0.00    +0.000 Cl
ENDBRANCH  21  22
ENDBRANCH  20  21
ENDBRANCH   7  20
TORSDOF 4
ENDMDL
MODEL 7
REMARK VINA RESULT:      -7.9      5.876      8.283
REMARK  Name = 
REMARK  4 active torsions:
REMARK  status: ('A' for Active; 'I' for Inactive)
REMARK    1  A    between atoms: C_2  and  C_18
REMARK    2  A    between atoms: C_7  and  S_8
REMARK    3  A    between atoms: S_8  and  C_9
REMARK    4  A    between atoms: C_9  and  C_10
REMARK                            x       y       z     vdW  Elec       q    Type
REMARK                         _______ _______ _______ _____ _____    ______ ____
ROOT
ATOM      1  O   UNL     1       1.984   5.007  19.644  0.00  0.00    +0.000 OA
ATOM      2  C   UNL     1       2.786   5.210  18.741  0.00  0.00    +0.000 C 
ATOM      3  N   UNL     1       2.888   6.385  18.025  0.00  0.00    +0.000 N 
ATOM      4  C   UNL     1       2.270   7.573  18.351  0.00  0.00    +0.000 A 
ATOM      5  N   UNL     1       2.156   8.580  17.513  0.00  0.00    +0.000 NA
ATOM      6  N   UNL     1       1.545   9.682  18.099  0.00  0.00    +0.000 NA
ATOM      7  C   UNL     1       1.293   9.482  19.375  0.00  0.00    +0.000 A 
ATOM      8  S   UNL     1       1.704   7.910  19.927  0.00  0.00    +0.000 S 
ATOM      9  H   UNL     1       3.378   6.380  17.139  0.00  0.00    +0.000 HD
ENDROOT
BRANCH   2  10
ATOM     10  C   UNL     1       3.695   4.079  18.219  0.00  0.00    +0.000 C 
ATOM     11  C   UNL     1       4.480   3.441  19.364  0.00  0.00    +0.000 C 
ATOM     12  O   UNL     1       5.443   4.346  19.918  0.00  0.00    +0.000 OA
ATOM     13  C   UNL     1       6.087   5.075  18.956  0.00  0.00    +0.000 A 
ATOM     14  C   UNL     1       7.183   5.827  19.372  0.00  0.00    +0.000 A 
ATOM     15  C   UNL     1       7.902   6.582  18.445  0.00  0.00    +0.000 A 
ATOM     16  C   UNL     1       7.527   6.578  17.100  0.00  0.00    +0.000 A 
ATOM     17  C   UNL     1       6.417   5.840  16.686  0.00  0.00    +0.000 A 
ATOM     18  C   UNL     1       5.683   5.110  17.618  0.00  0.00    +0.000 A 
ATOM     19  O   UNL     1       4.561   4.473  17.154  0.00  0.00    +0.000 OA
ENDBRANCH   2  10
BRANCH   7  20
ATOM     20  S   UNL     1       0.688  10.725  20.451  0.00  0.00    +0.000 S 
BRANCH  20  21
ATOM     21  C   UNL     1       0.007  11.936  19.285  0.00  0.00    +0.000 C 
BRANCH  21  22
ATOM     22  C   UNL     1      -1.505  12.031  19.379  0.00  0.00    +0.000 A 
ATOM     23  C   UNL     1      -2.085  12.783  20.421  0.00  0.00    +0.000 A 
ATOM     24  C   UNL     1      -3.471  12.926  20.524  0.00  0.00    +0.000 A 
ATOM     25  C   UNL     1      -4.307  12.331  19.583  0.00  0.00    +0.000 A 
ATOM     26  C   UNL     1      -3.755  11.562  18.560  0.00  0.00    +0.000 A 
ATOM     27  C   UNL     1      -2.367  11.394  18.471  0.00  0.00    +0.000 A 
ATOM     28 CL   UNL     1      -1.777  10.370  17.211  0.00  0.00    +0.000 Cl
ENDBRANCH  21  22
ENDBRANCH  20  21
ENDBRANCH   7  20
TORSDOF 4
ENDMDL
MODEL 8
REMARK VINA RESULT:      -7.9      5.886      8.207
REMARK  Name = 
REMARK  4 active torsions:
REMARK  status: ('A' for Active; 'I' for Inactive)
REMARK    1  A    between atoms: C_2  and  C_18
REMARK    2  A    between atoms: C_7  and  S_8
REMARK    3  A    between atoms: S_8  and  C_9
REMARK    4  A    between atoms: C_9  and  C_10
REMARK                            x       y       z     vdW  Elec       q    Type
REMARK                         _______ _______ _______ _____ _____    ______ ____
ROOT
ATOM      1  O   UNL     1       2.127   4.760  19.527  0.00  0.00    +0.000 OA
ATOM      2  C   UNL     1       2.755   5.264  18.604  0.00  0.00    +0.000 C 
ATOM      3  N   UNL     1       2.661   6.584  18.213  0.00  0.00    +0.000 N 
ATOM      4  C   UNL     1       2.029   7.582  18.923  0.00  0.00    +0.000 A 
ATOM      5  N   UNL     1       1.713   8.748  18.402  0.00  0.00    +0.000 NA
ATOM      6  N   UNL     1       1.136   9.599  19.336  0.00  0.00    +0.000 NA
ATOM      7  C   UNL     1       1.111   9.063  20.538  0.00  0.00    +0.000 A 
ATOM      8  S   UNL     1       1.708   7.456  20.596  0.00  0.00    +0.000 S 
ATOM      9  H   UNL     1       2.998   6.850  17.297  0.00  0.00    +0.000 HD
ENDROOT
BRANCH   2  10
ATOM     10  C   UNL     1       3.638   4.400  17.681  0.00  0.00    +0.000 C 
ATOM     11  C   UNL     1       4.428   3.373  18.491  0.00  0.00    +0.000 C 
ATOM     12  O   UNL     1       5.413   3.996  19.325  0.00  0.00    +0.000 OA
ATOM     13  C   UNL     1       6.057   5.024  18.692  0.00  0.00    +0.000 A 
ATOM     14  C   UNL     1       7.171   5.555  19.338  0.00  0.00    +0.000 A 
ATOM     15  C   UNL     1       7.889   6.595  18.746  0.00  0.00    +0.000 A 
ATOM     16  C   UNL     1       7.496   7.096  17.504  0.00  0.00    +0.000 A 
ATOM     17  C   UNL     1       6.369   6.577  16.865  0.00  0.00    +0.000 A 
ATOM     18  C   UNL     1       5.636   5.560  17.471  0.00  0.00    +0.000 A 
ATOM     19  O   UNL     1       4.497   5.154  16.824  0.00  0.00    +0.000 OA
ENDBRANCH   2  10
BRANCH   7  20
ATOM     20  S   UNL     1       0.610   9.930  21.976  0.00  0.00    +0.000 S 
BRANCH  20  21
ATOM     21  C   UNL     1       0.306  11.596  21.328  0.00  0.00    +0.000 C 
BRANCH  21  22
ATOM     22  C   UNL     1      -1.019  12.161  21.805  0.00  0.00    +0.000 A 
ATOM     23  C   UNL     1      -1.663  11.569  22.910  0.00  0.00    +0.000 A 
ATOM     24  C   UNL     1      -2.867  12.080  23.404  0.00  0.00    +0.000 A 
ATOM     25  C   UNL     1      -3.447  13.198  22.811  0.00  0.00    +0.000 A 
ATOM     26  C   UNL     1      -2.840  13.782  21.701  0.00  0.00    +0.000 A 
ATOM     27  C   UNL     1      -1.648  13.255  21.187  0.00  0.00    +0.000 A 
ATOM     28 CL   UNL     1      -1.003  14.002  19.769  0.00  0.00    +0.000 Cl
ENDBRANCH  21  22
ENDBRANCH  20  21
ENDBRANCH   7  20
TORSDOF 4
ENDMDL
MODEL 9
REMARK VINA RESULT:      -7.9      6.018      6.984
REMARK  Name = 
REMARK  4 active torsions:
REMARK  status: ('A' for Active; 'I' for Inactive)
REMARK    1  A    between atoms: C_2  and  C_18
REMARK    2  A    between atoms: C_7  and  S_8
REMARK    3  A    between atoms: S_8  and  C_9
REMARK    4  A    between atoms: C_9  and  C_10
REMARK                            x       y       z     vdW  Elec       q    Type
REMARK                         _______ _______ _______ _____ _____    ______ ____
ROOT
ATOM      1  O   UNL     1       2.623   7.735  17.940  0.00  0.00    +0.000 OA
ATOM      2  C   UNL     1       2.407   6.871  18.781  0.00  0.00    +0.000 C 
ATOM      3  N   UNL     1       2.023   7.115  20.084  0.00  0.00    +0.000 N 
ATOM      4  C   UNL     1       1.611   8.333  20.578  0.00  0.00    +0.000 A 
ATOM      5  N   UNL     1       1.526   8.599  21.864  0.00  0.00    +0.000 NA
ATOM      6  N   UNL     1       1.033   9.876  22.103  0.00  0.00    +0.000 NA
ATOM      7  C   UNL     1       0.698  10.488  20.987  0.00  0.00    +0.000 A 
ATOM      8  S   UNL     1       1.040   9.588  19.568  0.00  0.00    +0.000 S 
ATOM      9  H   UNL     1       2.125   6.380  20.772  0.00  0.00    +0.000 HD
ENDROOT
BRANCH   2  10
ATOM     10  C   UNL     1       2.685   5.384  18.480  0.00  0.00    +0.000 C 
ATOM     11  C   UNL     1       3.271   4.683  19.704  0.00  0.00    +0.000 C 
ATOM     12  O   UNL     1       4.585   5.161  20.015  0.00  0.00    +0.000 OA
ATOM     13  C   UNL     1       5.347   5.353  18.895  0.00  0.00    +0.000 A 
ATOM     14  C   UNL     1       6.701   5.614  19.098  0.00  0.00    +0.000 A 
ATOM     15  C   UNL     1       7.545   5.804  18.004  0.00  0.00    +0.000 A 
ATOM     16  C   UNL     1       7.036   5.725  16.707  0.00  0.00    +0.000 A 
ATOM     17  C   UNL     1       5.676   5.483  16.503  0.00  0.00    +0.000 A 
ATOM     18  C   UNL     1       4.829   5.323  17.597  0.00  0.00    +0.000 A 
ATOM     19  O   UNL     1       3.495   5.166  17.323  0.00  0.00    +0.000 OA
ENDBRANCH   2  10
BRANCH   7  20
ATOM     20  S   UNL     1      -0.115  12.040  20.940  0.00  0.00    +0.000 S 
BRANCH  20  21
ATOM     21  C   UNL     1      -0.037  12.455  19.176  0.00  0.00    +0.000 C 
BRANCH  21  22
ATOM     22  C   UNL     1       1.026  13.497  18.882  0.00  0.00    +0.000 A 
ATOM     23  C   UNL     1       2.311  13.079  18.482  0.00  0.00    +0.000 A 
ATOM     24  C   UNL     1       3.308  14.007  18.167  0.00  0.00    +0.000 A 
ATOM     25  C   UNL     1       3.039  15.371  18.234  0.00  0.00    +0.000 A 
ATOM     26  C   UNL     1       1.784  15.806  18.652  0.00  0.00    +0.000 A 
ATOM     27  C   UNL     1       0.791  14.878  18.995  0.00  0.00    +0.000 A 
ATOM     28 CL   UNL     1      -0.713  15.509  19.567  0.00  0.00    +0.000 Cl
ENDBRANCH  21  22
ENDBRANCH  20  21
ENDBRANCH   7  20
TORSDOF 4
ENDMDL
