MODEL 1
REMARK VINA RESULT:      -8.2      0.000      0.000
REMARK  Name = 
REMARK  6 active torsions:
REMARK  status: ('A' for Active; 'I' for Inactive)
REMARK    1  A    between atoms: C_1  and  C_2
REMARK    2  A    between atoms: C_3  and  C_4
REMARK    3  A    between atoms: N_10  and  C_11
REMARK    4  A    between atoms: N_15  and  C_16
REMARK    5  A    between atoms: C_16  and  C_17
REMARK    6  A    between atoms: C_21  and  C_22
REMARK                            x       y       z     vdW  Elec       q    Type
REMARK                         _______ _______ _______ _____ _____    ______ ____
ROOT
ATOM      1  C   UNL     1       4.600   7.094  17.525  0.00  0.00    +0.000 C 
ATOM      2  C   UNL     1       5.698   6.160  17.154  0.00  0.00    +0.000 A 
ATOM      3  C   UNL     1       7.072   6.233  17.339  0.00  0.00    +0.000 A 
ATOM      4  N   UNL     1       7.685   5.125  16.775  0.00  0.00    +0.000 NA
ATOM      5  C   UNL     1       6.702   4.372  16.327  0.00  0.00    +0.000 A 
ATOM      6  N   UNL     1       5.479   4.953  16.533  0.00  0.00    +0.000 N 
ENDROOT
BRANCH   3   7
ATOM      7  C   UNL     1       7.788   7.305  18.057  0.00  0.00    +0.000 C 
ATOM      8  O   UNL     1       8.394   7.054  19.093  0.00  0.00    +0.000 OA
ATOM      9  N   UNL     1       7.671   8.545  17.463  0.00  0.00    +0.000 N 
ATOM     10  C   UNL     1       8.322   9.666  17.948  0.00  0.00    +0.000 A 
ATOM     11  C   UNL     1       8.080  11.004  17.552  0.00  0.00    +0.000 A 
ATOM     12  C   UNL     1       8.942  11.771  18.310  0.00  0.00    +0.000 A 
ATOM     13  N   UNL     1       9.663  10.884  19.049  0.00  0.00    +0.000 N 
ATOM     14  C   UNL     1      10.759  11.153  19.947  0.00  0.00    +0.000 C 
ATOM     15  N   UNL     1       9.294   9.617  18.856  0.00  0.00    +0.000 NA
ATOM     16  H   UNL     1       7.052   8.631  16.670  0.00  0.00    +0.000 HD
ENDBRANCH   3   7
BRANCH   6  17
ATOM     17  C   UNL     1       4.188   4.329  16.275  0.00  0.00    +0.000 C 
BRANCH  17  18
ATOM     18  C   UNL     1       3.654   3.564  17.463  0.00  0.00    +0.000 A 
ATOM     19  C   UNL     1       3.842   2.177  17.564  0.00  0.00    +0.000 A 
ATOM     20  C   UNL     1       3.322   1.463  18.647  0.00  0.00    +0.000 A 
ATOM     21  C   UNL     1       2.607   2.124  19.643  0.00  0.00    +0.000 A 
ATOM     22  C   UNL     1       2.402   3.508  19.566  0.00  0.00    +0.000 A 
ATOM     23  C   UNL     1       2.925   4.216  18.470  0.00  0.00    +0.000 A 
BRANCH  22  24
ATOM     24  C   UNL     1       1.635   4.247  20.635  0.00  0.00    +0.000 C 
ATOM     25  F   UNL     1       1.993   5.555  20.764  0.00  0.00    +0.000 F 
ATOM     26  F   UNL     1       0.293   4.247  20.404  0.00  0.00    +0.000 F 
ATOM     27  F   UNL     1       1.801   3.691  21.867  0.00  0.00    +0.000 F 
ENDBRANCH  22  24
ENDBRANCH  17  18
ENDBRANCH   6  17
TORSDOF 4
ENDMDL
MODEL 2
REMARK VINA RESULT:      -8.0      1.350      1.878
REMARK  Name = 
REMARK  6 active torsions:
REMARK  status: ('A' for Active; 'I' for Inactive)
REMARK    1  A    between atoms: C_1  and  C_2
REMARK    2  A    between atoms: C_3  and  C_4
REMARK    3  A    between atoms: N_10  and  C_11
REMARK    4  A    between atoms: N_15  and  C_16
REMARK    5  A    between atoms: C_16  and  C_17
REMARK    6  A    between atoms: C_21  and  C_22
REMARK                            x       y       z     vdW  Elec       q    Type
REMARK                         _______ _______ _______ _____ _____    ______ ____
ROOT
ATOM      1  C   UNL     1       7.117   5.357  19.506  0.00  0.00    +0.000 C 
ATOM      2  C   UNL     1       6.661   5.990  18.238  0.00  0.00    +0.000 A 
ATOM      3  C   UNL     1       6.977   7.207  17.650  0.00  0.00    +0.000 A 
ATOM      4  N   UNL     1       6.255   7.368  16.478  0.00  0.00    +0.000 NA
ATOM      5  C   UNL     1       5.578   6.248  16.329  0.00  0.00    +0.000 A 
ATOM      6  N   UNL     1       5.790   5.381  17.366  0.00  0.00    +0.000 N 
ENDROOT
BRANCH   3   7
ATOM      7  C   UNL     1       7.960   8.181  18.164  0.00  0.00    +0.000 C 
ATOM      8  O   UNL     1       8.819   7.825  18.964  0.00  0.00    +0.000 OA
ATOM      9  N   UNL     1       7.781   9.459  17.678  0.00  0.00    +0.000 N 
ATOM     10  C   UNL     1       8.639  10.500  17.989  0.00  0.00    +0.000 A 
ATOM     11  C   UNL     1       8.407  11.874  17.732  0.00  0.00    +0.000 A 
ATOM     12  C   UNL     1       9.515  12.530  18.229  0.00  0.00    +0.000 A 
ATOM     13  N   UNL     1      10.342  11.552  18.688  0.00  0.00    +0.000 N 
ATOM     14  C   UNL     1      11.671  11.688  19.231  0.00  0.00    +0.000 C 
ATOM     15  N   UNL     1       9.826  10.328  18.567  0.00  0.00    +0.000 NA
ATOM     16  H   UNL     1       6.967   9.637  17.106  0.00  0.00    +0.000 HD
ENDBRANCH   3   7
BRANCH   6  17
ATOM     17  C   UNL     1       5.297   4.011  17.443  0.00  0.00    +0.000 C 
BRANCH  17  18
ATOM     18  C   UNL     1       3.908   3.917  18.029  0.00  0.00    +0.000 A 
ATOM     19  C   UNL     1       2.779   4.183  17.239  0.00  0.00    +0.000 A 
ATOM     20  C   UNL     1       1.495   4.127  17.787  0.00  0.00    +0.000 A 
ATOM     21  C   UNL     1       1.320   3.805  19.131  0.00  0.00    +0.000 A 
ATOM     22  C   UNL     1       2.430   3.537  19.944  0.00  0.00    +0.000 A 
ATOM     23  C   UNL     1       3.718   3.602  19.384  0.00  0.00    +0.000 A 
BRANCH  22  24
ATOM     24  C   UNL     1       2.267   3.182  21.401  0.00  0.00    +0.000 C 
ATOM     25  F   UNL     1       1.042   2.671  21.708  0.00  0.00    +0.000 F 
ATOM     26  F   UNL     1       3.174   2.254  21.814  0.00  0.00    +0.000 F 
ATOM     27  F   UNL     1       2.438   4.258  22.217  0.00  0.00    +0.000 F 
ENDBRANCH  22  24
ENDBRANCH  17  18
ENDBRANCH   6  17
TORSDOF 4
ENDMDL
MODEL 3
REMARK VINA RESULT:      -7.9      6.559      9.233
REMARK  Name = 
REMARK  6 active torsions:
REMARK  status: ('A' for Active; 'I' for Inactive)
REMARK    1  A    between atoms: C_1  and  C_2
REMARK    2  A    between atoms: C_3  and  C_4
REMARK    3  A    between atoms: N_10  and  C_11
REMARK    4  A    between atoms: N_15  and  C_16
REMARK    5  A    between atoms: C_16  and  C_17
REMARK    6  A    between atoms: C_21  and  C_22
REMARK                            x       y       z     vdW  Elec       q    Type
REMARK                         _______ _______ _______ _____ _____    ______ ____
ROOT
ATOM      1  C   UNL     1       1.231   9.167  17.992  0.00  0.00    +0.000 C 
ATOM      2  C   UNL     1       1.172   9.172  19.479  0.00  0.00    +0.000 A 
ATOM      3  C   UNL     1       1.522   8.211  20.419  0.00  0.00    +0.000 A 
ATOM      4  N   UNL     1       1.240   8.672  21.695  0.00  0.00    +0.000 NA
ATOM      5  C   UNL     1       0.800   9.903  21.532  0.00  0.00    +0.000 A 
ATOM      6  N   UNL     1       0.741  10.254  20.210  0.00  0.00    +0.000 N 
ENDROOT
BRANCH   3   7
ATOM      7  C   UNL     1       2.137   6.903  20.123  0.00  0.00    +0.000 C 
ATOM      8  O   UNL     1       3.140   6.839  19.421  0.00  0.00    +0.000 OA
ATOM      9  N   UNL     1       1.465   5.835  20.681  0.00  0.00    +0.000 N 
ATOM     10  C   UNL     1       1.919   4.532  20.573  0.00  0.00    +0.000 A 
ATOM     11  C   UNL     1       1.188   3.365  20.904  0.00  0.00    +0.000 A 
ATOM     12  C   UNL     1       2.031   2.311  20.617  0.00  0.00    +0.000 A 
ATOM     13  N   UNL     1       3.194   2.879  20.198  0.00  0.00    +0.000 N 
ATOM     14  C   UNL     1       4.433   2.227  19.854  0.00  0.00    +0.000 C 
ATOM     15  N   UNL     1       3.141   4.211  20.150  0.00  0.00    +0.000 NA
ATOM     16  H   UNL     1       0.589   6.021  21.148  0.00  0.00    +0.000 HD
ENDBRANCH   3   7
BRANCH   6  17
ATOM     17  C   UNL     1       0.423  11.580  19.696  0.00  0.00    +0.000 C 
BRANCH  17  18
ATOM     18  C   UNL     1      -1.037  11.742  19.344  0.00  0.00    +0.000 A 
ATOM     19  C   UNL     1      -1.921  12.375  20.232  0.00  0.00    +0.000 A 
ATOM     20  C   UNL     1      -3.278  12.498  19.922  0.00  0.00    +0.000 A 
ATOM     21  C   UNL     1      -3.771  11.990  18.722  0.00  0.00    +0.000 A 
ATOM     22  C   UNL     1      -2.911  11.352  17.818  0.00  0.00    +0.000 A 
ATOM     23  C   UNL     1      -1.549  11.228  18.143  0.00  0.00    +0.000 A 
BRANCH  22  24
ATOM     24  C   UNL     1      -3.420  10.799  16.510  0.00  0.00    +0.000 C 
ATOM     25  F   UNL     1      -4.742  11.039  16.289  0.00  0.00    +0.000 F 
ATOM     26  F   UNL     1      -2.761  11.316  15.436  0.00  0.00    +0.000 F 
ATOM     27  F   UNL     1      -3.267   9.448  16.426  0.00  0.00    +0.000 F 
ENDBRANCH  22  24
ENDBRANCH  17  18
ENDBRANCH   6  17
TORSDOF 4
ENDMDL
MODEL 4
REMARK VINA RESULT:      -7.9      1.604      2.203
REMARK  Name = 
REMARK  6 active torsions:
REMARK  status: ('A' for Active; 'I' for Inactive)
REMARK    1  A    between atoms: C_1  and  C_2
REMARK    2  A    between atoms: C_3  and  C_4
REMARK    3  A    between atoms: N_10  and  C_11
REMARK    4  A    between atoms: N_15  and  C_16
REMARK    5  A    between atoms: C_16  and  C_17
REMARK    6  A    between atoms: C_21  and  C_22
REMARK                            x       y       z     vdW  Elec       q    Type
REMARK                         _______ _______ _______ _____ _____    ______ ____
ROOT
ATOM      1  C   UNL     1       5.919   6.352  15.983  0.00  0.00    +0.000 C 
ATOM      2  C   UNL     1       6.592   5.992  17.261  0.00  0.00    +0.000 A 
ATOM      3  C   UNL     1       7.457   6.705  18.080  0.00  0.00    +0.000 A 
ATOM      4  N   UNL     1       7.853   5.918  19.149  0.00  0.00    +0.000 NA
ATOM      5  C   UNL     1       7.188   4.788  19.016  0.00  0.00    +0.000 A 
ATOM      6  N   UNL     1       6.410   4.783  17.890  0.00  0.00    +0.000 N 
ENDROOT
BRANCH   3   7
ATOM      7  C   UNL     1       7.876   8.105  17.875  0.00  0.00    +0.000 C 
ATOM      8  O   UNL     1       7.578   8.692  16.841  0.00  0.00    +0.000 OA
ATOM      9  N   UNL     1       8.617   8.621  18.919  0.00  0.00    +0.000 N 
ATOM     10  C   UNL     1       9.047   9.936  18.947  0.00  0.00    +0.000 A 
ATOM     11  C   UNL     1       9.995  10.482  19.846  0.00  0.00    +0.000 A 
ATOM     12  C   UNL     1      10.119  11.808  19.486  0.00  0.00    +0.000 A 
ATOM     13  N   UNL     1       9.236  11.993  18.467  0.00  0.00    +0.000 N 
ATOM     14  C   UNL     1       8.906  13.218  17.782  0.00  0.00    +0.000 C 
ATOM     15  N   UNL     1       8.595  10.876  18.120  0.00  0.00    +0.000 NA
ATOM     16  H   UNL     1       8.882   7.993  19.665  0.00  0.00    +0.000 HD
ENDBRANCH   3   7
BRANCH   6  17
ATOM     17  C   UNL     1       5.457   3.744  17.521  0.00  0.00    +0.000 C 
BRANCH  17  18
ATOM     18  C   UNL     1       4.097   3.943  18.147  0.00  0.00    +0.000 A 
ATOM     19  C   UNL     1       3.097   4.662  17.473  0.00  0.00    +0.000 A 
ATOM     20  C   UNL     1       1.849   4.874  18.063  0.00  0.00    +0.000 A 
ATOM     21  C   UNL     1       1.581   4.371  19.335  0.00  0.00    +0.000 A 
ATOM     22  C   UNL     1       2.562   3.651  20.031  0.00  0.00    +0.000 A 
ATOM     23  C   UNL     1       3.816   3.450  19.430  0.00  0.00    +0.000 A 
BRANCH  22  24
ATOM     24  C   UNL     1       2.294   3.093  21.408  0.00  0.00    +0.000 C 
ATOM     25  F   UNL     1       3.184   2.137  21.795  0.00  0.00    +0.000 F 
ATOM     26  F   UNL     1       2.332   4.053  22.373  0.00  0.00    +0.000 F 
ATOM     27  F   UNL     1       1.064   2.518  21.501  0.00  0.00    +0.000 F 
ENDBRANCH  22  24
ENDBRANCH  17  18
ENDBRANCH   6  17
TORSDOF 4
ENDMDL
MODEL 5
REMARK VINA RESULT:      -7.8      0.866      1.182
REMARK  Name = 
REMARK  6 active torsions:
REMARK  status: ('A' for Active; 'I' for Inactive)
REMARK    1  A    between atoms: C_1  and  C_2
REMARK    2  A    between atoms: C_3  and  C_4
REMARK    3  A    between atoms: N_10  and  C_11
REMARK    4  A    between atoms: N_15  and  C_16
REMARK    5  A    between atoms: C_16  and  C_17
REMARK    6  A    between atoms: C_21  and  C_22
REMARK                            x       y       z     vdW  Elec       q    Type
REMARK                         _______ _______ _______ _____ _____    ______ ____
ROOT
ATOM      1  C   UNL     1       4.662   6.713  18.332  0.00  0.00    +0.000 C 
ATOM      2  C   UNL     1       5.687   6.164  17.402  0.00  0.00    +0.000 A 
ATOM      3  C   UNL     1       7.010   6.517  17.178  0.00  0.00    +0.000 A 
ATOM      4  N   UNL     1       7.546   5.730  16.171  0.00  0.00    +0.000 NA
ATOM      5  C   UNL     1       6.593   4.879  15.849  0.00  0.00    +0.000 A 
ATOM      6  N   UNL     1       5.448   5.099  16.566  0.00  0.00    +0.000 N 
ENDROOT
BRANCH   3   7
ATOM      7  C   UNL     1       7.762   7.550  17.917  0.00  0.00    +0.000 C 
ATOM      8  O   UNL     1       8.403   7.248  18.917  0.00  0.00    +0.000 OA
ATOM      9  N   UNL     1       7.637   8.816  17.383  0.00  0.00    +0.000 N 
ATOM     10  C   UNL     1       8.316   9.909  17.892  0.00  0.00    +0.000 A 
ATOM     11  C   UNL     1       8.074  11.266  17.565  0.00  0.00    +0.000 A 
ATOM     12  C   UNL     1       8.971  11.990  18.324  0.00  0.00    +0.000 A 
ATOM     13  N   UNL     1       9.709  11.065  18.996  0.00  0.00    +0.000 N 
ATOM     14  C   UNL     1      10.840  11.284  19.864  0.00  0.00    +0.000 C 
ATOM     15  N   UNL     1       9.321   9.811  18.761  0.00  0.00    +0.000 NA
ATOM     16  H   UNL     1       6.990   8.943  16.617  0.00  0.00    +0.000 HD
ENDBRANCH   3   7
BRANCH   6  17
ATOM     17  C   UNL     1       4.257   4.259  16.546  0.00  0.00    +0.000 C 
BRANCH  17  18
ATOM     18  C   UNL     1       3.930   3.667  17.897  0.00  0.00    +0.000 A 
ATOM     19  C   UNL     1       4.915   2.999  18.642  0.00  0.00    +0.000 A 
ATOM     20  C   UNL     1       4.607   2.423  19.877  0.00  0.00    +0.000 A 
ATOM     21  C   UNL     1       3.312   2.507  20.386  0.00  0.00    +0.000 A 
ATOM     22  C   UNL     1       2.309   3.166  19.661  0.00  0.00    +0.000 A 
ATOM     23  C   UNL     1       2.629   3.736  18.417  0.00  0.00    +0.000 A 
BRANCH  22  24
ATOM     24  C   UNL     1       0.901   3.274  20.193  0.00  0.00    +0.000 C 
ATOM     25  F   UNL     1      -0.030   2.664  19.409  0.00  0.00    +0.000 F 
ATOM     26  F   UNL     1       0.770   2.721  21.431  0.00  0.00    +0.000 F 
ATOM     27  F   UNL     1       0.495   4.567  20.318  0.00  0.00    +0.000 F 
ENDBRANCH  22  24
ENDBRANCH  17  18
ENDBRANCH   6  17
TORSDOF 4
ENDMDL
MODEL 6
REMARK VINA RESULT:      -7.8      5.013      7.070
REMARK  Name = 
REMARK  6 active torsions:
REMARK  status: ('A' for Active; 'I' for Inactive)
REMARK    1  A    between atoms: C_1  and  C_2
REMARK    2  A    between atoms: C_3  and  C_4
REMARK    3  A    between atoms: N_10  and  C_11
REMARK    4  A    between atoms: N_15  and  C_16
REMARK    5  A    between atoms: C_16  and  C_17
REMARK    6  A    between atoms: C_21  and  C_22
REMARK                            x       y       z     vdW  Elec       q    Type
REMARK                         _______ _______ _______ _____ _____    ______ ____
ROOT
ATOM      1  C   UNL     1       6.307   7.105  17.285  0.00  0.00    +0.000 C 
ATOM      2  C   UNL     1       5.257   6.050  17.238  0.00  0.00    +0.000 A 
ATOM      3  C   UNL     1       3.899   6.088  17.524  0.00  0.00    +0.000 A 
ATOM      4  N   UNL     1       3.348   4.826  17.371  0.00  0.00    +0.000 NA
ATOM      5  C   UNL     1       4.331   4.066  16.935  0.00  0.00    +0.000 A 
ATOM      6  N   UNL     1       5.508   4.759  16.837  0.00  0.00    +0.000 N 
ENDROOT
BRANCH   3   7
ATOM      7  C   UNL     1       3.133   7.292  17.901  0.00  0.00    +0.000 C 
ATOM      8  O   UNL     1       3.062   8.243  17.131  0.00  0.00    +0.000 OA
ATOM      9  N   UNL     1       2.568   7.219  19.158  0.00  0.00    +0.000 N 
ATOM     10  C   UNL     1       1.758   8.218  19.669  0.00  0.00    +0.000 A 
ATOM     11  C   UNL     1       1.333   8.338  21.014  0.00  0.00    +0.000 A 
ATOM     12  C   UNL     1       0.567   9.485  21.055  0.00  0.00    +0.000 A 
ATOM     13  N   UNL     1       0.531   9.944  19.774  0.00  0.00    +0.000 N 
ATOM     14  C   UNL     1      -0.203  11.069  19.249  0.00  0.00    +0.000 C 
ATOM     15  N   UNL     1       1.253   9.205  18.931  0.00  0.00    +0.000 NA
ATOM     16  H   UNL     1       2.795   6.418  19.731  0.00  0.00    +0.000 HD
ENDBRANCH   3   7
BRANCH   6  17
ATOM     17  C   UNL     1       6.749   4.250  16.268  0.00  0.00    +0.000 C 
BRANCH  17  18
ATOM     18  C   UNL     1       6.796   4.360  14.762  0.00  0.00    +0.000 A 
ATOM     19  C   UNL     1       7.800   5.112  14.131  0.00  0.00    +0.000 A 
ATOM     20  C   UNL     1       7.827   5.241  12.740  0.00  0.00    +0.000 A 
ATOM     21  C   UNL     1       6.853   4.622  11.960  0.00  0.00    +0.000 A 
ATOM     22  C   UNL     1       5.837   3.867  12.565  0.00  0.00    +0.000 A 
ATOM     23  C   UNL     1       5.816   3.749  13.965  0.00  0.00    +0.000 A 
BRANCH  22  24
ATOM     24  C   UNL     1       4.774   3.183  11.741  0.00  0.00    +0.000 C 
ATOM     25  F   UNL     1       4.403   3.883  10.633  0.00  0.00    +0.000 F 
ATOM     26  F   UNL     1       5.170   1.959  11.296  0.00  0.00    +0.000 F 
ATOM     27  F   UNL     1       3.631   2.971  12.449  0.00  0.00    +0.000 F 
ENDBRANCH  22  24
ENDBRANCH  17  18
ENDBRANCH   6  17
TORSDOF 4
ENDMDL
MODEL 7
REMARK VINA RESULT:      -7.7      5.251      7.209
REMARK  Name = 
REMARK  6 active torsions:
REMARK  status: ('A' for Active; 'I' for Inactive)
REMARK    1  A    between atoms: C_1  and  C_2
REMARK    2  A    between atoms: C_3  and  C_4
REMARK    3  A    between atoms: N_10  and  C_11
REMARK    4  A    between atoms: N_15  and  C_16
REMARK    5  A    between atoms: C_16  and  C_17
REMARK    6  A    between atoms: C_21  and  C_22
REMARK                            x       y       z     vdW  Elec       q    Type
REMARK                         _______ _______ _______ _____ _____    ______ ____
ROOT
ATOM      1  C   UNL     1       3.479   3.952  18.226  0.00  0.00    +0.000 C 
ATOM      2  C   UNL     1       4.000   5.223  17.652  0.00  0.00    +0.000 A 
ATOM      3  C   UNL     1       3.661   6.548  17.887  0.00  0.00    +0.000 A 
ATOM      4  N   UNL     1       4.407   7.380  17.068  0.00  0.00    +0.000 NA
ATOM      5  C   UNL     1       5.224   6.583  16.411  0.00  0.00    +0.000 A 
ATOM      6  N   UNL     1       5.019   5.267  16.729  0.00  0.00    +0.000 N 
ENDROOT
BRANCH   3   7
ATOM      7  C   UNL     1       2.678   7.021  18.881  0.00  0.00    +0.000 C 
ATOM      8  O   UNL     1       2.396   6.321  19.849  0.00  0.00    +0.000 OA
ATOM      9  N   UNL     1       2.139   8.256  18.586  0.00  0.00    +0.000 N 
ATOM     10  C   UNL     1       1.249   8.900  19.428  0.00  0.00    +0.000 A 
ATOM     11  C   UNL     1       0.475  10.041  19.105  0.00  0.00    +0.000 A 
ATOM     12  C   UNL     1      -0.269  10.311  20.235  0.00  0.00    +0.000 A 
ATOM     13  N   UNL     1       0.122   9.388  21.156  0.00  0.00    +0.000 N 
ATOM     14  C   UNL     1      -0.283   9.276  22.536  0.00  0.00    +0.000 C 
ATOM     15  N   UNL     1       1.021   8.523  20.685  0.00  0.00    +0.000 NA
ATOM     16  H   UNL     1       2.380   8.676  17.699  0.00  0.00    +0.000 HD
ENDBRANCH   3   7
BRANCH   6  17
ATOM     17  C   UNL     1       5.836   4.147  16.281  0.00  0.00    +0.000 C 
BRANCH  17  18
ATOM     18  C   UNL     1       6.144   4.195  14.803  0.00  0.00    +0.000 A 
ATOM     19  C   UNL     1       7.337   4.772  14.340  0.00  0.00    +0.000 A 
ATOM     20  C   UNL     1       7.609   4.846  12.971  0.00  0.00    +0.000 A 
ATOM     21  C   UNL     1       6.694   4.347  12.047  0.00  0.00    +0.000 A 
ATOM     22  C   UNL     1       5.494   3.769  12.482  0.00  0.00    +0.000 A 
ATOM     23  C   UNL     1       5.227   3.705  13.861  0.00  0.00    +0.000 A 
BRANCH  22  24
ATOM     24  C   UNL     1       4.489   3.217  11.501  0.00  0.00    +0.000 C 
ATOM     25  F   UNL     1       3.259   2.995  12.040  0.00  0.00    +0.000 F 
ATOM     26  F   UNL     1       4.289   4.048  10.441  0.00  0.00    +0.000 F 
ATOM     27  F   UNL     1       4.885   2.027  10.971  0.00  0.00    +0.000 F 
ENDBRANCH  22  24
ENDBRANCH  17  18
ENDBRANCH   6  17
TORSDOF 4
ENDMDL
MODEL 8
REMARK VINA RESULT:      -7.7      1.328      1.839
REMARK  Name = 
REMARK  6 active torsions:
REMARK  status: ('A' for Active; 'I' for Inactive)
REMARK    1  A    between atoms: C_1  and  C_2
REMARK    2  A    between atoms: C_3  and  C_4
REMARK    3  A    between atoms: N_10  and  C_11
REMARK    4  A    between atoms: N_15  and  C_16
REMARK    5  A    between atoms: C_16  and  C_17
REMARK    6  A    between atoms: C_21  and  C_22
REMARK                            x       y       z     vdW  Elec       q    Type
REMARK                         _______ _______ _______ _____ _____    ______ ____
ROOT
ATOM      1  C   UNL     1       7.887   5.808  19.613  0.00  0.00    +0.000 C 
ATOM      2  C   UNL     1       7.231   6.427  18.428  0.00  0.00    +0.000 A 
ATOM      3  C   UNL     1       7.360   7.686  17.857  0.00  0.00    +0.000 A 
ATOM      4  N   UNL     1       6.499   7.807  16.778  0.00  0.00    +0.000 NA
ATOM      5  C   UNL     1       5.921   6.629  16.660  0.00  0.00    +0.000 A 
ATOM      6  N   UNL     1       6.331   5.758  17.633  0.00  0.00    +0.000 N 
ENDROOT
BRANCH   3   7
ATOM      7  C   UNL     1       8.296   8.739  18.298  0.00  0.00    +0.000 C 
ATOM      8  O   UNL     1       9.158   8.486  19.133  0.00  0.00    +0.000 OA
ATOM      9  N   UNL     1       8.071   9.965  17.706  0.00  0.00    +0.000 N 
ATOM     10  C   UNL     1       8.881  11.063  17.939  0.00  0.00    +0.000 A 
ATOM     11  C   UNL     1       8.597  12.400  17.568  0.00  0.00    +0.000 A 
ATOM     12  C   UNL     1       9.670  13.140  18.019  0.00  0.00    +0.000 A 
ATOM     13  N   UNL     1      10.531  12.238  18.565  0.00  0.00    +0.000 N 
ATOM     14  C   UNL     1      11.846  12.474  19.107  0.00  0.00    +0.000 C 
ATOM     15  N   UNL     1      10.067  10.988  18.540  0.00  0.00    +0.000 NA
ATOM     16  H   UNL     1       7.257  10.061  17.115  0.00  0.00    +0.000 HD
ENDBRANCH   3   7
BRANCH   6  17
ATOM     17  C   UNL     1       5.985   4.345  17.710  0.00  0.00    +0.000 C 
BRANCH  17  18
ATOM     18  C   UNL     1       4.508   4.110  17.927  0.00  0.00    +0.000 A 
ATOM     19  C   UNL     1       3.739   3.447  16.958  0.00  0.00    +0.000 A 
ATOM     20  C   UNL     1       2.367   3.257  17.142  0.00  0.00    +0.000 A 
ATOM     21  C   UNL     1       1.744   3.727  18.296  0.00  0.00    +0.000 A 
ATOM     22  C   UNL     1       2.488   4.394  19.280  0.00  0.00    +0.000 A 
ATOM     23  C   UNL     1       3.866   4.585  19.081  0.00  0.00    +0.000 A 
BRANCH  22  24
ATOM     24  C   UNL     1       1.836   4.908  20.540  0.00  0.00    +0.000 C 
ATOM     25  F   UNL     1       1.902   6.260  20.681  0.00  0.00    +0.000 F 
ATOM     26  F   UNL     1       0.514   4.589  20.608  0.00  0.00    +0.000 F 
ATOM     27  F   UNL     1       2.403   4.387  21.663  0.00  0.00    +0.000 F 
ENDBRANCH  22  24
ENDBRANCH  17  18
ENDBRANCH   6  17
TORSDOF 4
ENDMDL
MODEL 9
REMARK VINA RESULT:      -7.7      5.224      7.034
REMARK  Name = 
REMARK  6 active torsions:
REMARK  status: ('A' for Active; 'I' for Inactive)
REMARK    1  A    between atoms: C_1  and  C_2
REMARK    2  A    between atoms: C_3  and  C_4
REMARK    3  A    between atoms: N_10  and  C_11
REMARK    4  A    between atoms: N_15  and  C_16
REMARK    5  A    between atoms: C_16  and  C_17
REMARK    6  A    between atoms: C_21  and  C_22
REMARK                            x       y       z     vdW  Elec       q    Type
REMARK                         _______ _______ _______ _____ _____    ______ ____
ROOT
ATOM      1  C   UNL     1       2.836   7.152  17.578  0.00  0.00    +0.000 C 
ATOM      2  C   UNL     1       2.510   6.415  18.830  0.00  0.00    +0.000 A 
ATOM      3  C   UNL     1       1.925   6.831  20.018  0.00  0.00    +0.000 A 
ATOM      4  N   UNL     1       1.869   5.775  20.914  0.00  0.00    +0.000 NA
ATOM      5  C   UNL     1       2.342   4.736  20.257  0.00  0.00    +0.000 A 
ATOM      6  N   UNL     1       2.742   5.070  18.991  0.00  0.00    +0.000 N 
ENDROOT
BRANCH   3   7
ATOM      7  C   UNL     1       1.401   8.184  20.291  0.00  0.00    +0.000 C 
ATOM      8  O   UNL     1       1.629   9.102  19.510  0.00  0.00    +0.000 OA
ATOM      9  N   UNL     1       0.694   8.277  21.472  0.00  0.00    +0.000 N 
ATOM     10  C   UNL     1       0.068   9.445  21.874  0.00  0.00    +0.000 A 
ATOM     11  C   UNL     1      -0.472   9.699  23.158  0.00  0.00    +0.000 A 
ATOM     12  C   UNL     1      -0.968  10.985  23.098  0.00  0.00    +0.000 A 
ATOM     13  N   UNL     1      -0.756  11.397  21.818  0.00  0.00    +0.000 N 
ATOM     14  C   UNL     1      -1.162  12.635  21.199  0.00  0.00    +0.000 C 
ATOM     15  N   UNL     1      -0.122  10.491  21.073  0.00  0.00    +0.000 NA
ATOM     16  H   UNL     1       0.673   7.467  22.075  0.00  0.00    +0.000 HD
ENDBRANCH   3   7
BRANCH   6  17
ATOM     17  C   UNL     1       3.187   4.135  17.966  0.00  0.00    +0.000 C 
BRANCH  17  18
ATOM     18  C   UNL     1       4.623   4.354  17.551  0.00  0.00    +0.000 A 
ATOM     19  C   UNL     1       5.056   4.006  16.262  0.00  0.00    +0.000 A 
ATOM     20  C   UNL     1       6.390   4.179  15.886  0.00  0.00    +0.000 A 
ATOM     21  C   UNL     1       7.311   4.701  16.792  0.00  0.00    +0.000 A 
ATOM     22  C   UNL     1       6.906   5.055  18.087  0.00  0.00    +0.000 A 
ATOM     23  C   UNL     1       5.562   4.871  18.455  0.00  0.00    +0.000 A 
BRANCH  22  24
ATOM     24  C   UNL     1       7.883   5.627  19.084  0.00  0.00    +0.000 C 
ATOM     25  F   UNL     1       8.374   6.848  18.734  0.00  0.00    +0.000 F 
ATOM     26  F   UNL     1       7.331   5.786  20.319  0.00  0.00    +0.000 F 
ATOM     27  F   UNL     1       8.969   4.825  19.261  0.00  0.00    +0.000 F 
ENDBRANCH  22  24
ENDBRANCH  17  18
ENDBRANCH   6  17
TORSDOF 4
ENDMDL
