MODEL 1
REMARK VINA RESULT:     -10.2      0.000      0.000
REMARK  Name = 
REMARK  4 active torsions:
REMARK  status: ('A' for Active; 'I' for Inactive)
REMARK    1  A    between atoms: C_2  and  C_3
REMARK    2  A    between atoms: C_7  and  C_8
REMARK    3  A    between atoms: C_8  and  C_9
REMARK    4  A    between atoms: C_28  and  C_29
REMARK                            x       y       z     vdW  Elec       q    Type
REMARK                         _______ _______ _______ _____ _____    ______ ____
ROOT
ATOM      1  C   UNL     1       2.353   6.731  18.845  0.00  0.00    +0.000 A 
ATOM      2  C   UNL     1       2.132   6.133  20.087  0.00  0.00    +0.000 A 
ATOM      3  C   UNL     1       2.473   4.793  20.288  0.00  0.00    +0.000 A 
ATOM      4  C   UNL     1       2.933   3.993  19.234  0.00  0.00    +0.000 A 
ATOM      5  C   UNL     1       3.053   4.508  17.940  0.00  0.00    +0.000 A 
ATOM      6  C   UNL     1       2.770   5.902  17.770  0.00  0.00    +0.000 A 
ENDROOT
BRANCH   1   8
ATOM      7  O   UNL     1       2.574   8.738  17.664  0.00  0.00    +0.000 OA
ATOM      8  C   UNL     1       2.075   8.203  18.659  0.00  0.00    +0.000 C 
ATOM      9  N   UNL     1       1.252   8.943  19.569  0.00  0.00    +0.000 N 
ATOM     10  C   UNL     1       1.064  10.361  19.198  0.00  0.00    +0.000 C 
ATOM     11  C   UNL     1       0.061  11.178  20.014  0.00  0.00    +0.000 C 
ATOM     12  N   UNL     1      -0.096  10.727  21.377  0.00  0.00    +0.000 N 
ATOM     13  C   UNL     1       0.419   9.531  21.820  0.00  0.00    +0.000 A 
ATOM     14  C   UNL     1      -0.020   9.429  23.115  0.00  0.00    +0.000 A 
ATOM     15  N   UNL     1      -0.765  10.521  23.465  0.00  0.00    +0.000 NA
ATOM     16  C   UNL     1      -0.809  11.305  22.400  0.00  0.00    +0.000 A 
ATOM     17  C   UNL     1       1.257   8.622  20.999  0.00  0.00    +0.000 C 
BRANCH  16  18
ATOM     18  C   UNL     1      -1.528  12.628  22.307  0.00  0.00    +0.000 C 
ATOM     19  F   UNL     1      -2.441  12.662  21.298  0.00  0.00    +0.000 F 
ATOM     20  F   UNL     1      -2.212  12.925  23.441  0.00  0.00    +0.000 F 
ATOM     21  F   UNL     1      -0.675  13.661  22.079  0.00  0.00    +0.000 F 
ENDBRANCH  16  18
ENDBRANCH   1   8
BRANCH   5  22
ATOM     22  C   UNL     1       3.835   3.721  16.908  0.00  0.00    +0.000 C 
BRANCH  22  23
ATOM     23  C   UNL     1       5.222   3.913  16.275  0.00  0.00    +0.000 A 
ATOM     24  N   UNL     1       6.146   3.861  17.208  0.00  0.00    +0.000 NA
ATOM     25  N   UNL     1       7.373   4.438  16.940  0.00  0.00    +0.000 N 
ATOM     26  C   UNL     1       7.331   5.514  16.068  0.00  0.00    +0.000 A 
ATOM     27  O   UNL     1       7.755   6.641  16.270  0.00  0.00    +0.000 OA
ATOM     28  C   UNL     1       6.762   5.106  14.787  0.00  0.00    +0.000 A 
ATOM     29  C   UNL     1       7.556   5.322  13.651  0.00  0.00    +0.000 A 
ATOM     30  C   UNL     1       7.317   4.544  12.530  0.00  0.00    +0.000 A 
ATOM     31  C   UNL     1       6.277   3.607  12.567  0.00  0.00    +0.000 A 
ATOM     32  C   UNL     1       5.439   3.450  13.709  0.00  0.00    +0.000 A 
ATOM     33  C   UNL     1       5.665   4.219  14.847  0.00  0.00    +0.000 A 
ATOM     34  H   UNL     1       7.993   3.706  16.595  0.00  0.00    +0.000 HD
ENDBRANCH  22  23
ENDBRANCH   5  22
TORSDOF 4
ENDMDL
MODEL 2
REMARK VINA RESULT:      -9.9      5.188     10.232
REMARK  Name = 
REMARK  4 active torsions:
REMARK  status: ('A' for Active; 'I' for Inactive)
REMARK    1  A    between atoms: C_2  and  C_3
REMARK    2  A    between atoms: C_7  and  C_8
REMARK    3  A    between atoms: C_8  and  C_9
REMARK    4  A    between atoms: C_28  and  C_29
REMARK                            x       y       z     vdW  Elec       q    Type
REMARK                         _______ _______ _______ _____ _____    ______ ____
ROOT
ATOM      1  C   UNL     1       0.614   9.563  20.905  0.00  0.00    +0.000 A 
ATOM      2  C   UNL     1       0.747   9.051  22.197  0.00  0.00    +0.000 A 
ATOM      3  C   UNL     1      -0.038   9.561  23.235  0.00  0.00    +0.000 A 
ATOM      4  C   UNL     1      -0.885  10.660  23.035  0.00  0.00    +0.000 A 
ATOM      5  C   UNL     1      -0.961  11.290  21.790  0.00  0.00    +0.000 A 
ATOM      6  C   UNL     1      -0.206  10.707  20.721  0.00  0.00    +0.000 A 
ENDROOT
BRANCH   1   8
ATOM      7  O   UNL     1       1.526   9.633  18.751  0.00  0.00    +0.000 OA
ATOM      8  C   UNL     1       1.392   8.944  19.768  0.00  0.00    +0.000 C 
ATOM      9  N   UNL     1       1.973   7.639  19.864  0.00  0.00    +0.000 N 
ATOM     10  C   UNL     1       2.729   7.223  18.665  0.00  0.00    +0.000 C 
ATOM     11  C   UNL     1       3.526   5.921  18.748  0.00  0.00    +0.000 C 
ATOM     12  N   UNL     1       2.978   4.952  19.668  0.00  0.00    +0.000 N 
ATOM     13  C   UNL     1       1.981   5.268  20.562  0.00  0.00    +0.000 A 
ATOM     14  C   UNL     1       1.814   4.127  21.304  0.00  0.00    +0.000 A 
ATOM     15  N   UNL     1       2.661   3.140  20.881  0.00  0.00    +0.000 NA
ATOM     16  C   UNL     1       3.368   3.652  19.887  0.00  0.00    +0.000 A 
ATOM     17  C   UNL     1       1.300   6.584  20.628  0.00  0.00    +0.000 C 
BRANCH  16  18
ATOM     18  C   UNL     1       4.442   2.934  19.108  0.00  0.00    +0.000 C 
ATOM     19  F   UNL     1       5.612   3.629  19.059  0.00  0.00    +0.000 F 
ATOM     20  F   UNL     1       4.747   1.724  19.642  0.00  0.00    +0.000 F 
ATOM     21  F   UNL     1       4.080   2.716  17.816  0.00  0.00    +0.000 F 
ENDBRANCH  16  18
ENDBRANCH   1   8
BRANCH   5  22
ATOM     22  C   UNL     1      -2.097  12.260  21.528  0.00  0.00    +0.000 C 
BRANCH  22  23
ATOM     23  C   UNL     1      -2.969  12.540  20.296  0.00  0.00    +0.000 A 
ATOM     24  N   UNL     1      -3.701  13.611  20.505  0.00  0.00    +0.000 NA
ATOM     25  N   UNL     1      -4.842  13.779  19.743  0.00  0.00    +0.000 N 
ATOM     26  C   UNL     1      -5.444  12.600  19.333  0.00  0.00    +0.000 A 
ATOM     27  O   UNL     1      -6.601  12.260  19.525  0.00  0.00    +0.000 OA
ATOM     28  C   UNL     1      -4.512  11.805  18.538  0.00  0.00    +0.000 A 
ATOM     29  C   UNL     1      -4.929  11.459  17.245  0.00  0.00    +0.000 A 
ATOM     30  C   UNL     1      -3.957  11.162  16.303  0.00  0.00    +0.000 A 
ATOM     31  C   UNL     1      -2.611  11.185  16.692  0.00  0.00    +0.000 A 
ATOM     32  C   UNL     1      -2.213  11.475  18.028  0.00  0.00    +0.000 A 
ATOM     33  C   UNL     1      -3.174  11.780  18.988  0.00  0.00    +0.000 A 
ATOM     34  H   UNL     1      -4.601  14.368  18.947  0.00  0.00    +0.000 HD
ENDBRANCH  22  23
ENDBRANCH   5  22
TORSDOF 4
ENDMDL
MODEL 3
REMARK VINA RESULT:      -9.7      0.929      1.241
REMARK  Name = 
REMARK  4 active torsions:
REMARK  status: ('A' for Active; 'I' for Inactive)
REMARK    1  A    between atoms: C_2  and  C_3
REMARK    2  A    between atoms: C_7  and  C_8
REMARK    3  A    between atoms: C_8  and  C_9
REMARK    4  A    between atoms: C_28  and  C_29
REMARK                            x       y       z     vdW  Elec       q    Type
REMARK                         _______ _______ _______ _____ _____    ______ ____
ROOT
ATOM      1  C   UNL     1       2.237   6.704  19.549  0.00  0.00    +0.000 A 
ATOM      2  C   UNL     1       1.474   6.111  20.556  0.00  0.00    +0.000 A 
ATOM      3  C   UNL     1       1.781   4.822  21.000  0.00  0.00    +0.000 A 
ATOM      4  C   UNL     1       2.776   4.057  20.378  0.00  0.00    +0.000 A 
ATOM      5  C   UNL     1       3.486   4.555  19.282  0.00  0.00    +0.000 A 
ATOM      6  C   UNL     1       3.208   5.904  18.890  0.00  0.00    +0.000 A 
ENDROOT
BRANCH   1   8
ATOM      7  O   UNL     1       2.522   8.528  18.112  0.00  0.00    +0.000 OA
ATOM      8  C   UNL     1       1.964   8.132  19.141  0.00  0.00    +0.000 C 
ATOM      9  N   UNL     1       1.083   8.982  19.884  0.00  0.00    +0.000 N 
ATOM     10  C   UNL     1       0.912  10.330  19.306  0.00  0.00    +0.000 C 
ATOM     11  C   UNL     1      -0.142  11.241  19.935  0.00  0.00    +0.000 C 
ATOM     12  N   UNL     1      -0.382  10.985  21.336  0.00  0.00    +0.000 N 
ATOM     13  C   UNL     1       0.110   9.870  21.975  0.00  0.00    +0.000 A 
ATOM     14  C   UNL     1      -0.409   9.946  23.242  0.00  0.00    +0.000 A 
ATOM     15  N   UNL     1      -1.179  11.066  23.388  0.00  0.00    +0.000 NA
ATOM     16  C   UNL     1      -1.160  11.691  22.222  0.00  0.00    +0.000 A 
ATOM     17  C   UNL     1       1.000   8.865  21.342  0.00  0.00    +0.000 C 
BRANCH  16  18
ATOM     18  C   UNL     1      -1.878  12.978  21.899  0.00  0.00    +0.000 C 
ATOM     19  F   UNL     1      -1.038  13.954  21.457  0.00  0.00    +0.000 F 
ATOM     20  F   UNL     1      -2.812  12.820  20.928  0.00  0.00    +0.000 F 
ATOM     21  F   UNL     1      -2.518  13.495  22.982  0.00  0.00    +0.000 F 
ENDBRANCH  16  18
ENDBRANCH   1   8
BRANCH   5  22
ATOM     22  C   UNL     1       4.746   3.839  18.838  0.00  0.00    +0.000 C 
BRANCH  22  23
ATOM     23  C   UNL     1       5.875   4.212  17.866  0.00  0.00    +0.000 A 
ATOM     24  N   UNL     1       6.968   4.489  18.540  0.00  0.00    +0.000 NA
ATOM     25  N   UNL     1       7.937   5.257  17.922  0.00  0.00    +0.000 N 
ATOM     26  C   UNL     1       7.454   6.159  16.988  0.00  0.00    +0.000 A 
ATOM     27  O   UNL     1       7.637   7.366  16.969  0.00  0.00    +0.000 OA
ATOM     28  C   UNL     1       6.727   5.458  15.934  0.00  0.00    +0.000 A 
ATOM     29  C   UNL     1       7.178   5.659  14.621  0.00  0.00    +0.000 A 
ATOM     30  C   UNL     1       6.885   4.690  13.675  0.00  0.00    +0.000 A 
ATOM     31  C   UNL     1       6.126   3.578  14.060  0.00  0.00    +0.000 A 
ATOM     32  C   UNL     1       5.622   3.426  15.384  0.00  0.00    +0.000 A 
ATOM     33  C   UNL     1       5.908   4.385  16.350  0.00  0.00    +0.000 A 
ATOM     34  H   UNL     1       8.618   4.623  17.505  0.00  0.00    +0.000 HD
ENDBRANCH  22  23
ENDBRANCH   5  22
TORSDOF 4
ENDMDL
MODEL 4
REMARK VINA RESULT:      -9.6      2.308      3.764
REMARK  Name = 
REMARK  4 active torsions:
REMARK  status: ('A' for Active; 'I' for Inactive)
REMARK    1  A    between atoms: C_2  and  C_3
REMARK    2  A    between atoms: C_7  and  C_8
REMARK    3  A    between atoms: C_8  and  C_9
REMARK    4  A    between atoms: C_28  and  C_29
REMARK                            x       y       z     vdW  Elec       q    Type
REMARK                         _______ _______ _______ _____ _____    ______ ____
ROOT
ATOM      1  C   UNL     1       1.134   9.264  20.184  0.00  0.00    +0.000 A 
ATOM      2  C   UNL     1       1.229  10.202  19.155  0.00  0.00    +0.000 A 
ATOM      3  C   UNL     1       1.726   9.820  17.906  0.00  0.00    +0.000 A 
ATOM      4  C   UNL     1       2.241   8.535  17.689  0.00  0.00    +0.000 A 
ATOM      5  C   UNL     1       2.286   7.596  18.723  0.00  0.00    +0.000 A 
ATOM      6  C   UNL     1       1.704   7.981  19.973  0.00  0.00    +0.000 A 
ENDROOT
BRANCH   1   8
ATOM      7  O   UNL     1       0.830   8.985  22.487  0.00  0.00    +0.000 OA
ATOM      8  C   UNL     1       0.506   9.654  21.501  0.00  0.00    +0.000 C 
ATOM      9  N   UNL     1      -0.397  10.760  21.616  0.00  0.00    +0.000 N 
ATOM     10  C   UNL     1      -0.875  11.011  22.991  0.00  0.00    +0.000 C 
ATOM     11  C   UNL     1      -1.701  12.274  23.234  0.00  0.00    +0.000 C 
ATOM     12  N   UNL     1      -2.450  12.718  22.081  0.00  0.00    +0.000 N 
ATOM     13  C   UNL     1      -2.245  12.198  20.825  0.00  0.00    +0.000 A 
ATOM     14  C   UNL     1      -3.065  12.936  20.011  0.00  0.00    +0.000 A 
ATOM     15  N   UNL     1      -3.760  13.867  20.733  0.00  0.00    +0.000 NA
ATOM     16  C   UNL     1      -3.378  13.729  21.992  0.00  0.00    +0.000 A 
ATOM     17  C   UNL     1      -1.316  11.081  20.521  0.00  0.00    +0.000 C 
BRANCH  16  18
ATOM     18  C   UNL     1      -3.871  14.549  23.158  0.00  0.00    +0.000 C 
ATOM     19  F   UNL     1      -2.876  15.254  23.765  0.00  0.00    +0.000 F 
ATOM     20  F   UNL     1      -4.805  15.462  22.790  0.00  0.00    +0.000 F 
ATOM     21  F   UNL     1      -4.432  13.778  24.127  0.00  0.00    +0.000 F 
ENDBRANCH  16  18
ENDBRANCH   1   8
BRANCH   5  22
ATOM     22  C   UNL     1       2.555   6.143  18.381  0.00  0.00    +0.000 C 
BRANCH  22  23
ATOM     23  C   UNL     1       3.846   5.328  18.220  0.00  0.00    +0.000 A 
ATOM     24  N   UNL     1       3.988   4.514  19.241  0.00  0.00    +0.000 NA
ATOM     25  N   UNL     1       5.254   4.034  19.520  0.00  0.00    +0.000 N 
ATOM     26  C   UNL     1       6.288   4.885  19.166  0.00  0.00    +0.000 A 
ATOM     27  O   UNL     1       7.172   5.310  19.893  0.00  0.00    +0.000 OA
ATOM     28  C   UNL     1       6.244   5.168  17.734  0.00  0.00    +0.000 A 
ATOM     29  C   UNL     1       7.397   4.857  16.998  0.00  0.00    +0.000 A 
ATOM     30  C   UNL     1       7.261   4.632  15.637  0.00  0.00    +0.000 A 
ATOM     31  C   UNL     1       5.994   4.759  15.055  0.00  0.00    +0.000 A 
ATOM     32  C   UNL     1       4.847   5.140  15.810  0.00  0.00    +0.000 A 
ATOM     33  C   UNL     1       4.961   5.366  17.178  0.00  0.00    +0.000 A 
ATOM     34  H   UNL     1       5.349   3.126  19.066  0.00  0.00    +0.000 HD
ENDBRANCH  22  23
ENDBRANCH   5  22
TORSDOF 4
ENDMDL
MODEL 5
REMARK VINA RESULT:      -9.6      5.188     10.255
REMARK  Name = 
REMARK  4 active torsions:
REMARK  status: ('A' for Active; 'I' for Inactive)
REMARK    1  A    between atoms: C_2  and  C_3
REMARK    2  A    between atoms: C_7  and  C_8
REMARK    3  A    between atoms: C_8  and  C_9
REMARK    4  A    between atoms: C_28  and  C_29
REMARK                            x       y       z     vdW  Elec       q    Type
REMARK                         _______ _______ _______ _____ _____    ______ ____
ROOT
ATOM      1  C   UNL     1       1.234   9.097  19.579  0.00  0.00    +0.000 A 
ATOM      2  C   UNL     1       1.322   8.236  20.674  0.00  0.00    +0.000 A 
ATOM      3  C   UNL     1       0.562   8.484  21.820  0.00  0.00    +0.000 A 
ATOM      4  C   UNL     1      -0.211   9.646  21.944  0.00  0.00    +0.000 A 
ATOM      5  C   UNL     1      -0.235  10.604  20.927  0.00  0.00    +0.000 A 
ATOM      6  C   UNL     1       0.491  10.297  19.731  0.00  0.00    +0.000 A 
ENDROOT
BRANCH   1   8
ATOM      7  O   UNL     1       1.628   9.379  17.290  0.00  0.00    +0.000 OA
ATOM      8  C   UNL     1       1.981   8.773  18.307  0.00  0.00    +0.000 C 
ATOM      9  N   UNL     1       3.064   7.836  18.277  0.00  0.00    +0.000 N 
ATOM     10  C   UNL     1       3.696   7.684  16.951  0.00  0.00    +0.000 C 
ATOM     11  C   UNL     1       4.967   6.838  16.865  0.00  0.00    +0.000 C 
ATOM     12  N   UNL     1       5.052   5.800  17.866  0.00  0.00    +0.000 N 
ATOM     13  C   UNL     1       4.193   5.740  18.939  0.00  0.00    +0.000 A 
ATOM     14  C   UNL     1       4.657   4.690  19.689  0.00  0.00    +0.000 A 
ATOM     15  N   UNL     1       5.749   4.114  19.101  0.00  0.00    +0.000 NA
ATOM     16  C   UNL     1       5.984   4.798  17.993  0.00  0.00    +0.000 A 
ATOM     17  C   UNL     1       3.045   6.658  19.148  0.00  0.00    +0.000 C 
BRANCH  16  18
ATOM     18  C   UNL     1       7.101   4.533  17.014  0.00  0.00    +0.000 C 
ATOM     19  F   UNL     1       7.508   5.657  16.361  0.00  0.00    +0.000 F 
ATOM     20  F   UNL     1       8.207   4.028  17.615  0.00  0.00    +0.000 F 
ATOM     21  F   UNL     1       6.737   3.648  16.048  0.00  0.00    +0.000 F 
ENDBRANCH  16  18
ENDBRANCH   1   8
BRANCH   5  22
ATOM     22  C   UNL     1      -1.304  11.678  20.958  0.00  0.00    +0.000 C 
BRANCH  22  23
ATOM     23  C   UNL     1      -2.376  12.117  19.949  0.00  0.00    +0.000 A 
ATOM     24  N   UNL     1      -2.993  13.187  20.395  0.00  0.00    +0.000 NA
ATOM     25  N   UNL     1      -4.247  13.475  19.887  0.00  0.00    +0.000 N 
ATOM     26  C   UNL     1      -4.980  12.368  19.492  0.00  0.00    +0.000 A 
ATOM     27  O   UNL     1      -6.097  12.053  19.871  0.00  0.00    +0.000 OA
ATOM     28  C   UNL     1      -4.261  11.624  18.461  0.00  0.00    +0.000 A 
ATOM     29  C   UNL     1      -4.933  11.429  17.245  0.00  0.00    +0.000 A 
ATOM     30  C   UNL     1      -4.173  11.195  16.110  0.00  0.00    +0.000 A 
ATOM     31  C   UNL     1      -2.780  11.128  16.232  0.00  0.00    +0.000 A 
ATOM     32  C   UNL     1      -2.122  11.264  17.489  0.00  0.00    +0.000 A 
ATOM     33  C   UNL     1      -2.866  11.504  18.640  0.00  0.00    +0.000 A 
ATOM     34  H   UNL     1      -4.127  14.133  19.118  0.00  0.00    +0.000 HD
ENDBRANCH  22  23
ENDBRANCH   5  22
TORSDOF 4
ENDMDL
MODEL 6
REMARK VINA RESULT:      -9.4      3.394      4.557
REMARK  Name = 
REMARK  4 active torsions:
REMARK  status: ('A' for Active; 'I' for Inactive)
REMARK    1  A    between atoms: C_2  and  C_3
REMARK    2  A    between atoms: C_7  and  C_8
REMARK    3  A    between atoms: C_8  and  C_9
REMARK    4  A    between atoms: C_28  and  C_29
REMARK                            x       y       z     vdW  Elec       q    Type
REMARK                         _______ _______ _______ _____ _____    ______ ____
ROOT
ATOM      1  C   UNL     1       0.422   9.776  19.525  0.00  0.00    +0.000 A 
ATOM      2  C   UNL     1       0.401   9.202  20.797  0.00  0.00    +0.000 A 
ATOM      3  C   UNL     1       1.241   8.124  21.091  0.00  0.00    +0.000 A 
ATOM      4  C   UNL     1       2.033   7.528  20.102  0.00  0.00    +0.000 A 
ATOM      5  C   UNL     1       1.997   7.984  18.781  0.00  0.00    +0.000 A 
ATOM      6  C   UNL     1       1.187   9.135  18.516  0.00  0.00    +0.000 A 
ENDROOT
BRANCH   1   8
ATOM      7  O   UNL     1      -1.583  10.801  18.890  0.00  0.00    +0.000 OA
ATOM      8  C   UNL     1      -0.415  11.000  19.240  0.00  0.00    +0.000 C 
ATOM      9  N   UNL     1       0.100  12.328  19.391  0.00  0.00    +0.000 N 
ATOM     10  C   UNL     1      -0.880  13.394  19.104  0.00  0.00    +0.000 C 
ATOM     11  C   UNL     1      -0.468  14.835  19.408  0.00  0.00    +0.000 C 
ATOM     12  N   UNL     1       0.953  15.072  19.318  0.00  0.00    +0.000 N 
ATOM     13  C   UNL     1       1.866  14.048  19.212  0.00  0.00    +0.000 A 
ATOM     14  C   UNL     1       3.086  14.672  19.249  0.00  0.00    +0.000 A 
ATOM     15  N   UNL     1       2.939  16.028  19.360  0.00  0.00    +0.000 NA
ATOM     16  C   UNL     1       1.637  16.262  19.404  0.00  0.00    +0.000 A 
ATOM     17  C   UNL     1       1.506  12.614  19.089  0.00  0.00    +0.000 C 
BRANCH  16  18
ATOM     18  C   UNL     1       0.990  17.618  19.533  0.00  0.00    +0.000 C 
ATOM     19  F   UNL     1       1.897  18.631  19.609  0.00  0.00    +0.000 F 
ATOM     20  F   UNL     1       0.190  17.912  18.477  0.00  0.00    +0.000 F 
ATOM     21  F   UNL     1       0.221  17.717  20.650  0.00  0.00    +0.000 F 
ENDBRANCH  16  18
ENDBRANCH   1   8
BRANCH   5  22
ATOM     22  C   UNL     1       3.078   7.530  17.820  0.00  0.00    +0.000 C 
BRANCH  22  23
ATOM     23  C   UNL     1       4.028   6.323  17.808  0.00  0.00    +0.000 A 
ATOM     24  N   UNL     1       3.744   5.525  18.812  0.00  0.00    +0.000 NA
ATOM     25  N   UNL     1       4.722   4.649  19.243  0.00  0.00    +0.000 N 
ATOM     26  C   UNL     1       6.021   5.094  19.059  0.00  0.00    +0.000 A 
ATOM     27  O   UNL     1       6.888   5.206  19.912  0.00  0.00    +0.000 OA
ATOM     28  C   UNL     1       6.273   5.353  17.644  0.00  0.00    +0.000 A 
ATOM     29  C   UNL     1       7.343   4.660  17.060  0.00  0.00    +0.000 A 
ATOM     30  C   UNL     1       7.329   4.473  15.687  0.00  0.00    +0.000 A 
ATOM     31  C   UNL     1       6.272   5.013  14.944  0.00  0.00    +0.000 A 
ATOM     32  C   UNL     1       5.229   5.771  15.550  0.00  0.00    +0.000 A 
ATOM     33  C   UNL     1       5.223   5.966  16.927  0.00  0.00    +0.000 A 
ATOM     34  H   UNL     1       4.567   3.756  18.776  0.00  0.00    +0.000 HD
ENDBRANCH  22  23
ENDBRANCH   5  22
TORSDOF 4
ENDMDL
MODEL 7
REMARK VINA RESULT:      -9.4      3.377      5.164
REMARK  Name = 
REMARK  4 active torsions:
REMARK  status: ('A' for Active; 'I' for Inactive)
REMARK    1  A    between atoms: C_2  and  C_3
REMARK    2  A    between atoms: C_7  and  C_8
REMARK    3  A    between atoms: C_8  and  C_9
REMARK    4  A    between atoms: C_28  and  C_29
REMARK                            x       y       z     vdW  Elec       q    Type
REMARK                         _______ _______ _______ _____ _____    ______ ____
ROOT
ATOM      1  C   UNL     1       0.526   9.896  19.370  0.00  0.00    +0.000 A 
ATOM      2  C   UNL     1       0.271   9.437  20.664  0.00  0.00    +0.000 A 
ATOM      3  C   UNL     1       0.951   8.320  21.155  0.00  0.00    +0.000 A 
ATOM      4  C   UNL     1       1.809   7.572  20.338  0.00  0.00    +0.000 A 
ATOM      5  C   UNL     1       2.002   7.915  18.996  0.00  0.00    +0.000 A 
ATOM      6  C   UNL     1       1.355   9.105  18.532  0.00  0.00    +0.000 A 
ENDROOT
BRANCH   1   8
ATOM      7  O   UNL     1      -1.181  11.020  18.231  0.00  0.00    +0.000 OA
ATOM      8  C   UNL     1      -0.138  11.160  18.877  0.00  0.00    +0.000 C 
ATOM      9  N   UNL     1       0.392  12.460  19.163  0.00  0.00    +0.000 N 
ATOM     10  C   UNL     1      -0.418  13.574  18.630  0.00  0.00    +0.000 C 
ATOM     11  C   UNL     1      -0.022  14.994  19.037  0.00  0.00    +0.000 C 
ATOM     12  N   UNL     1       1.384  15.153  19.325  0.00  0.00    +0.000 N 
ATOM     13  C   UNL     1       2.234  14.080  19.461  0.00  0.00    +0.000 A 
ATOM     14  C   UNL     1       3.434  14.638  19.821  0.00  0.00    +0.000 A 
ATOM     15  N   UNL     1       3.338  16.000  19.893  0.00  0.00    +0.000 NA
ATOM     16  C   UNL     1       2.086  16.305  19.593  0.00  0.00    +0.000 A 
ATOM     17  C   UNL     1       1.841  12.666  19.243  0.00  0.00    +0.000 C 
BRANCH  16  18
ATOM     18  C   UNL     1       1.503  17.696  19.550  0.00  0.00    +0.000 C 
ATOM     19  F   UNL     1       2.328  18.630  20.097  0.00  0.00    +0.000 F 
ATOM     20  F   UNL     1       1.253  18.113  18.283  0.00  0.00    +0.000 F 
ATOM     21  F   UNL     1       0.330  17.783  20.233  0.00  0.00    +0.000 F 
ENDBRANCH  16  18
ENDBRANCH   1   8
BRANCH   5  22
ATOM     22  C   UNL     1       3.155   7.286  18.238  0.00  0.00    +0.000 C 
BRANCH  22  23
ATOM     23  C   UNL     1       3.775   5.881  18.255  0.00  0.00    +0.000 A 
ATOM     24  N   UNL     1       5.081   5.971  18.142  0.00  0.00    +0.000 NA
ATOM     25  N   UNL     1       5.774   4.861  17.695  0.00  0.00    +0.000 N 
ATOM     26  C   UNL     1       5.061   4.038  16.839  0.00  0.00    +0.000 A 
ATOM     27  O   UNL     1       5.387   3.687  15.716  0.00  0.00    +0.000 OA
ATOM     28  C   UNL     1       3.850   3.551  17.494  0.00  0.00    +0.000 A 
ATOM     29  C   UNL     1       3.695   2.160  17.571  0.00  0.00    +0.000 A 
ATOM     30  C   UNL     1       2.878   1.648  18.567  0.00  0.00    +0.000 A 
ATOM     31  C   UNL     1       2.219   2.539  19.423  0.00  0.00    +0.000 A 
ATOM     32  C   UNL     1       2.338   3.952  19.284  0.00  0.00    +0.000 A 
ATOM     33  C   UNL     1       3.157   4.486  18.294  0.00  0.00    +0.000 A 
ATOM     34  H   UNL     1       6.101   4.349  18.514  0.00  0.00    +0.000 HD
ENDBRANCH  22  23
ENDBRANCH   5  22
TORSDOF 4
ENDMDL
MODEL 8
REMARK VINA RESULT:      -9.3      3.566      5.105
REMARK  Name = 
REMARK  4 active torsions:
REMARK  status: ('A' for Active; 'I' for Inactive)
REMARK    1  A    between atoms: C_2  and  C_3
REMARK    2  A    between atoms: C_7  and  C_8
REMARK    3  A    between atoms: C_8  and  C_9
REMARK    4  A    between atoms: C_28  and  C_29
REMARK                            x       y       z     vdW  Elec       q    Type
REMARK                         _______ _______ _______ _____ _____    ______ ____
ROOT
ATOM      1  C   UNL     1       0.600  10.244  19.623  0.00  0.00    +0.000 A 
ATOM      2  C   UNL     1       1.218  10.950  18.590  0.00  0.00    +0.000 A 
ATOM      3  C   UNL     1       2.144  10.310  17.762  0.00  0.00    +0.000 A 
ATOM      4  C   UNL     1       2.555   8.994  18.012  0.00  0.00    +0.000 A 
ATOM      5  C   UNL     1       2.061   8.283  19.109  0.00  0.00    +0.000 A 
ATOM      6  C   UNL     1       1.059   8.929  19.901  0.00  0.00    +0.000 A 
ENDROOT
BRANCH   1   8
ATOM      7  O   UNL     1      -0.244  11.019  21.663  0.00  0.00    +0.000 OA
ATOM      8  C   UNL     1      -0.471  10.911  20.454  0.00  0.00    +0.000 C 
ATOM      9  N   UNL     1      -1.678  11.420  19.874  0.00  0.00    +0.000 N 
ATOM     10  C   UNL     1      -2.584  12.073  20.840  0.00  0.00    +0.000 C 
ATOM     11  C   UNL     1      -3.810  12.797  20.282  0.00  0.00    +0.000 C 
ATOM     12  N   UNL     1      -4.299  12.254  19.037  0.00  0.00    +0.000 N 
ATOM     13  C   UNL     1      -3.584  11.335  18.304  0.00  0.00    +0.000 A 
ATOM     14  C   UNL     1      -4.330  11.149  17.168  0.00  0.00    +0.000 A 
ATOM     15  N   UNL     1      -5.467  11.909  17.201  0.00  0.00    +0.000 NA
ATOM     16  C   UNL     1      -5.438  12.581  18.341  0.00  0.00    +0.000 A 
ATOM     17  C   UNL     1      -2.296  10.737  18.735  0.00  0.00    +0.000 C 
BRANCH  16  18
ATOM     18  C   UNL     1      -6.484  13.559  18.814  0.00  0.00    +0.000 C 
ATOM     19  F   UNL     1      -7.044  13.199  20.002  0.00  0.00    +0.000 F 
ATOM     20  F   UNL     1      -5.980  14.805  19.001  0.00  0.00    +0.000 F 
ATOM     21  F   UNL     1      -7.513  13.677  17.933  0.00  0.00    +0.000 F 
ENDBRANCH  16  18
ENDBRANCH   1   8
BRANCH   5  22
ATOM     22  C   UNL     1       2.283   6.784  19.171  0.00  0.00    +0.000 C 
BRANCH  22  23
ATOM     23  C   UNL     1       2.731   5.749  18.128  0.00  0.00    +0.000 A 
ATOM     24  N   UNL     1       1.784   4.856  17.955  0.00  0.00    +0.000 NA
ATOM     25  N   UNL     1       2.136   3.629  17.423  0.00  0.00    +0.000 N 
ATOM     26  C   UNL     1       3.427   3.220  17.713  0.00  0.00    +0.000 A 
ATOM     27  O   UNL     1       3.764   2.175  18.246  0.00  0.00    +0.000 OA
ATOM     28  C   UNL     1       4.392   4.195  17.214  0.00  0.00    +0.000 A 
ATOM     29  C   UNL     1       5.363   3.717  16.321  0.00  0.00    +0.000 A 
ATOM     30  C   UNL     1       5.960   4.623  15.459  0.00  0.00    +0.000 A 
ATOM     31  C   UNL     1       5.598   5.973  15.543  0.00  0.00    +0.000 A 
ATOM     32  C   UNL     1       4.658   6.448  16.502  0.00  0.00    +0.000 A 
ATOM     33  C   UNL     1       4.043   5.554  17.373  0.00  0.00    +0.000 A 
ATOM     34  H   UNL     1       1.978   3.670  16.416  0.00  0.00    +0.000 HD
ENDBRANCH  22  23
ENDBRANCH   5  22
TORSDOF 4
ENDMDL
MODEL 9
REMARK VINA RESULT:      -9.3      2.836      4.540
REMARK  Name = 
REMARK  4 active torsions:
REMARK  status: ('A' for Active; 'I' for Inactive)
REMARK    1  A    between atoms: C_2  and  C_3
REMARK    2  A    between atoms: C_7  and  C_8
REMARK    3  A    between atoms: C_8  and  C_9
REMARK    4  A    between atoms: C_28  and  C_29
REMARK                            x       y       z     vdW  Elec       q    Type
REMARK                         _______ _______ _______ _____ _____    ______ ____
ROOT
ATOM      1  C   UNL     1       0.800   9.801  20.724  0.00  0.00    +0.000 A 
ATOM      2  C   UNL     1       0.874  10.561  19.555  0.00  0.00    +0.000 A 
ATOM      3  C   UNL     1       1.384   9.994  18.384  0.00  0.00    +0.000 A 
ATOM      4  C   UNL     1       1.932   8.705  18.379  0.00  0.00    +0.000 A 
ATOM      5  C   UNL     1       1.998   7.947  19.552  0.00  0.00    +0.000 A 
ATOM      6  C   UNL     1       1.404   8.516  20.724  0.00  0.00    +0.000 A 
ENDROOT
BRANCH   1   8
ATOM      7  O   UNL     1       0.565   9.957  23.047  0.00  0.00    +0.000 OA
ATOM      8  C   UNL     1       0.159  10.384  21.961  0.00  0.00    +0.000 C 
ATOM      9  N   UNL     1      -0.847  11.402  21.890  0.00  0.00    +0.000 N 
ATOM     10  C   UNL     1      -1.324  11.874  23.205  0.00  0.00    +0.000 C 
ATOM     11  C   UNL     1      -2.267  13.077  23.225  0.00  0.00    +0.000 C 
ATOM     12  N   UNL     1      -3.076  13.211  22.036  0.00  0.00    +0.000 N 
ATOM     13  C   UNL     1      -2.842  12.473  20.899  0.00  0.00    +0.000 A 
ATOM     14  C   UNL     1      -3.745  12.955  19.987  0.00  0.00    +0.000 A 
ATOM     15  N   UNL     1      -4.517  13.941  20.538  0.00  0.00    +0.000 NA
ATOM     16  C   UNL     1      -4.101  14.093  21.784  0.00  0.00    +0.000 A 
ATOM     17  C   UNL     1      -1.812  11.410  20.787  0.00  0.00    +0.000 C 
BRANCH  16  18
ATOM     18  C   UNL     1      -4.653  15.078  22.784  0.00  0.00    +0.000 C 
ATOM     19  F   UNL     1      -5.118  14.477  23.914  0.00  0.00    +0.000 F 
ATOM     20  F   UNL     1      -3.721  15.976  23.194  0.00  0.00    +0.000 F 
ATOM     21  F   UNL     1      -5.695  15.791  22.281  0.00  0.00    +0.000 F 
ENDBRANCH  16  18
ENDBRANCH   1   8
BRANCH   5  22
ATOM     22  C   UNL     1       2.305   6.466  19.451  0.00  0.00    +0.000 C 
BRANCH  22  23
ATOM     23  C   UNL     1       2.716   5.560  18.280  0.00  0.00    +0.000 A 
ATOM     24  N   UNL     1       1.768   4.682  18.045  0.00  0.00    +0.000 NA
ATOM     25  N   UNL     1       2.105   3.527  17.363  0.00  0.00    +0.000 N 
ATOM     26  C   UNL     1       3.410   3.102  17.554  0.00  0.00    +0.000 A 
ATOM     27  O   UNL     1       3.775   2.006  17.951  0.00  0.00    +0.000 OA
ATOM     28  C   UNL     1       4.348   4.137  17.131  0.00  0.00    +0.000 A 
ATOM     29  C   UNL     1       5.284   3.773  16.151  0.00  0.00    +0.000 A 
ATOM     30  C   UNL     1       5.840   4.777  15.375  0.00  0.00    +0.000 A 
ATOM     31  C   UNL     1       5.474   6.105  15.625  0.00  0.00    +0.000 A 
ATOM     32  C   UNL     1       4.571   6.459  16.669  0.00  0.00    +0.000 A 
ATOM     33  C   UNL     1       3.998   5.465  17.457  0.00  0.00    +0.000 A 
ATOM     34  H   UNL     1       1.906   3.680  16.375  0.00  0.00    +0.000 HD
ENDBRANCH  22  23
ENDBRANCH   5  22
TORSDOF 4
ENDMDL
