MODEL 1
REMARK VINA RESULT:      -9.2      0.000      0.000
REMARK  Name = 
REMARK  2 active torsions:
REMARK  status: ('A' for Active; 'I' for Inactive)
REMARK    1  A    between atoms: C_9  and  N_10
REMARK    2  A    between atoms: N_10  and  C_11
REMARK                            x       y       z     vdW  Elec       q    Type
REMARK                         _______ _______ _______ _____ _____    ______ ____
ROOT
ATOM      1  C   UNL     1       1.465   8.056  20.678  0.00  0.00    +0.000 C 
ATOM      2  C   UNL     1       1.661   8.741  22.046  0.00  0.00    +0.000 C 
ATOM      3  C   UNL     1       0.493   9.693  22.266  0.00  0.00    +0.000 C 
ATOM      4  C   UNL     1       0.456  10.770  21.190  0.00  0.00    +0.000 C 
ATOM      5  N   UNL     1       0.558  10.188  19.834  0.00  0.00    +0.000 N 
ATOM      6  C   UNL     1      -0.531  10.361  19.035  0.00  0.00    +0.000 A 
ATOM      7  N   UNL     1      -1.608  11.052  19.352  0.00  0.00    +0.000 NA
ATOM      8  C   UNL     1      -2.417  11.020  18.264  0.00  0.00    +0.000 A 
ATOM      9  N   UNL     1      -3.622  11.619  18.181  0.00  0.00    +0.000 NA
ATOM     10  C   UNL     1      -4.235  11.453  16.998  0.00  0.00    +0.000 A 
ATOM     11 CL   UNL     1      -5.768  12.227  16.893  0.00  0.00    +0.000 Cl
ATOM     12  C   UNL     1      -3.738  10.738  15.912  0.00  0.00    +0.000 A 
ATOM     13  C   UNL     1      -2.489  10.121  16.010  0.00  0.00    +0.000 A 
ATOM     14  C   UNL     1      -1.845  10.289  17.233  0.00  0.00    +0.000 A 
ATOM     15  N   UNL     1      -0.641   9.876  17.755  0.00  0.00    +0.000 N 
ATOM     16  C   UNL     1       1.628   9.190  19.616  0.00  0.00    +0.000 C 
ATOM     17  H   UNL     1       0.062   9.349  17.265  0.00  0.00    +0.000 HD
ENDROOT
BRANCH   1  18
ATOM     18  N   UNL     1       2.266   6.814  20.549  0.00  0.00    +0.000 NA
ATOM     19  H   UNL     1       3.197   7.053  20.207  0.00  0.00    +0.000 HD
BRANCH  18  28
ATOM     20 CL   UNL     1       5.140   5.717  15.705  0.00  0.00    +0.000 Cl
ATOM     21  C   UNL     1       4.293   4.910  16.963  0.00  0.00    +0.000 A 
ATOM     22  C   UNL     1       4.609   3.606  17.299  0.00  0.00    +0.000 A 
ATOM     23  C   UNL     1       3.925   2.994  18.350  0.00  0.00    +0.000 A 
ATOM     24 CL   UNL     1       4.274   1.327  18.670  0.00  0.00    +0.000 Cl
ATOM     25  C   UNL     1       2.964   3.686  19.122  0.00  0.00    +0.000 A 
ATOM     26  C   UNL     1       2.673   5.016  18.786  0.00  0.00    +0.000 A 
ATOM     27  C   UNL     1       3.293   5.580  17.656  0.00  0.00    +0.000 A 
ATOM     28  C   UNL     1       1.663   5.833  19.585  0.00  0.00    +0.000 C 
ATOM     29  C   UNL     1       0.675   4.863  20.250  0.00  0.00    +0.000 C 
ATOM     30  C   UNL     1       1.393   3.784  21.040  0.00  0.00    +0.000 C 
ATOM     31  N   UNL     1       2.388   3.088  20.248  0.00  0.00    +0.000 N 
ATOM     32  H   UNL     1       2.288   2.076  20.169  0.00  0.00    +0.000 HD
ENDBRANCH  18  28
ENDBRANCH   1  18
TORSDOF 2
ENDMDL
MODEL 2
REMARK VINA RESULT:      -8.7      1.828      8.860
REMARK  Name = 
REMARK  2 active torsions:
REMARK  status: ('A' for Active; 'I' for Inactive)
REMARK    1  A    between atoms: C_9  and  N_10
REMARK    2  A    between atoms: N_10  and  C_11
REMARK                            x       y       z     vdW  Elec       q    Type
REMARK                         _______ _______ _______ _____ _____    ______ ____
ROOT
ATOM      1  C   UNL     1       0.023   9.711  19.585  0.00  0.00    +0.000 C 
ATOM      2  C   UNL     1       0.740  10.580  18.532  0.00  0.00    +0.000 C 
ATOM      3  C   UNL     1       1.585   9.661  17.661  0.00  0.00    +0.000 C 
ATOM      4  C   UNL     1       2.640   8.940  18.490  0.00  0.00    +0.000 C 
ATOM      5  N   UNL     1       2.053   8.314  19.694  0.00  0.00    +0.000 N 
ATOM      6  C   UNL     1       2.116   6.955  19.743  0.00  0.00    +0.000 A 
ATOM      7  N   UNL     1       2.710   6.187  18.852  0.00  0.00    +0.000 NA
ATOM      8  C   UNL     1       2.591   4.914  19.305  0.00  0.00    +0.000 A 
ATOM      9  N   UNL     1       3.077   3.824  18.678  0.00  0.00    +0.000 NA
ATOM     10  C   UNL     1       2.840   2.671  19.324  0.00  0.00    +0.000 A 
ATOM     11 CL   UNL     1       3.471   1.283  18.527  0.00  0.00    +0.000 Cl
ATOM     12  C   UNL     1       2.160   2.533  20.531  0.00  0.00    +0.000 A 
ATOM     13  C   UNL     1       1.660   3.670  21.170  0.00  0.00    +0.000 A 
ATOM     14  C   UNL     1       1.901   4.871  20.508  0.00  0.00    +0.000 A 
ATOM     15  N   UNL     1       1.606   6.190  20.763  0.00  0.00    +0.000 N 
ATOM     16  C   UNL     1       1.153   9.159  20.512  0.00  0.00    +0.000 C 
ATOM     17  H   UNL     1       1.139   6.540  21.582  0.00  0.00    +0.000 HD
ENDROOT
BRANCH   1  18
ATOM     18  N   UNL     1      -1.143  10.402  20.189  0.00  0.00    +0.000 NA
ATOM     19  H   UNL     1      -1.955   9.786  20.143  0.00  0.00    +0.000 HD
BRANCH  18  28
ATOM     20 CL   UNL     1      -3.098   9.998  14.809  0.00  0.00    +0.000 Cl
ATOM     21  C   UNL     1      -3.427  10.806  16.289  0.00  0.00    +0.000 A 
ATOM     22  C   UNL     1      -4.711  11.222  16.593  0.00  0.00    +0.000 A 
ATOM     23  C   UNL     1      -4.949  11.843  17.819  0.00  0.00    +0.000 A 
ATOM     24 CL   UNL     1      -6.547  12.444  18.116  0.00  0.00    +0.000 Cl
ATOM     25  C   UNL     1      -3.931  12.005  18.786  0.00  0.00    +0.000 A 
ATOM     26  C   UNL     1      -2.639  11.555  18.475  0.00  0.00    +0.000 A 
ATOM     27  C   UNL     1      -2.396  11.031  17.192  0.00  0.00    +0.000 A 
ATOM     28  C   UNL     1      -1.495  11.676  19.476  0.00  0.00    +0.000 C 
ATOM     29  C   UNL     1      -1.811  12.836  20.432  0.00  0.00    +0.000 C 
ATOM     30  C   UNL     1      -3.189  12.695  21.051  0.00  0.00    +0.000 C 
ATOM     31  N   UNL     1      -4.227  12.515  20.055  0.00  0.00    +0.000 N 
ATOM     32  H   UNL     1      -4.989  13.191  20.058  0.00  0.00    +0.000 HD
ENDBRANCH  18  28
ENDBRANCH   1  18
TORSDOF 2
ENDMDL
MODEL 3
REMARK VINA RESULT:      -8.5      1.698      2.764
REMARK  Name = 
REMARK  2 active torsions:
REMARK  status: ('A' for Active; 'I' for Inactive)
REMARK    1  A    between atoms: C_9  and  N_10
REMARK    2  A    between atoms: N_10  and  C_11
REMARK                            x       y       z     vdW  Elec       q    Type
REMARK                         _______ _______ _______ _____ _____    ______ ____
ROOT
ATOM      1  C   UNL     1       1.564   7.850  18.505  0.00  0.00    +0.000 C 
ATOM      2  C   UNL     1       2.145   8.014  19.924  0.00  0.00    +0.000 C 
ATOM      3  C   UNL     1       1.109   8.736  20.775  0.00  0.00    +0.000 C 
ATOM      4  C   UNL     1       0.809  10.120  20.214  0.00  0.00    +0.000 C 
ATOM      5  N   UNL     1       0.520  10.069  18.765  0.00  0.00    +0.000 N 
ATOM      6  C   UNL     1      -0.741  10.434  18.402  0.00  0.00    +0.000 A 
ATOM      7  N   UNL     1      -1.671  10.884  19.221  0.00  0.00    +0.000 NA
ATOM      8  C   UNL     1      -2.747  11.182  18.451  0.00  0.00    +0.000 A 
ATOM      9  N   UNL     1      -3.911  11.680  18.914  0.00  0.00    +0.000 NA
ATOM     10  C   UNL     1      -4.828  11.901  17.958  0.00  0.00    +0.000 A 
ATOM     11 CL   UNL     1      -6.310  12.546  18.551  0.00  0.00    +0.000 Cl
ATOM     12  C   UNL     1      -4.668  11.660  16.597  0.00  0.00    +0.000 A 
ATOM     13  C   UNL     1      -3.457  11.143  16.130  0.00  0.00    +0.000 A 
ATOM     14  C   UNL     1      -2.498  10.911  17.113  0.00  0.00    +0.000 A 
ATOM     15  N   UNL     1      -1.210  10.430  17.111  0.00  0.00    +0.000 N 
ATOM     16  C   UNL     1       1.462   9.296  17.924  0.00  0.00    +0.000 C 
ATOM     17  H   UNL     1      -0.683  10.166  16.296  0.00  0.00    +0.000 HD
ENDROOT
BRANCH   1  18
ATOM     18  N   UNL     1       2.264   6.798  17.726  0.00  0.00    +0.000 NA
ATOM     19  H   UNL     1       1.605   6.050  17.512  0.00  0.00    +0.000 HD
BRANCH  18  28
ATOM     20 CL   UNL     1       1.068   2.912  21.776  0.00  0.00    +0.000 Cl
ATOM     21  C   UNL     1       2.142   3.179  20.461  0.00  0.00    +0.000 A 
ATOM     22  C   UNL     1       2.691   2.112  19.773  0.00  0.00    +0.000 A 
ATOM     23  C   UNL     1       3.531   2.365  18.688  0.00  0.00    +0.000 A 
ATOM     24 CL   UNL     1       4.283   1.005  17.921  0.00  0.00    +0.000 Cl
ATOM     25  C   UNL     1       3.787   3.678  18.231  0.00  0.00    +0.000 A 
ATOM     26  C   UNL     1       3.202   4.750  18.922  0.00  0.00    +0.000 A 
ATOM     27  C   UNL     1       2.448   4.479  20.079  0.00  0.00    +0.000 A 
ATOM     28  C   UNL     1       3.416   6.192  18.476  0.00  0.00    +0.000 C 
ATOM     29  C   UNL     1       4.743   6.268  17.706  0.00  0.00    +0.000 C 
ATOM     30  C   UNL     1       4.807   5.238  16.593  0.00  0.00    +0.000 C 
ATOM     31  N   UNL     1       4.528   3.896  17.065  0.00  0.00    +0.000 N 
ATOM     32  H   UNL     1       5.246   3.191  16.898  0.00  0.00    +0.000 HD
ENDBRANCH  18  28
ENDBRANCH   1  18
TORSDOF 2
ENDMDL
MODEL 4
REMARK VINA RESULT:      -8.4      1.530      1.877
REMARK  Name = 
REMARK  2 active torsions:
REMARK  status: ('A' for Active; 'I' for Inactive)
REMARK    1  A    between atoms: C_9  and  N_10
REMARK    2  A    between atoms: N_10  and  C_11
REMARK                            x       y       z     vdW  Elec       q    Type
REMARK                         _______ _______ _______ _____ _____    ______ ____
ROOT
ATOM      1  C   UNL     1       1.521   8.031  20.094  0.00  0.00    +0.000 C 
ATOM      2  C   UNL     1       1.663   8.408  21.583  0.00  0.00    +0.000 C 
ATOM      3  C   UNL     1       0.411   9.169  21.997  0.00  0.00    +0.000 C 
ATOM      4  C   UNL     1       0.257  10.450  21.188  0.00  0.00    +0.000 C 
ATOM      5  N   UNL     1       0.401  10.200  19.737  0.00  0.00    +0.000 N 
ATOM      6  C   UNL     1      -0.708  10.440  18.985  0.00  0.00    +0.000 A 
ATOM      7  N   UNL     1      -1.844  10.934  19.436  0.00  0.00    +0.000 NA
ATOM      8  C   UNL     1      -2.657  11.068  18.359  0.00  0.00    +0.000 A 
ATOM      9  N   UNL     1      -3.915  11.550  18.398  0.00  0.00    +0.000 NA
ATOM     10  C   UNL     1      -4.521  11.593  17.201  0.00  0.00    +0.000 A 
ATOM     11 CL   UNL     1      -6.123  12.218  17.253  0.00  0.00    +0.000 Cl
ATOM     12  C   UNL     1      -3.969  11.192  15.988  0.00  0.00    +0.000 A 
ATOM     13  C   UNL     1      -2.664  10.693  15.961  0.00  0.00    +0.000 A 
ATOM     14  C   UNL     1      -2.027  10.645  17.197  0.00  0.00    +0.000 A 
ATOM     15  N   UNL     1      -0.783  10.245  17.628  0.00  0.00    +0.000 N 
ATOM     16  C   UNL     1       1.562   9.384  19.315  0.00  0.00    +0.000 C 
ATOM     17  H   UNL     1      -0.037   9.912  17.040  0.00  0.00    +0.000 HD
ENDROOT
BRANCH   1  18
ATOM     18  N   UNL     1       2.438   6.934  19.700  0.00  0.00    +0.000 NA
ATOM     19  H   UNL     1       3.366   7.123  20.080  0.00  0.00    +0.000 HD
BRANCH  18  28
ATOM     20 CL   UNL     1       7.555   8.077  17.366  0.00  0.00    +0.000 Cl
ATOM     21  C   UNL     1       6.287   6.919  17.296  0.00  0.00    +0.000 A 
ATOM     22  C   UNL     1       6.548   5.612  16.926  0.00  0.00    +0.000 A 
ATOM     23  C   UNL     1       5.502   4.689  16.914  0.00  0.00    +0.000 A 
ATOM     24 CL   UNL     1       5.848   3.091  16.342  0.00  0.00    +0.000 Cl
ATOM     25  C   UNL     1       4.195   5.034  17.330  0.00  0.00    +0.000 A 
ATOM     26  C   UNL     1       3.951   6.357  17.729  0.00  0.00    +0.000 A 
ATOM     27  C   UNL     1       4.993   7.297  17.629  0.00  0.00    +0.000 A 
ATOM     28  C   UNL     1       2.573   6.798  18.210  0.00  0.00    +0.000 C 
ATOM     29  C   UNL     1       1.523   5.863  17.591  0.00  0.00    +0.000 C 
ATOM     30  C   UNL     1       1.852   4.404  17.845  0.00  0.00    +0.000 C 
ATOM     31  N   UNL     1       3.198   4.059  17.430  0.00  0.00    +0.000 N 
ATOM     32  H   UNL     1       3.290   3.306  16.749  0.00  0.00    +0.000 HD
ENDBRANCH  18  28
ENDBRANCH   1  18
TORSDOF 2
ENDMDL
MODEL 5
REMARK VINA RESULT:      -8.3      2.280      9.301
REMARK  Name = 
REMARK  2 active torsions:
REMARK  status: ('A' for Active; 'I' for Inactive)
REMARK    1  A    between atoms: C_9  and  N_10
REMARK    2  A    between atoms: N_10  and  C_11
REMARK                            x       y       z     vdW  Elec       q    Type
REMARK                         _______ _______ _______ _____ _____    ______ ____
ROOT
ATOM      1  C   UNL     1      -0.011   9.719  20.120  0.00  0.00    +0.000 C 
ATOM      2  C   UNL     1       0.317  10.537  18.855  0.00  0.00    +0.000 C 
ATOM      3  C   UNL     1       0.889   9.584  17.814  0.00  0.00    +0.000 C 
ATOM      4  C   UNL     1       2.172   8.934  18.314  0.00  0.00    +0.000 C 
ATOM      5  N   UNL     1       2.004   8.369  19.671  0.00  0.00    +0.000 N 
ATOM      6  C   UNL     1       2.128   7.017  19.766  0.00  0.00    +0.000 A 
ATOM      7  N   UNL     1       2.448   6.208  18.775  0.00  0.00    +0.000 NA
ATOM      8  C   UNL     1       2.519   4.962  19.307  0.00  0.00    +0.000 A 
ATOM      9  N   UNL     1       2.829   3.847  18.617  0.00  0.00    +0.000 NA
ATOM     10  C   UNL     1       2.844   2.730  19.362  0.00  0.00    +0.000 A 
ATOM     11 CL   UNL     1       3.250   1.309  18.480  0.00  0.00    +0.000 Cl
ATOM     12  C   UNL     1       2.570   2.650  20.725  0.00  0.00    +0.000 A 
ATOM     13  C   UNL     1       2.249   3.814  21.428  0.00  0.00    +0.000 A 
ATOM     14  C   UNL     1       2.233   4.978  20.665  0.00  0.00    +0.000 A 
ATOM     15  N   UNL     1       1.982   6.304  20.930  0.00  0.00    +0.000 N 
ATOM     16  C   UNL     1       1.367   9.244  20.681  0.00  0.00    +0.000 C 
ATOM     17  H   UNL     1       1.776   6.692  21.835  0.00  0.00    +0.000 HD
ENDROOT
BRANCH   1  18
ATOM     18  N   UNL     1      -0.961  10.422  21.017  0.00  0.00    +0.000 NA
ATOM     19  H   UNL     1      -1.861   9.942  20.990  0.00  0.00    +0.000 HD
BRANCH  18  28
ATOM     20 CL   UNL     1      -5.110  11.472  17.194  0.00  0.00    +0.000 Cl
ATOM     21  C   UNL     1      -4.494  12.059  18.687  0.00  0.00    +0.000 A 
ATOM     22  C   UNL     1      -5.321  12.715  19.580  0.00  0.00    +0.000 A 
ATOM     23  C   UNL     1      -4.796  13.147  20.798  0.00  0.00    +0.000 A 
ATOM     24 CL   UNL     1      -5.837  14.057  21.843  0.00  0.00    +0.000 Cl
ATOM     25  C   UNL     1      -3.460  12.880  21.174  0.00  0.00    +0.000 A 
ATOM     26  C   UNL     1      -2.639  12.191  20.268  0.00  0.00    +0.000 A 
ATOM     27  C   UNL     1      -3.156  11.861  19.002  0.00  0.00    +0.000 A 
ATOM     28  C   UNL     1      -1.193  11.850  20.611  0.00  0.00    +0.000 C 
ATOM     29  C   UNL     1      -0.691  12.862  21.651  0.00  0.00    +0.000 C 
ATOM     30  C   UNL     1      -1.626  12.954  22.843  0.00  0.00    +0.000 C 
ATOM     31  N   UNL     1      -2.998  13.212  22.451  0.00  0.00    +0.000 N 
ATOM     32  H   UNL     1      -3.439  14.043  22.844  0.00  0.00    +0.000 HD
ENDBRANCH  18  28
ENDBRANCH   1  18
TORSDOF 2
ENDMDL
MODEL 6
REMARK VINA RESULT:      -8.0      3.203      9.049
REMARK  Name = 
REMARK  2 active torsions:
REMARK  status: ('A' for Active; 'I' for Inactive)
REMARK    1  A    between atoms: C_9  and  N_10
REMARK    2  A    between atoms: N_10  and  C_11
REMARK                            x       y       z     vdW  Elec       q    Type
REMARK                         _______ _______ _______ _____ _____    ______ ____
ROOT
ATOM      1  C   UNL     1      -0.029   9.717  19.871  0.00  0.00    +0.000 C 
ATOM      2  C   UNL     1       0.350  10.500  18.597  0.00  0.00    +0.000 C 
ATOM      3  C   UNL     1       0.964   9.518  17.608  0.00  0.00    +0.000 C 
ATOM      4  C   UNL     1       2.227   8.886  18.178  0.00  0.00    +0.000 C 
ATOM      5  N   UNL     1       2.004   8.360  19.542  0.00  0.00    +0.000 N 
ATOM      6  C   UNL     1       2.126   7.012  19.682  0.00  0.00    +0.000 A 
ATOM      7  N   UNL     1       2.487   6.175  18.729  0.00  0.00    +0.000 NA
ATOM      8  C   UNL     1       2.538   4.945  19.299  0.00  0.00    +0.000 A 
ATOM      9  N   UNL     1       2.878   3.811  18.654  0.00  0.00    +0.000 NA
ATOM     10  C   UNL     1       2.863   2.716  19.432  0.00  0.00    +0.000 A 
ATOM     11 CL   UNL     1       3.306   1.272  18.609  0.00  0.00    +0.000 Cl
ATOM     12  C   UNL     1       2.535   2.676  20.784  0.00  0.00    +0.000 A 
ATOM     13  C   UNL     1       2.184   3.858  21.440  0.00  0.00    +0.000 A 
ATOM     14  C   UNL     1       2.197   4.999  20.643  0.00  0.00    +0.000 A 
ATOM     15  N   UNL     1       1.935   6.332  20.860  0.00  0.00    +0.000 N 
ATOM     16  C   UNL     1       1.326   9.262  20.501  0.00  0.00    +0.000 C 
ATOM     17  H   UNL     1       1.691   6.746  21.744  0.00  0.00    +0.000 HD
ENDROOT
BRANCH   1  18
ATOM     18  N   UNL     1      -1.015  10.444  20.708  0.00  0.00    +0.000 NA
ATOM     19  H   UNL     1      -1.459  11.169  20.144  0.00  0.00    +0.000 HD
BRANCH  18  28
ATOM     20 CL   UNL     1       2.414  14.942  19.739  0.00  0.00    +0.000 Cl
ATOM     21  C   UNL     1       1.138  14.438  20.773  0.00  0.00    +0.000 A 
ATOM     22  C   UNL     1       0.288  15.367  21.345  0.00  0.00    +0.000 A 
ATOM     23  C   UNL     1      -0.760  14.920  22.151  0.00  0.00    +0.000 A 
ATOM     24 CL   UNL     1      -1.737  16.119  22.933  0.00  0.00    +0.000 Cl
ATOM     25  C   UNL     1      -1.016  13.544  22.351  0.00  0.00    +0.000 A 
ATOM     26  C   UNL     1      -0.160  12.613  21.744  0.00  0.00    +0.000 A 
ATOM     27  C   UNL     1       0.954  13.084  21.025  0.00  0.00    +0.000 A 
ATOM     28  C   UNL     1      -0.385  11.112  21.897  0.00  0.00    +0.000 C 
ATOM     29  C   UNL     1      -1.156  10.871  23.204  0.00  0.00    +0.000 C 
ATOM     30  C   UNL     1      -2.413  11.717  23.279  0.00  0.00    +0.000 C 
ATOM     31  N   UNL     1      -2.147  13.125  23.058  0.00  0.00    +0.000 N 
ATOM     32  H   UNL     1      -2.431  13.768  23.797  0.00  0.00    +0.000 HD
ENDBRANCH  18  28
ENDBRANCH   1  18
TORSDOF 2
ENDMDL
MODEL 7
REMARK VINA RESULT:      -7.8      5.042     10.400
REMARK  Name = 
REMARK  2 active torsions:
REMARK  status: ('A' for Active; 'I' for Inactive)
REMARK    1  A    between atoms: C_9  and  N_10
REMARK    2  A    between atoms: N_10  and  C_11
REMARK                            x       y       z     vdW  Elec       q    Type
REMARK                         _______ _______ _______ _____ _____    ______ ____
ROOT
ATOM      1  C   UNL     1      -6.265  12.209  20.267  0.00  0.00    +0.000 C 
ATOM      2  C   UNL     1      -7.283  11.352  19.488  0.00  0.00    +0.000 C 
ATOM      3  C   UNL     1      -6.518  10.248  18.772  0.00  0.00    +0.000 C 
ATOM      4  C   UNL     1      -5.519  10.830  17.780  0.00  0.00    +0.000 C 
ATOM      5  N   UNL     1      -4.687  11.884  18.400  0.00  0.00    +0.000 N 
ATOM      6  C   UNL     1      -3.356  11.610  18.484  0.00  0.00    +0.000 A 
ATOM      7  N   UNL     1      -2.766  10.534  18.001  0.00  0.00    +0.000 NA
ATOM      8  C   UNL     1      -1.440  10.683  18.247  0.00  0.00    +0.000 A 
ATOM      9  N   UNL     1      -0.488   9.795  17.899  0.00  0.00    +0.000 NA
ATOM     10  C   UNL     1       0.756  10.165  18.243  0.00  0.00    +0.000 A 
ATOM     11 CL   UNL     1       1.971   9.034  17.789  0.00  0.00    +0.000 Cl
ATOM     12  C   UNL     1       1.109  11.340  18.902  0.00  0.00    +0.000 A 
ATOM     13  C   UNL     1       0.112  12.252  19.257  0.00  0.00    +0.000 A 
ATOM     14  C   UNL     1      -1.181  11.877  18.905  0.00  0.00    +0.000 A 
ATOM     15  N   UNL     1      -2.425  12.448  19.047  0.00  0.00    +0.000 N 
ATOM     16  C   UNL     1      -5.398  12.921  19.180  0.00  0.00    +0.000 C 
ATOM     17  H   UNL     1      -2.614  13.349  19.451  0.00  0.00    +0.000 HD
ENDROOT
BRANCH   1  18
ATOM     18  N   UNL     1      -6.905  13.017  21.334  0.00  0.00    +0.000 NA
ATOM     19  H   UNL     1      -6.850  14.004  21.082  0.00  0.00    +0.000 HD
BRANCH  18  28
ATOM     20 CL   UNL     1      -1.377  14.495  21.764  0.00  0.00    +0.000 Cl
ATOM     21  C   UNL     1      -2.870  14.662  22.598  0.00  0.00    +0.000 A 
ATOM     22  C   UNL     1      -3.097  15.750  23.422  0.00  0.00    +0.000 A 
ATOM     23  C   UNL     1      -4.333  15.872  24.057  0.00  0.00    +0.000 A 
ATOM     24 CL   UNL     1      -4.540  17.190  25.163  0.00  0.00    +0.000 Cl
ATOM     25  C   UNL     1      -5.384  14.952  23.834  0.00  0.00    +0.000 A 
ATOM     26  C   UNL     1      -5.148  13.868  22.975  0.00  0.00    +0.000 A 
ATOM     27  C   UNL     1      -3.860  13.703  22.431  0.00  0.00    +0.000 A 
ATOM     28  C   UNL     1      -6.238  12.847  22.669  0.00  0.00    +0.000 C 
ATOM     29  C   UNL     1      -7.229  12.834  23.842  0.00  0.00    +0.000 C 
ATOM     30  C   UNL     1      -7.732  14.228  24.169  0.00  0.00    +0.000 C 
ATOM     31  N   UNL     1      -6.651  15.171  24.382  0.00  0.00    +0.000 N 
ATOM     32  H   UNL     1      -6.633  15.654  25.279  0.00  0.00    +0.000 HD
ENDBRANCH  18  28
ENDBRANCH   1  18
TORSDOF 2
ENDMDL
MODEL 8
REMARK VINA RESULT:      -7.8      3.840      9.810
REMARK  Name = 
REMARK  2 active torsions:
REMARK  status: ('A' for Active; 'I' for Inactive)
REMARK    1  A    between atoms: C_9  and  N_10
REMARK    2  A    between atoms: N_10  and  C_11
REMARK                            x       y       z     vdW  Elec       q    Type
REMARK                         _______ _______ _______ _____ _____    ______ ____
ROOT
ATOM      1  C   UNL     1      -1.255  11.582  21.212  0.00  0.00    +0.000 C 
ATOM      2  C   UNL     1      -1.160  12.739  20.197  0.00  0.00    +0.000 C 
ATOM      3  C   UNL     1      -0.525  12.196  18.924  0.00  0.00    +0.000 C 
ATOM      4  C   UNL     1       0.881  11.674  19.193  0.00  0.00    +0.000 C 
ATOM      5  N   UNL     1       0.910  10.764  20.359  0.00  0.00    +0.000 N 
ATOM      6  C   UNL     1       1.255   9.475  20.091  0.00  0.00    +0.000 A 
ATOM      7  N   UNL     1       1.624   9.013  18.913  0.00  0.00    +0.000 NA
ATOM      8  C   UNL     1       1.935   7.705  19.095  0.00  0.00    +0.000 A 
ATOM      9  N   UNL     1       2.366   6.872  18.127  0.00  0.00    +0.000 NA
ATOM     10  C   UNL     1       2.615   5.623  18.551  0.00  0.00    +0.000 A 
ATOM     11 CL   UNL     1       3.175   4.566  17.314  0.00  0.00    +0.000 Cl
ATOM     12  C   UNL     1       2.464   5.155  19.853  0.00  0.00    +0.000 A 
ATOM     13  C   UNL     1       2.015   6.027  20.847  0.00  0.00    +0.000 A 
ATOM     14  C   UNL     1       1.754   7.325  20.418  0.00  0.00    +0.000 A 
ATOM     15  N   UNL     1       1.316   8.476  21.031  0.00  0.00    +0.000 N 
ATOM     16  C   UNL     1       0.221  11.229  21.583  0.00  0.00    +0.000 C 
ATOM     17  H   UNL     1       1.120   8.580  22.012  0.00  0.00    +0.000 HD
ENDROOT
BRANCH   1  18
ATOM     18  N   UNL     1      -2.234  11.858  22.293  0.00  0.00    +0.000 NA
ATOM     19  H   UNL     1      -2.904  11.091  22.337  0.00  0.00    +0.000 HD
BRANCH  18  28
ATOM     20 CL   UNL     1      -7.228  11.484  19.491  0.00  0.00    +0.000 Cl
ATOM     21  C   UNL     1      -6.528  12.227  20.874  0.00  0.00    +0.000 A 
ATOM     22  C   UNL     1      -7.308  12.551  21.969  0.00  0.00    +0.000 A 
ATOM     23  C   UNL     1      -6.701  13.121  23.088  0.00  0.00    +0.000 A 
ATOM     24 CL   UNL     1      -7.727  13.609  24.396  0.00  0.00    +0.000 Cl
ATOM     25  C   UNL     1      -5.303  13.319  23.162  0.00  0.00    +0.000 A 
ATOM     26  C   UNL     1      -4.521  12.962  22.053  0.00  0.00    +0.000 A 
ATOM     27  C   UNL     1      -5.164  12.491  20.894  0.00  0.00    +0.000 A 
ATOM     28  C   UNL     1      -3.005  13.127  22.066  0.00  0.00    +0.000 C 
ATOM     29  C   UNL     1      -2.649  14.237  23.067  0.00  0.00    +0.000 C 
ATOM     30  C   UNL     1      -3.277  13.990  24.426  0.00  0.00    +0.000 C 
ATOM     31  N   UNL     1      -4.708  13.772  24.343  0.00  0.00    +0.000 N 
ATOM     32  H   UNL     1      -5.300  14.399  24.887  0.00  0.00    +0.000 HD
ENDBRANCH  18  28
ENDBRANCH   1  18
TORSDOF 2
ENDMDL
MODEL 9
REMARK VINA RESULT:      -7.7      5.224      8.696
REMARK  Name = 
REMARK  2 active torsions:
REMARK  status: ('A' for Active; 'I' for Inactive)
REMARK    1  A    between atoms: C_9  and  N_10
REMARK    2  A    between atoms: N_10  and  C_11
REMARK                            x       y       z     vdW  Elec       q    Type
REMARK                         _______ _______ _______ _____ _____    ______ ____
ROOT
ATOM      1  C   UNL     1      -5.782  11.871  18.634  0.00  0.00    +0.000 C 
ATOM      2  C   UNL     1      -7.172  12.180  18.042  0.00  0.00    +0.000 C 
ATOM      3  C   UNL     1      -7.706  13.431  18.726  0.00  0.00    +0.000 C 
ATOM      4  C   UNL     1      -7.858  13.213  20.225  0.00  0.00    +0.000 C 
ATOM      5  N   UNL     1      -6.632  12.637  20.819  0.00  0.00    +0.000 N 
ATOM      6  C   UNL     1      -5.988  13.425  21.723  0.00  0.00    +0.000 A 
ATOM      7  N   UNL     1      -6.409  14.601  22.146  0.00  0.00    +0.000 NA
ATOM      8  C   UNL     1      -5.512  15.015  23.076  0.00  0.00    +0.000 A 
ATOM      9  N   UNL     1      -5.588  16.176  23.756  0.00  0.00    +0.000 NA
ATOM     10  C   UNL     1      -4.586  16.364  24.630  0.00  0.00    +0.000 A 
ATOM     11 CL   UNL     1      -4.692  17.842  25.504  0.00  0.00    +0.000 Cl
ATOM     12  C   UNL     1      -3.529  15.490  24.865  0.00  0.00    +0.000 A 
ATOM     13  C   UNL     1      -3.461  14.290  24.152  0.00  0.00    +0.000 A 
ATOM     14  C   UNL     1      -4.496  14.085  23.244  0.00  0.00    +0.000 A 
ATOM     15  N   UNL     1      -4.824  13.080  22.364  0.00  0.00    +0.000 N 
ATOM     16  C   UNL     1      -6.039  11.473  20.123  0.00  0.00    +0.000 C 
ATOM     17  H   UNL     1      -4.322  12.217  22.246  0.00  0.00    +0.000 HD
ENDROOT
BRANCH   1  18
ATOM     18  N   UNL     1      -4.985  10.970  17.765  0.00  0.00    +0.000 NA
ATOM     19  H   UNL     1      -4.691  10.158  18.309  0.00  0.00    +0.000 HD
BRANCH  18  28
ATOM     20 CL   UNL     1      -1.143  12.950  21.539  0.00  0.00    +0.000 Cl
ATOM     21  C   UNL     1      -1.234  12.055  20.075  0.00  0.00    +0.000 A 
ATOM     22  C   UNL     1      -0.259  11.127  19.757  0.00  0.00    +0.000 A 
ATOM     23  C   UNL     1      -0.382  10.392  18.578  0.00  0.00    +0.000 A 
ATOM     24 CL   UNL     1       0.912   9.317  18.163  0.00  0.00    +0.000 Cl
ATOM     25  C   UNL     1      -1.506  10.522  17.729  0.00  0.00    +0.000 A 
ATOM     26  C   UNL     1      -2.500  11.449  18.078  0.00  0.00    +0.000 A 
ATOM     27  C   UNL     1      -2.303  12.257  19.212  0.00  0.00    +0.000 A 
ATOM     28  C   UNL     1      -3.749  11.630  17.223  0.00  0.00    +0.000 C 
ATOM     29  C   UNL     1      -3.417  11.202  15.786  0.00  0.00    +0.000 C 
ATOM     30  C   UNL     1      -2.807   9.814  15.739  0.00  0.00    +0.000 C 
ATOM     31  N   UNL     1      -1.665   9.682  16.623  0.00  0.00    +0.000 N 
ATOM     32  H   UNL     1      -0.785   9.394  16.196  0.00  0.00    +0.000 HD
ENDBRANCH  18  28
ENDBRANCH   1  18
TORSDOF 2
ENDMDL
