MODEL 1
REMARK VINA RESULT:      -6.4      0.000      0.000
REMARK  Name = 
REMARK  14 active torsions:
REMARK  status: ('A' for Active; 'I' for Inactive)
REMARK    1  A    between atoms: C_1  and  S_2
REMARK    2  A    between atoms: S_2  and  O_5
REMARK    3  A    between atoms: O_5  and  C_6
REMARK    4  A    between atoms: C_6  and  C_7
REMARK    5  A    between atoms: C_7  and  N_8
REMARK    6  A    between atoms: N_8  and  P_9
REMARK    7  A    between atoms: P_9  and  N_11
REMARK    8  A    between atoms: P_9  and  O_14
REMARK    9  A    between atoms: N_11  and  C_12
REMARK   10  A    between atoms: O_14  and  C_15
REMARK   11  A    between atoms: C_15  and  C_16
REMARK   12  A    between atoms: C_16  and  C_17
REMARK   13  A    between atoms: C_19  and  C_20
REMARK   14  A    between atoms: C_20  and  O_22
REMARK                            x       y       z     vdW  Elec       q    Type
REMARK                         _______ _______ _______ _____ _____    ______ ____
ROOT
ATOM      1  P   UNK     1       5.854   5.850  16.775  0.00  0.00    +0.000 P 
ATOM      2  O   UNK     1       5.151   7.154  17.165  0.00  0.00    +0.000 OA
ENDROOT
BRANCH   1   3
ATOM      3  N   UNK     1       7.406   6.720  16.807  0.00  0.00    +0.000 NA
ATOM      4  H   UNK     1       8.117   6.027  16.586  0.00  0.00    +0.000 HD
BRANCH   3   5
ATOM      5  C   UNK     1       7.854   7.490  17.963  0.00  0.00    +0.000 C 
BRANCH   5   6
ATOM      6  C   UNK     1       8.124   8.993  17.774  0.00  0.00    +0.000 C 
BRANCH   6   7
ATOM      7  O   UNK     1       8.887   9.430  18.905  0.00  0.00    +0.000 OA
BRANCH   7   9
ATOM      8  C   UNK     1       9.385  11.284  20.610  0.00  0.00    +0.000 C 
ATOM      9  S   UNK     1       9.519  10.931  18.869  0.00  0.00    +0.000 S 
ATOM     10  O   UNK     1       8.608  11.799  18.158  0.00  0.00    +0.000 OA
ATOM     11  O   UNK     1      10.925  10.841  18.532  0.00  0.00    +0.000 OA
ENDBRANCH   7   9
ENDBRANCH   6   7
ENDBRANCH   5   6
ENDBRANCH   3   5
ENDBRANCH   1   3
BRANCH   1  12
ATOM     12  N   UNK     1       5.959   5.787  15.128  0.00  0.00    +0.000 NA
ATOM     13  H   UNK     1       5.913   6.695  14.688  0.00  0.00    +0.000 HD
BRANCH  12  14
ATOM     14  C   UNK     1       6.826   4.872  14.455  0.00  0.00    +0.000 C 
ATOM     15 CL   UNK     1       5.838   3.857  13.399  0.00  0.00    +0.000 Cl
ENDBRANCH  12  14
ENDBRANCH   1  12
BRANCH   1  16
ATOM     16  O   UNK     1       4.345   5.005  16.745  0.00  0.00    +0.000 OA
BRANCH  16  17
ATOM     17  C   UNK     1       4.530   3.628  17.086  0.00  0.00    +0.000 C 
BRANCH  17  18
ATOM     18  C   UNK     1       3.487   3.201  18.105  0.00  0.00    +0.000 C 
BRANCH  18  19
ATOM     19  C   UNK     1       3.812   3.684  19.533  0.00  0.00    +0.000 C 
ATOM     20  N   UNK     1       3.662   5.136  19.712  0.00  0.00    +0.000 NA
ATOM     21  C   UNK     1       2.263   5.607  19.513  0.00  0.00    +0.000 C 
ATOM     22  C   UNK     1       1.271   4.981  20.498  0.00  0.00    +0.000 C 
ATOM     23  C   UNK     1       1.249   3.464  20.468  0.00  0.00    +0.000 C 
ATOM     24  S   UNK     1       2.892   2.810  20.838  0.00  0.00    +0.000 S 
ATOM     25  H   UNK     1       4.250   5.585  19.004  0.00  0.00    +0.000 HD
BRANCH  21  26
ATOM     26  C   UNK     1       2.234   7.122  19.733  0.00  0.00    +0.000 C 
ATOM     27  O   UNK     1       2.382   7.955  18.848  0.00  0.00    +0.000 OA
BRANCH  26  28
ATOM     28  O   UNK     1       1.983   7.445  21.027  0.00  0.00    +0.000 OA
ATOM     29  H   UNK     1       1.018   7.297  21.185  0.00  0.00    +0.000 HD
ENDBRANCH  26  28
ENDBRANCH  21  26
ENDBRANCH  18  19
ENDBRANCH  17  18
ENDBRANCH  16  17
ENDBRANCH   1  16
TORSDOF 13
ENDMDL
MODEL 2
REMARK VINA RESULT:      -6.2      4.626      6.786
REMARK  Name = 
REMARK  14 active torsions:
REMARK  status: ('A' for Active; 'I' for Inactive)
REMARK    1  A    between atoms: C_1  and  S_2
REMARK    2  A    between atoms: S_2  and  O_5
REMARK    3  A    between atoms: O_5  and  C_6
REMARK    4  A    between atoms: C_6  and  C_7
REMARK    5  A    between atoms: C_7  and  N_8
REMARK    6  A    between atoms: N_8  and  P_9
REMARK    7  A    between atoms: P_9  and  N_11
REMARK    8  A    between atoms: P_9  and  O_14
REMARK    9  A    between atoms: N_11  and  C_12
REMARK   10  A    between atoms: O_14  and  C_15
REMARK   11  A    between atoms: C_15  and  C_16
REMARK   12  A    between atoms: C_16  and  C_17
REMARK   13  A    between atoms: C_19  and  C_20
REMARK   14  A    between atoms: C_20  and  O_22
REMARK                            x       y       z     vdW  Elec       q    Type
REMARK                         _______ _______ _______ _____ _____    ______ ____
ROOT
ATOM      1  P   UNK     1       2.740   5.577  19.466  0.00  0.00    +0.000 P 
ATOM      2  O   UNK     1       2.150   5.983  18.112  0.00  0.00    +0.000 OA
ENDROOT
BRANCH   1   3
ATOM      3  N   UNK     1       2.996   3.938  18.823  0.00  0.00    +0.000 NA
ATOM      4  H   UNK     1       3.088   3.333  19.635  0.00  0.00    +0.000 HD
BRANCH   3   5
ATOM      5  C   UNK     1       4.068   3.619  17.885  0.00  0.00    +0.000 C 
BRANCH   5   6
ATOM      6  C   UNK     1       5.432   4.300  18.083  0.00  0.00    +0.000 C 
BRANCH   6   7
ATOM      7  O   UNK     1       5.673   5.106  16.922  0.00  0.00    +0.000 OA
BRANCH   7   9
ATOM      8  C   UNK     1       6.889   4.621  14.714  0.00  0.00    +0.000 C 
ATOM      9  S   UNK     1       7.201   5.210  16.365  0.00  0.00    +0.000 S 
ATOM     10  O   UNK     1       8.011   4.230  17.052  0.00  0.00    +0.000 OA
ATOM     11  O   UNK     1       7.577   6.607  16.286  0.00  0.00    +0.000 OA
ENDBRANCH   7   9
ENDBRANCH   6   7
ENDBRANCH   5   6
ENDBRANCH   3   5
ENDBRANCH   1   3
BRANCH   1  12
ATOM     12  N   UNK     1       1.521   4.983  20.408  0.00  0.00    +0.000 NA
ATOM     13  H   UNK     1       0.829   5.676  20.653  0.00  0.00    +0.000 HD
BRANCH  12  14
ATOM     14  C   UNK     1       0.975   3.676  20.214  0.00  0.00    +0.000 C 
ATOM     15 CL   UNK     1       1.313   2.719  21.659  0.00  0.00    +0.000 Cl
ENDBRANCH  12  14
ENDBRANCH   1  12
BRANCH   1  16
ATOM     16  O   UNK     1       2.490   7.172  20.091  0.00  0.00    +0.000 OA
BRANCH  16  17
ATOM     17  C   UNK     1       2.049   8.056  19.057  0.00  0.00    +0.000 C 
BRANCH  17  18
ATOM     18  C   UNK     1       1.107   9.099  19.632  0.00  0.00    +0.000 C 
BRANCH  18  19
ATOM     19  C   UNK     1       1.110  10.417  18.830  0.00  0.00    +0.000 C 
ATOM     20  N   UNK     1       0.090  10.465  17.772  0.00  0.00    +0.000 NA
ATOM     21  C   UNK     1      -1.303  10.402  18.300  0.00  0.00    +0.000 C 
ATOM     22  C   UNK     1      -1.644  11.565  19.236  0.00  0.00    +0.000 C 
ATOM     23  C   UNK     1      -0.712  11.693  20.426  0.00  0.00    +0.000 C 
ATOM     24  S   UNK     1       0.991  11.912  19.862  0.00  0.00    +0.000 S 
ATOM     25  H   UNK     1       0.239   9.645  17.178  0.00  0.00    +0.000 HD
BRANCH  21  26
ATOM     26  C   UNK     1      -2.266  10.468  17.112  0.00  0.00    +0.000 C 
ATOM     27  O   UNK     1      -3.128   9.634  16.870  0.00  0.00    +0.000 OA
BRANCH  26  28
ATOM     28  O   UNK     1      -2.085  11.591  16.371  0.00  0.00    +0.000 OA
ATOM     29  H   UNK     1      -2.207  12.365  16.975  0.00  0.00    +0.000 HD
ENDBRANCH  26  28
ENDBRANCH  21  26
ENDBRANCH  18  19
ENDBRANCH  17  18
ENDBRANCH  16  17
ENDBRANCH   1  16
TORSDOF 13
ENDMDL
MODEL 3
REMARK VINA RESULT:      -6.2      2.058      2.686
REMARK  Name = 
REMARK  14 active torsions:
REMARK  status: ('A' for Active; 'I' for Inactive)
REMARK    1  A    between atoms: C_1  and  S_2
REMARK    2  A    between atoms: S_2  and  O_5
REMARK    3  A    between atoms: O_5  and  C_6
REMARK    4  A    between atoms: C_6  and  C_7
REMARK    5  A    between atoms: C_7  and  N_8
REMARK    6  A    between atoms: N_8  and  P_9
REMARK    7  A    between atoms: P_9  and  N_11
REMARK    8  A    between atoms: P_9  and  O_14
REMARK    9  A    between atoms: N_11  and  C_12
REMARK   10  A    between atoms: O_14  and  C_15
REMARK   11  A    between atoms: C_15  and  C_16
REMARK   12  A    between atoms: C_16  and  C_17
REMARK   13  A    between atoms: C_19  and  C_20
REMARK   14  A    between atoms: C_20  and  O_22
REMARK                            x       y       z     vdW  Elec       q    Type
REMARK                         _______ _______ _______ _____ _____    ______ ____
ROOT
ATOM      1  P   UNK     1       6.846   6.333  17.272  0.00  0.00    +0.000 P 
ATOM      2  O   UNK     1       5.715   7.339  17.033  0.00  0.00    +0.000 OA
ENDROOT
BRANCH   1   3
ATOM      3  N   UNK     1       8.007   7.681  17.225  0.00  0.00    +0.000 NA
ATOM      4  H   UNK     1       8.855   7.331  17.664  0.00  0.00    +0.000 HD
BRANCH   3   5
ATOM      5  C   UNK     1       7.708   8.998  17.778  0.00  0.00    +0.000 C 
BRANCH   5   6
ATOM      6  C   UNK     1       8.787   9.690  18.627  0.00  0.00    +0.000 C 
BRANCH   6   7
ATOM      7  O   UNK     1       9.503  10.576  17.759  0.00  0.00    +0.000 OA
BRANCH   7   9
ATOM      8  C   UNK     1       9.388  11.997  19.894  0.00  0.00    +0.000 C 
ATOM      9  S   UNK     1       9.518  12.164  18.126  0.00  0.00    +0.000 S 
ATOM     10  O   UNK     1       8.297  12.762  17.635  0.00  0.00    +0.000 OA
ATOM     11  O   UNK     1      10.825  12.705  17.816  0.00  0.00    +0.000 OA
ENDBRANCH   7   9
ENDBRANCH   6   7
ENDBRANCH   5   6
ENDBRANCH   3   5
ENDBRANCH   1   3
BRANCH   1  12
ATOM     12  N   UNK     1       7.416   5.832  15.805  0.00  0.00    +0.000 NA
ATOM     13  H   UNK     1       8.403   6.004  15.679  0.00  0.00    +0.000 HD
BRANCH  12  14
ATOM     14  C   UNK     1       6.963   4.628  15.182  0.00  0.00    +0.000 C 
ATOM     15 CL   UNK     1       7.234   4.776  13.443  0.00  0.00    +0.000 Cl
ENDBRANCH  12  14
ENDBRANCH   1  12
BRANCH   1  16
ATOM     16  O   UNK     1       5.716   5.023  17.317  0.00  0.00    +0.000 OA
BRANCH  16  17
ATOM     17  C   UNK     1       5.663   4.447  18.625  0.00  0.00    +0.000 C 
BRANCH  17  18
ATOM     18  C   UNK     1       4.692   5.224  19.497  0.00  0.00    +0.000 C 
BRANCH  18  19
ATOM     19  C   UNK     1       3.393   5.603  18.757  0.00  0.00    +0.000 C 
ATOM     20  N   UNK     1       2.686   4.450  18.180  0.00  0.00    +0.000 NA
ATOM     21  C   UNK     1       2.210   3.483  19.210  0.00  0.00    +0.000 C 
ATOM     22  C   UNK     1       1.222   4.100  20.204  0.00  0.00    +0.000 C 
ATOM     23  C   UNK     1       1.762   5.314  20.936  0.00  0.00    +0.000 C 
ATOM     24  S   UNK     1       2.236   6.595  19.752  0.00  0.00    +0.000 S 
ATOM     25  H   UNK     1       3.354   3.964  17.575  0.00  0.00    +0.000 HD
BRANCH  21  26
ATOM     26  C   UNK     1       1.488   2.340  18.492  0.00  0.00    +0.000 C 
ATOM     27  O   UNK     1       0.273   2.191  18.469  0.00  0.00    +0.000 OA
BRANCH  26  28
ATOM     28  O   UNK     1       2.353   1.521  17.838  0.00  0.00    +0.000 OA
ATOM     29  H   UNK     1       3.225   1.590  18.298  0.00  0.00    +0.000 HD
ENDBRANCH  26  28
ENDBRANCH  21  26
ENDBRANCH  18  19
ENDBRANCH  17  18
ENDBRANCH  16  17
ENDBRANCH   1  16
TORSDOF 13
ENDMDL
MODEL 4
REMARK VINA RESULT:      -6.1      2.155      2.821
REMARK  Name = 
REMARK  14 active torsions:
REMARK  status: ('A' for Active; 'I' for Inactive)
REMARK    1  A    between atoms: C_1  and  S_2
REMARK    2  A    between atoms: S_2  and  O_5
REMARK    3  A    between atoms: O_5  and  C_6
REMARK    4  A    between atoms: C_6  and  C_7
REMARK    5  A    between atoms: C_7  and  N_8
REMARK    6  A    between atoms: N_8  and  P_9
REMARK    7  A    between atoms: P_9  and  N_11
REMARK    8  A    between atoms: P_9  and  O_14
REMARK    9  A    between atoms: N_11  and  C_12
REMARK   10  A    between atoms: O_14  and  C_15
REMARK   11  A    between atoms: C_15  and  C_16
REMARK   12  A    between atoms: C_16  and  C_17
REMARK   13  A    between atoms: C_19  and  C_20
REMARK   14  A    between atoms: C_20  and  O_22
REMARK                            x       y       z     vdW  Elec       q    Type
REMARK                         _______ _______ _______ _____ _____    ______ ____
ROOT
ATOM      1  P   UNK     1       6.814   6.409  17.284  0.00  0.00    +0.000 P 
ATOM      2  O   UNK     1       5.659   7.371  16.991  0.00  0.00    +0.000 OA
ENDROOT
BRANCH   1   3
ATOM      3  N   UNK     1       7.947   7.769  17.102  0.00  0.00    +0.000 NA
ATOM      4  H   UNK     1       8.849   7.423  17.418  0.00  0.00    +0.000 HD
BRANCH   3   5
ATOM      5  C   UNK     1       7.714   9.075  17.711  0.00  0.00    +0.000 C 
BRANCH   5   6
ATOM      6  C   UNK     1       8.828   9.678  18.584  0.00  0.00    +0.000 C 
BRANCH   6   7
ATOM      7  O   UNK     1       8.808  11.095  18.373  0.00  0.00    +0.000 OA
BRANCH   7   9
ATOM      8  C   UNK     1      11.327  11.566  18.207  0.00  0.00    +0.000 C 
ATOM      9  S   UNK     1       9.897  12.004  19.175  0.00  0.00    +0.000 S 
ATOM     10  O   UNK     1      10.063  11.461  20.503  0.00  0.00    +0.000 OA
ATOM     11  O   UNK     1       9.604  13.403  18.942  0.00  0.00    +0.000 OA
ENDBRANCH   7   9
ENDBRANCH   6   7
ENDBRANCH   5   6
ENDBRANCH   3   5
ENDBRANCH   1   3
BRANCH   1  12
ATOM     12  N   UNK     1       7.363   5.802  15.849  0.00  0.00    +0.000 NA
ATOM     13  H   UNK     1       8.274   6.150  15.588  0.00  0.00    +0.000 HD
BRANCH  12  14
ATOM     14  C   UNK     1       7.140   4.445  15.461  0.00  0.00    +0.000 C 
ATOM     15 CL   UNK     1       6.077   4.445  14.050  0.00  0.00    +0.000 Cl
ENDBRANCH  12  14
ENDBRANCH   1  12
BRANCH   1  16
ATOM     16  O   UNK     1       5.712   5.086  17.461  0.00  0.00    +0.000 OA
BRANCH  16  17
ATOM     17  C   UNK     1       5.750   4.572  18.795  0.00  0.00    +0.000 C 
BRANCH  17  18
ATOM     18  C   UNK     1       4.642   5.197  19.624  0.00  0.00    +0.000 C 
BRANCH  18  19
ATOM     19  C   UNK     1       3.411   5.590  18.782  0.00  0.00    +0.000 C 
ATOM     20  N   UNK     1       2.702   4.439  18.204  0.00  0.00    +0.000 NA
ATOM     21  C   UNK     1       2.122   3.532  19.235  0.00  0.00    +0.000 C 
ATOM     22  C   UNK     1       1.093   4.223  20.133  0.00  0.00    +0.000 C 
ATOM     23  C   UNK     1       1.626   5.448  20.853  0.00  0.00    +0.000 C 
ATOM     24  S   UNK     1       2.227   6.661  19.655  0.00  0.00    +0.000 S 
ATOM     25  H   UNK     1       3.391   3.905  17.666  0.00  0.00    +0.000 HD
BRANCH  21  26
ATOM     26  C   UNK     1       1.408   2.385  18.514  0.00  0.00    +0.000 C 
ATOM     27  O   UNK     1       0.200   2.192  18.543  0.00  0.00    +0.000 OA
BRANCH  26  28
ATOM     28  O   UNK     1       2.270   1.622  17.793  0.00  0.00    +0.000 OA
ATOM     29  H   UNK     1       1.883   0.713  17.741  0.00  0.00    +0.000 HD
ENDBRANCH  26  28
ENDBRANCH  21  26
ENDBRANCH  18  19
ENDBRANCH  17  18
ENDBRANCH  16  17
ENDBRANCH   1  16
TORSDOF 13
ENDMDL
MODEL 5
REMARK VINA RESULT:      -6.0      2.740      8.607
REMARK  Name = 
REMARK  14 active torsions:
REMARK  status: ('A' for Active; 'I' for Inactive)
REMARK    1  A    between atoms: C_1  and  S_2
REMARK    2  A    between atoms: S_2  and  O_5
REMARK    3  A    between atoms: O_5  and  C_6
REMARK    4  A    between atoms: C_6  and  C_7
REMARK    5  A    between atoms: C_7  and  N_8
REMARK    6  A    between atoms: N_8  and  P_9
REMARK    7  A    between atoms: P_9  and  N_11
REMARK    8  A    between atoms: P_9  and  O_14
REMARK    9  A    between atoms: N_11  and  C_12
REMARK   10  A    between atoms: O_14  and  C_15
REMARK   11  A    between atoms: C_15  and  C_16
REMARK   12  A    between atoms: C_16  and  C_17
REMARK   13  A    between atoms: C_19  and  C_20
REMARK   14  A    between atoms: C_20  and  O_22
REMARK                            x       y       z     vdW  Elec       q    Type
REMARK                         _______ _______ _______ _____ _____    ______ ____
ROOT
ATOM      1  P   UNK     1       6.957   6.601  17.784  0.00  0.00    +0.000 P 
ATOM      2  O   UNK     1       8.169   6.470  18.711  0.00  0.00    +0.000 OA
ENDROOT
BRANCH   1   3
ATOM      3  N   UNK     1       6.562   4.898  18.118  0.00  0.00    +0.000 NA
ATOM      4  H   UNK     1       6.442   4.458  17.209  0.00  0.00    +0.000 HD
BRANCH   3   5
ATOM      5  C   UNK     1       5.449   4.502  18.975  0.00  0.00    +0.000 C 
BRANCH   5   6
ATOM      6  C   UNK     1       4.089   5.189  18.764  0.00  0.00    +0.000 C 
BRANCH   6   7
ATOM      7  O   UNK     1       3.092   4.160  18.758  0.00  0.00    +0.000 OA
BRANCH   7   9
ATOM      8  C   UNK     1       2.910   2.709  20.868  0.00  0.00    +0.000 C 
ATOM      9  S   UNK     1       2.091   4.056  20.039  0.00  0.00    +0.000 S 
ATOM     10  O   UNK     1       0.802   3.591  19.581  0.00  0.00    +0.000 OA
ATOM     11  O   UNK     1       2.241   5.246  20.851  0.00  0.00    +0.000 OA
ENDBRANCH   7   9
ENDBRANCH   6   7
ENDBRANCH   5   6
ENDBRANCH   3   5
ENDBRANCH   1   3
BRANCH   1  12
ATOM     12  N   UNK     1       7.416   6.162  16.260  0.00  0.00    +0.000 NA
ATOM     13  H   UNK     1       8.360   6.439  16.030  0.00  0.00    +0.000 HD
BRANCH  12  14
ATOM     14  C   UNK     1       7.031   4.916  15.677  0.00  0.00    +0.000 C 
ATOM     15 CL   UNK     1       5.530   5.170  14.781  0.00  0.00    +0.000 Cl
ENDBRANCH  12  14
ENDBRANCH   1  12
BRANCH   1  16
ATOM     16  O   UNK     1       7.342   8.257  17.460  0.00  0.00    +0.000 OA
BRANCH  16  17
ATOM     17  C   UNK     1       8.494   8.663  18.203  0.00  0.00    +0.000 C 
BRANCH  17  18
ATOM     18  C   UNK     1       8.536  10.177  18.311  0.00  0.00    +0.000 C 
BRANCH  18  19
ATOM     19  C   UNK     1       9.760  10.689  19.098  0.00  0.00    +0.000 C 
ATOM     20  N   UNK     1      10.717  11.443  18.275  0.00  0.00    +0.000 NA
ATOM     21  C   UNK     1      10.140  12.696  17.710  0.00  0.00    +0.000 C 
ATOM     22  C   UNK     1       9.675  13.682  18.785  0.00  0.00    +0.000 C 
ATOM     23  C   UNK     1       8.655  13.107  19.750  0.00  0.00    +0.000 C 
ATOM     24  S   UNK     1       9.336  11.654  20.582  0.00  0.00    +0.000 S 
ATOM     25  H   UNK     1      10.980  10.836  17.493  0.00  0.00    +0.000 HD
BRANCH  21  26
ATOM     26  C   UNK     1      11.226  13.391  16.885  0.00  0.00    +0.000 C 
ATOM     27  O   UNK     1      11.135  14.525  16.433  0.00  0.00    +0.000 OA
BRANCH  26  28
ATOM     28  O   UNK     1      12.333  12.618  16.746  0.00  0.00    +0.000 OA
ATOM     29  H   UNK     1      12.191  12.040  15.956  0.00  0.00    +0.000 HD
ENDBRANCH  26  28
ENDBRANCH  21  26
ENDBRANCH  18  19
ENDBRANCH  17  18
ENDBRANCH  16  17
ENDBRANCH   1  16
TORSDOF 13
ENDMDL
MODEL 6
REMARK VINA RESULT:      -6.0      2.938      8.938
REMARK  Name = 
REMARK  14 active torsions:
REMARK  status: ('A' for Active; 'I' for Inactive)
REMARK    1  A    between atoms: C_1  and  S_2
REMARK    2  A    between atoms: S_2  and  O_5
REMARK    3  A    between atoms: O_5  and  C_6
REMARK    4  A    between atoms: C_6  and  C_7
REMARK    5  A    between atoms: C_7  and  N_8
REMARK    6  A    between atoms: N_8  and  P_9
REMARK    7  A    between atoms: P_9  and  N_11
REMARK    8  A    between atoms: P_9  and  O_14
REMARK    9  A    between atoms: N_11  and  C_12
REMARK   10  A    between atoms: O_14  and  C_15
REMARK   11  A    between atoms: C_15  and  C_16
REMARK   12  A    between atoms: C_16  and  C_17
REMARK   13  A    between atoms: C_19  and  C_20
REMARK   14  A    between atoms: C_20  and  O_22
REMARK                            x       y       z     vdW  Elec       q    Type
REMARK                         _______ _______ _______ _____ _____    ______ ____
ROOT
ATOM      1  P   UNK     1       7.043   6.860  17.660  0.00  0.00    +0.000 P 
ATOM      2  O   UNK     1       8.086   6.372  18.670  0.00  0.00    +0.000 OA
ENDROOT
BRANCH   1   3
ATOM      3  N   UNK     1       6.053   5.433  18.045  0.00  0.00    +0.000 NA
ATOM      4  H   UNK     1       5.722   5.076  17.152  0.00  0.00    +0.000 HD
BRANCH   3   5
ATOM      5  C   UNK     1       4.925   5.483  18.970  0.00  0.00    +0.000 C 
BRANCH   5   6
ATOM      6  C   UNK     1       4.077   4.213  19.151  0.00  0.00    +0.000 C 
BRANCH   6   7
ATOM      7  O   UNK     1       3.254   4.416  20.306  0.00  0.00    +0.000 OA
BRANCH   7   9
ATOM      8  C   UNK     1       2.491   2.169  19.327  0.00  0.00    +0.000 C 
ATOM      9  S   UNK     1       2.234   3.221  20.740  0.00  0.00    +0.000 S 
ATOM     10  O   UNK     1       0.882   3.728  20.690  0.00  0.00    +0.000 OA
ATOM     11  O   UNK     1       2.767   2.551  21.908  0.00  0.00    +0.000 OA
ENDBRANCH   7   9
ENDBRANCH   6   7
ENDBRANCH   5   6
ENDBRANCH   3   5
ENDBRANCH   1   3
BRANCH   1  12
ATOM     12  N   UNK     1       7.385   6.187  16.191  0.00  0.00    +0.000 NA
ATOM     13  H   UNK     1       8.294   6.444  15.834  0.00  0.00    +0.000 HD
BRANCH  12  14
ATOM     14  C   UNK     1       6.997   4.853  15.855  0.00  0.00    +0.000 C 
ATOM     15 CL   UNK     1       6.761   4.774  14.107  0.00  0.00    +0.000 Cl
ENDBRANCH  12  14
ENDBRANCH   1  12
BRANCH   1  16
ATOM     16  O   UNK     1       8.006   8.248  17.285  0.00  0.00    +0.000 OA
BRANCH  16  17
ATOM     17  C   UNK     1       8.362   8.953  18.478  0.00  0.00    +0.000 C 
BRANCH  17  18
ATOM     18  C   UNK     1       8.933  10.316  18.125  0.00  0.00    +0.000 C 
BRANCH  18  19
ATOM     19  C   UNK     1      10.041  10.771  19.097  0.00  0.00    +0.000 C 
ATOM     20  N   UNK     1      11.103  11.558  18.453  0.00  0.00    +0.000 NA
ATOM     21  C   UNK     1      10.612  12.845  17.884  0.00  0.00    +0.000 C 
ATOM     22  C   UNK     1      10.009  13.778  18.939  0.00  0.00    +0.000 C 
ATOM     23  C   UNK     1       8.866  13.163  19.725  0.00  0.00    +0.000 C 
ATOM     24  S   UNK     1       9.424  11.660  20.561  0.00  0.00    +0.000 S 
ATOM     25  H   UNK     1      11.467  10.991  17.682  0.00  0.00    +0.000 HD
BRANCH  21  26
ATOM     26  C   UNK     1      11.802  13.572  17.253  0.00  0.00    +0.000 C 
ATOM     27  O   UNK     1      12.332  13.250  16.197  0.00  0.00    +0.000 OA
BRANCH  26  28
ATOM     28  O   UNK     1      12.184  14.653  17.980  0.00  0.00    +0.000 OA
ATOM     29  H   UNK     1      13.166  14.731  17.898  0.00  0.00    +0.000 HD
ENDBRANCH  26  28
ENDBRANCH  21  26
ENDBRANCH  18  19
ENDBRANCH  17  18
ENDBRANCH  16  17
ENDBRANCH   1  16
TORSDOF 13
ENDMDL
MODEL 7
REMARK VINA RESULT:      -5.9      2.657      8.375
REMARK  Name = 
REMARK  14 active torsions:
REMARK  status: ('A' for Active; 'I' for Inactive)
REMARK    1  A    between atoms: C_1  and  S_2
REMARK    2  A    between atoms: S_2  and  O_5
REMARK    3  A    between atoms: O_5  and  C_6
REMARK    4  A    between atoms: C_6  and  C_7
REMARK    5  A    between atoms: C_7  and  N_8
REMARK    6  A    between atoms: N_8  and  P_9
REMARK    7  A    between atoms: P_9  and  N_11
REMARK    8  A    between atoms: P_9  and  O_14
REMARK    9  A    between atoms: N_11  and  C_12
REMARK   10  A    between atoms: O_14  and  C_15
REMARK   11  A    between atoms: C_15  and  C_16
REMARK   12  A    between atoms: C_16  and  C_17
REMARK   13  A    between atoms: C_19  and  C_20
REMARK   14  A    between atoms: C_20  and  O_22
REMARK                            x       y       z     vdW  Elec       q    Type
REMARK                         _______ _______ _______ _____ _____    ______ ____
ROOT
ATOM      1  P   UNK     1       6.741   6.966  17.503  0.00  0.00    +0.000 P 
ATOM      2  O   UNK     1       7.400   6.360  18.746  0.00  0.00    +0.000 OA
ENDROOT
BRANCH   1   3
ATOM      3  N   UNK     1       5.340   5.901  17.771  0.00  0.00    +0.000 NA
ATOM      4  H   UNK     1       5.505   5.077  17.197  0.00  0.00    +0.000 HD
BRANCH   3   5
ATOM      5  C   UNK     1       3.965   6.342  17.563  0.00  0.00    +0.000 C 
BRANCH   5   6
ATOM      6  C   UNK     1       2.884   5.827  18.528  0.00  0.00    +0.000 C 
BRANCH   6   7
ATOM      7  O   UNK     1       3.256   4.496  18.907  0.00  0.00    +0.000 OA
BRANCH   7   9
ATOM      8  C   UNK     1       2.496   2.052  19.098  0.00  0.00    +0.000 C 
ATOM      9  S   UNK     1       2.908   3.281  17.878  0.00  0.00    +0.000 S 
ATOM     10  O   UNK     1       4.126   2.874  17.216  0.00  0.00    +0.000 OA
ATOM     11  O   UNK     1       1.704   3.616  17.146  0.00  0.00    +0.000 OA
ENDBRANCH   7   9
ENDBRANCH   6   7
ENDBRANCH   5   6
ENDBRANCH   3   5
ENDBRANCH   1   3
BRANCH   1  12
ATOM     12  N   UNK     1       7.150   6.045  16.195  0.00  0.00    +0.000 NA
ATOM     13  H   UNK     1       7.957   6.393  15.696  0.00  0.00    +0.000 HD
BRANCH  12  14
ATOM     14  C   UNK     1       7.061   4.619  16.208  0.00  0.00    +0.000 C 
ATOM     15 CL   UNK     1       6.415   4.094  14.650  0.00  0.00    +0.000 Cl
ENDBRANCH  12  14
ENDBRANCH   1  12
BRANCH   1  16
ATOM     16  O   UNK     1       8.103   8.001  17.243  0.00  0.00    +0.000 OA
BRANCH  16  17
ATOM     17  C   UNK     1       7.852   9.308  17.767  0.00  0.00    +0.000 C 
BRANCH  17  18
ATOM     18  C   UNK     1       9.103   9.847  18.439  0.00  0.00    +0.000 C 
BRANCH  18  19
ATOM     19  C   UNK     1       9.231  11.381  18.324  0.00  0.00    +0.000 C 
ATOM     20  N   UNK     1       8.896  12.094  19.565  0.00  0.00    +0.000 NA
ATOM     21  C   UNK     1       9.815  11.769  20.692  0.00  0.00    +0.000 C 
ATOM     22  C   UNK     1      11.273  12.135  20.403  0.00  0.00    +0.000 C 
ATOM     23  C   UNK     1      11.837  11.484  19.154  0.00  0.00    +0.000 C 
ATOM     24  S   UNK     1      10.850  11.945  17.712  0.00  0.00    +0.000 S 
ATOM     25  H   UNK     1       7.952  11.799  19.832  0.00  0.00    +0.000 HD
BRANCH  21  26
ATOM     26  C   UNK     1       9.371  12.574  21.916  0.00  0.00    +0.000 C 
ATOM     27  O   UNK     1       9.172  13.782  21.918  0.00  0.00    +0.000 OA
BRANCH  26  28
ATOM     28  O   UNK     1       9.179  11.784  23.003  0.00  0.00    +0.000 OA
ATOM     29  H   UNK     1       8.203  11.697  23.134  0.00  0.00    +0.000 HD
ENDBRANCH  26  28
ENDBRANCH  21  26
ENDBRANCH  18  19
ENDBRANCH  17  18
ENDBRANCH  16  17
ENDBRANCH   1  16
TORSDOF 13
ENDMDL
MODEL 8
REMARK VINA RESULT:      -5.9      1.123      1.407
REMARK  Name = 
REMARK  14 active torsions:
REMARK  status: ('A' for Active; 'I' for Inactive)
REMARK    1  A    between atoms: C_1  and  S_2
REMARK    2  A    between atoms: S_2  and  O_5
REMARK    3  A    between atoms: O_5  and  C_6
REMARK    4  A    between atoms: C_6  and  C_7
REMARK    5  A    between atoms: C_7  and  N_8
REMARK    6  A    between atoms: N_8  and  P_9
REMARK    7  A    between atoms: P_9  and  N_11
REMARK    8  A    between atoms: P_9  and  O_14
REMARK    9  A    between atoms: N_11  and  C_12
REMARK   10  A    between atoms: O_14  and  C_15
REMARK   11  A    between atoms: C_15  and  C_16
REMARK   12  A    between atoms: C_16  and  C_17
REMARK   13  A    between atoms: C_19  and  C_20
REMARK   14  A    between atoms: C_20  and  O_22
REMARK                            x       y       z     vdW  Elec       q    Type
REMARK                         _______ _______ _______ _____ _____    ______ ____
ROOT
ATOM      1  P   UNK     1       6.297   5.858  17.079  0.00  0.00    +0.000 P 
ATOM      2  O   UNK     1       4.904   6.252  16.579  0.00  0.00    +0.000 OA
ENDROOT
BRANCH   1   3
ATOM      3  N   UNK     1       6.766   7.574  17.014  0.00  0.00    +0.000 NA
ATOM      4  H   UNK     1       6.788   7.818  16.027  0.00  0.00    +0.000 HD
BRANCH   3   5
ATOM      5  C   UNK     1       7.980   8.083  17.643  0.00  0.00    +0.000 C 
BRANCH   5   6
ATOM      6  C   UNK     1       8.058   9.585  17.961  0.00  0.00    +0.000 C 
BRANCH   6   7
ATOM      7  O   UNK     1       9.413   9.869  18.330  0.00  0.00    +0.000 OA
BRANCH   7   9
ATOM      8  C   UNK     1       8.809  12.351  18.077  0.00  0.00    +0.000 C 
ATOM      9  S   UNK     1       9.713  11.249  19.144  0.00  0.00    +0.000 S 
ATOM     10  O   UNK     1      11.120  11.556  19.028  0.00  0.00    +0.000 OA
ATOM     11  O   UNK     1       9.034  11.197  20.423  0.00  0.00    +0.000 OA
ENDBRANCH   7   9
ENDBRANCH   6   7
ENDBRANCH   5   6
ENDBRANCH   3   5
ENDBRANCH   1   3
BRANCH   1  12
ATOM     12  N   UNK     1       7.261   5.578  15.768  0.00  0.00    +0.000 NA
ATOM     13  H   UNK     1       8.234   5.451  16.005  0.00  0.00    +0.000 HD
BRANCH  12  14
ATOM     14  C   UNK     1       6.834   4.774  14.666  0.00  0.00    +0.000 C 
ATOM     15 CL   UNK     1       7.781   5.239  13.248  0.00  0.00    +0.000 Cl
ENDBRANCH  12  14
ENDBRANCH   1  12
BRANCH   1  16
ATOM     16  O   UNK     1       5.841   4.190  17.141  0.00  0.00    +0.000 OA
BRANCH  16  17
ATOM     17  C   UNK     1       4.443   4.038  16.878  0.00  0.00    +0.000 C 
BRANCH  17  18
ATOM     18  C   UNK     1       3.812   3.137  17.925  0.00  0.00    +0.000 C 
BRANCH  18  19
ATOM     19  C   UNK     1       4.047   3.634  19.366  0.00  0.00    +0.000 C 
ATOM     20  N   UNK     1       3.830   5.079  19.532  0.00  0.00    +0.000 NA
ATOM     21  C   UNK     1       2.423   5.493  19.265  0.00  0.00    +0.000 C 
ATOM     22  C   UNK     1       1.412   4.827  20.202  0.00  0.00    +0.000 C 
ATOM     23  C   UNK     1       1.453   3.310  20.177  0.00  0.00    +0.000 C 
ATOM     24  S   UNK     1       3.102   2.725  20.627  0.00  0.00    +0.000 S 
ATOM     25  H   UNK     1       4.432   5.551  18.852  0.00  0.00    +0.000 HD
BRANCH  21  26
ATOM     26  C   UNK     1       2.323   7.005  19.478  0.00  0.00    +0.000 C 
ATOM     27  O   UNK     1       1.832   7.537  20.466  0.00  0.00    +0.000 OA
BRANCH  26  28
ATOM     28  O   UNK     1       2.883   7.702  18.456  0.00  0.00    +0.000 OA
ATOM     29  H   UNK     1       3.864   7.616  18.545  0.00  0.00    +0.000 HD
ENDBRANCH  26  28
ENDBRANCH  21  26
ENDBRANCH  18  19
ENDBRANCH  17  18
ENDBRANCH  16  17
ENDBRANCH   1  16
TORSDOF 13
ENDMDL
MODEL 9
REMARK VINA RESULT:      -5.9      1.977      2.789
REMARK  Name = 
REMARK  14 active torsions:
REMARK  status: ('A' for Active; 'I' for Inactive)
REMARK    1  A    between atoms: C_1  and  S_2
REMARK    2  A    between atoms: S_2  and  O_5
REMARK    3  A    between atoms: O_5  and  C_6
REMARK    4  A    between atoms: C_6  and  C_7
REMARK    5  A    between atoms: C_7  and  N_8
REMARK    6  A    between atoms: N_8  and  P_9
REMARK    7  A    between atoms: P_9  and  N_11
REMARK    8  A    between atoms: P_9  and  O_14
REMARK    9  A    between atoms: N_11  and  C_12
REMARK   10  A    between atoms: O_14  and  C_15
REMARK   11  A    between atoms: C_15  and  C_16
REMARK   12  A    between atoms: C_16  and  C_17
REMARK   13  A    between atoms: C_19  and  C_20
REMARK   14  A    between atoms: C_20  and  O_22
REMARK                            x       y       z     vdW  Elec       q    Type
REMARK                         _______ _______ _______ _____ _____    ______ ____
ROOT
ATOM      1  P   UNK     1       5.782   6.173  16.901  0.00  0.00    +0.000 P 
ATOM      2  O   UNK     1       5.533   7.039  15.663  0.00  0.00    +0.000 OA
ENDROOT
BRANCH   1   3
ATOM      3  N   UNK     1       7.452   6.786  16.950  0.00  0.00    +0.000 NA
ATOM      4  H   UNK     1       8.049   5.964  16.933  0.00  0.00    +0.000 HD
BRANCH   3   5
ATOM      5  C   UNK     1       7.931   7.685  17.996  0.00  0.00    +0.000 C 
BRANCH   5   6
ATOM      6  C   UNK     1       7.973   9.192  17.694  0.00  0.00    +0.000 C 
BRANCH   6   7
ATOM      7  O   UNK     1       8.944   9.772  18.574  0.00  0.00    +0.000 OA
BRANCH   7   9
ATOM      8  C   UNK     1      10.795  11.374  17.800  0.00  0.00    +0.000 C 
ATOM      9  S   UNK     1       9.164  11.385  18.516  0.00  0.00    +0.000 S 
ATOM     10  O   UNK     1       9.264  11.886  19.868  0.00  0.00    +0.000 OA
ATOM     11  O   UNK     1       8.247  11.950  17.548  0.00  0.00    +0.000 OA
ENDBRANCH   7   9
ENDBRANCH   6   7
ENDBRANCH   5   6
ENDBRANCH   3   5
ENDBRANCH   1   3
BRANCH   1  12
ATOM     12  N   UNK     1       6.367   4.711  16.406  0.00  0.00    +0.000 NA
ATOM     13  H   UNK     1       6.943   4.254  17.098  0.00  0.00    +0.000 HD
BRANCH  12  14
ATOM     14  C   UNK     1       5.586   3.802  15.627  0.00  0.00    +0.000 C 
ATOM     15 CL   UNK     1       6.244   3.781  13.987  0.00  0.00    +0.000 Cl
ENDBRANCH  12  14
ENDBRANCH   1  12
BRANCH   1  16
ATOM     16  O   UNK     1       4.158   5.578  16.853  0.00  0.00    +0.000 OA
BRANCH  16  17
ATOM     17  C   UNK     1       3.411   6.054  17.977  0.00  0.00    +0.000 C 
BRANCH  17  18
ATOM     18  C   UNK     1       2.010   5.468  17.956  0.00  0.00    +0.000 C 
BRANCH  18  19
ATOM     19  C   UNK     1       2.005   3.934  17.795  0.00  0.00    +0.000 C 
ATOM     20  N   UNK     1       3.266   3.295  18.197  0.00  0.00    +0.000 NA
ATOM     21  C   UNK     1       3.576   3.474  19.644  0.00  0.00    +0.000 C 
ATOM     22  C   UNK     1       2.512   2.871  20.566  0.00  0.00    +0.000 C 
ATOM     23  C   UNK     1       1.114   3.411  20.330  0.00  0.00    +0.000 C 
ATOM     24  S   UNK     1       0.609   3.107  18.621  0.00  0.00    +0.000 S 
ATOM     25  H   UNK     1       4.012   3.743  17.657  0.00  0.00    +0.000 HD
BRANCH  21  26
ATOM     26  C   UNK     1       4.898   2.762  19.940  0.00  0.00    +0.000 C 
ATOM     27  O   UNK     1       5.027   1.835  20.729  0.00  0.00    +0.000 OA
BRANCH  26  28
ATOM     28  O   UNK     1       5.919   3.251  19.190  0.00  0.00    +0.000 OA
ATOM     29  H   UNK     1       5.708   4.195  18.985  0.00  0.00    +0.000 HD
ENDBRANCH  26  28
ENDBRANCH  21  26
ENDBRANCH  18  19
ENDBRANCH  17  18
ENDBRANCH  16  17
ENDBRANCH   1  16
TORSDOF 13
ENDMDL
