MODEL 1
REMARK VINA RESULT:      -8.2      0.000      0.000
REMARK  Name = 
REMARK  8 active torsions:
REMARK  status: ('A' for Active; 'I' for Inactive)
REMARK    1  A    between atoms: C_1  and  O_2
REMARK    2  A    between atoms: O_2  and  C_3
REMARK    3  A    between atoms: C_6  and  N_7
REMARK    4  A    between atoms: C_9  and  C_10
REMARK    5  A    between atoms: C_15  and  C_16
REMARK    6  A    between atoms: C_19  and  N_20
REMARK    7  A    between atoms: N_20  and  S_21
REMARK    8  A    between atoms: S_21  and  C_22
REMARK                            x       y       z     vdW  Elec       q    Type
REMARK                         _______ _______ _______ _____ _____    ______ ____
ROOT
ATOM      1  N   UNL     1       3.269   4.911  19.087  0.00  0.00    +0.000 N 
ATOM      2  N   UNL     1       3.112   3.624  19.490  0.00  0.00    +0.000 NA
ATOM      3  C   UNL     1       2.234   3.680  20.509  0.00  0.00    +0.000 A 
ATOM      4  C   UNL     1       1.703   4.985  20.638  0.00  0.00    +0.000 A 
ATOM      5  C   UNL     1       2.368   5.765  19.713  0.00  0.00    +0.000 A 
ENDROOT
BRANCH   1   9
ATOM      6  C   UNL     1       6.426   5.800  16.447  0.00  0.00    +0.000 A 
ATOM      7  C   UNL     1       5.259   5.199  15.970  0.00  0.00    +0.000 A 
ATOM      8  C   UNL     1       4.195   4.922  16.831  0.00  0.00    +0.000 A 
ATOM      9  C   UNL     1       4.316   5.242  18.185  0.00  0.00    +0.000 A 
ATOM     10  C   UNL     1       5.474   5.875  18.658  0.00  0.00    +0.000 A 
ATOM     11  C   UNL     1       6.527   6.147  17.792  0.00  0.00    +0.000 A 
BRANCH   6  13
ATOM     12  C   UNL     1       7.295   5.176  14.351  0.00  0.00    +0.000 C 
ATOM     13  O   UNL     1       7.423   5.965  15.527  0.00  0.00    +0.000 OA
ENDBRANCH   6  13
ENDBRANCH   1   9
BRANCH   5  14
ATOM     14  C   UNL     1       2.132   7.168  19.359  0.00  0.00    +0.000 A 
ATOM     15  C   UNL     1       2.361   7.629  18.057  0.00  0.00    +0.000 A 
ATOM     16  C   UNL     1       2.082   8.956  17.736  0.00  0.00    +0.000 A 
ATOM     17  C   UNL     1       1.565   9.823  18.687  0.00  0.00    +0.000 A 
ATOM     18  C   UNL     1       1.381   9.394  19.993  0.00  0.00    +0.000 A 
ATOM     19  C   UNL     1       1.670   8.077  20.324  0.00  0.00    +0.000 A 
BRANCH  17  20
ATOM     20  N   UNL     1       1.262  11.152  18.281  0.00  0.00    +0.000 N 
ATOM     21  H   UNL     1       2.005  11.764  17.953  0.00  0.00    +0.000 HD
BRANCH  20  22
ATOM     22  S   UNL     1      -0.148  11.909  18.800  0.00  0.00    +0.000 S 
ATOM     23  C   UNL     1      -1.394  10.811  18.162  0.00  0.00    +0.000 C 
ATOM     24  O   UNL     1      -0.210  11.923  20.239  0.00  0.00    +0.000 OA
ATOM     25  O   UNL     1      -0.224  13.135  18.041  0.00  0.00    +0.000 OA
ENDBRANCH  20  22
ENDBRANCH  17  20
ENDBRANCH   5  14
BRANCH   3  26
ATOM     26  C   UNL     1       1.860   2.499  21.361  0.00  0.00    +0.000 C 
ATOM     27  F   UNL     1       0.846   2.738  22.224  0.00  0.00    +0.000 F 
ATOM     28  F   UNL     1       1.475   1.441  20.588  0.00  0.00    +0.000 F 
ATOM     29  F   UNL     1       2.918   2.060  22.094  0.00  0.00    +0.000 F 
ENDBRANCH   3  26
TORSDOF 6
ENDMDL
MODEL 2
REMARK VINA RESULT:      -8.1      1.021      1.441
REMARK  Name = 
REMARK  8 active torsions:
REMARK  status: ('A' for Active; 'I' for Inactive)
REMARK    1  A    between atoms: C_1  and  O_2
REMARK    2  A    between atoms: O_2  and  C_3
REMARK    3  A    between atoms: C_6  and  N_7
REMARK    4  A    between atoms: C_9  and  C_10
REMARK    5  A    between atoms: C_15  and  C_16
REMARK    6  A    between atoms: C_19  and  N_20
REMARK    7  A    between atoms: N_20  and  S_21
REMARK    8  A    between atoms: S_21  and  C_22
REMARK                            x       y       z     vdW  Elec       q    Type
REMARK                         _______ _______ _______ _____ _____    ______ ____
ROOT
ATOM      1  N   UNL     1       3.419   5.200  19.322  0.00  0.00    +0.000 N 
ATOM      2  N   UNL     1       3.349   3.879  19.629  0.00  0.00    +0.000 NA
ATOM      3  C   UNL     1       2.294   3.768  20.458  0.00  0.00    +0.000 A 
ATOM      4  C   UNL     1       1.591   4.993  20.538  0.00  0.00    +0.000 A 
ATOM      5  C   UNL     1       2.316   5.904  19.796  0.00  0.00    +0.000 A 
ENDROOT
BRANCH   1   9
ATOM      6  C   UNL     1       6.797   6.806  17.390  0.00  0.00    +0.000 A 
ATOM      7  C   UNL     1       6.930   6.170  18.626  0.00  0.00    +0.000 A 
ATOM      8  C   UNL     1       5.822   5.611  19.265  0.00  0.00    +0.000 A 
ATOM      9  C   UNL     1       4.568   5.708  18.657  0.00  0.00    +0.000 A 
ATOM     10  C   UNL     1       4.439   6.318  17.402  0.00  0.00    +0.000 A 
ATOM     11  C   UNL     1       5.550   6.870  16.774  0.00  0.00    +0.000 A 
BRANCH   6  13
ATOM     12  C   UNL     1       8.310   8.607  17.485  0.00  0.00    +0.000 C 
ATOM     13  O   UNL     1       7.938   7.370  16.890  0.00  0.00    +0.000 OA
ENDBRANCH   6  13
ENDBRANCH   1   9
BRANCH   5  14
ATOM     14  C   UNL     1       1.980   7.291  19.464  0.00  0.00    +0.000 A 
ATOM     15  C   UNL     1       2.070   7.758  18.148  0.00  0.00    +0.000 A 
ATOM     16  C   UNL     1       1.698   9.068  17.854  0.00  0.00    +0.000 A 
ATOM     17  C   UNL     1       1.223   9.912  18.847  0.00  0.00    +0.000 A 
ATOM     18  C   UNL     1       1.176   9.479  20.164  0.00  0.00    +0.000 A 
ATOM     19  C   UNL     1       1.559   8.180  20.467  0.00  0.00    +0.000 A 
BRANCH  17  20
ATOM     20  N   UNL     1       0.819  11.222  18.469  0.00  0.00    +0.000 N 
ATOM     21  H   UNL     1       1.512  11.959  18.376  0.00  0.00    +0.000 HD
BRANCH  20  22
ATOM     22  S   UNL     1      -0.774  11.723  18.676  0.00  0.00    +0.000 S 
ATOM     23  C   UNL     1      -1.657  10.480  17.759  0.00  0.00    +0.000 C 
ATOM     24  O   UNL     1      -1.147  11.651  20.065  0.00  0.00    +0.000 OA
ATOM     25  O   UNL     1      -0.883  12.961  17.940  0.00  0.00    +0.000 OA
ENDBRANCH  20  22
ENDBRANCH  17  20
ENDBRANCH   5  14
BRANCH   3  26
ATOM     26  C   UNL     1       1.915   2.497  21.168  0.00  0.00    +0.000 C 
ATOM     27  F   UNL     1       0.842   2.618  21.982  0.00  0.00    +0.000 F 
ATOM     28  F   UNL     1       1.620   1.508  20.274  0.00  0.00    +0.000 F 
ATOM     29  F   UNL     1       2.943   2.025  21.923  0.00  0.00    +0.000 F 
ENDBRANCH   3  26
TORSDOF 6
ENDMDL
MODEL 3
REMARK VINA RESULT:      -8.0      1.050      1.277
REMARK  Name = 
REMARK  8 active torsions:
REMARK  status: ('A' for Active; 'I' for Inactive)
REMARK    1  A    between atoms: C_1  and  O_2
REMARK    2  A    between atoms: O_2  and  C_3
REMARK    3  A    between atoms: C_6  and  N_7
REMARK    4  A    between atoms: C_9  and  C_10
REMARK    5  A    between atoms: C_15  and  C_16
REMARK    6  A    between atoms: C_19  and  N_20
REMARK    7  A    between atoms: N_20  and  S_21
REMARK    8  A    between atoms: S_21  and  C_22
REMARK                            x       y       z     vdW  Elec       q    Type
REMARK                         _______ _______ _______ _____ _____    ______ ____
ROOT
ATOM      1  N   UNL     1       3.324   4.931  19.104  0.00  0.00    +0.000 N 
ATOM      2  N   UNL     1       3.188   3.653  19.540  0.00  0.00    +0.000 NA
ATOM      3  C   UNL     1       2.303   3.720  20.552  0.00  0.00    +0.000 A 
ATOM      4  C   UNL     1       1.746   5.017  20.642  0.00  0.00    +0.000 A 
ATOM      5  C   UNL     1       2.402   5.785  19.700  0.00  0.00    +0.000 A 
ENDROOT
BRANCH   1   9
ATOM      6  C   UNL     1       6.475   5.804  16.452  0.00  0.00    +0.000 A 
ATOM      7  C   UNL     1       5.275   5.276  15.969  0.00  0.00    +0.000 A 
ATOM      8  C   UNL     1       4.214   5.007  16.835  0.00  0.00    +0.000 A 
ATOM      9  C   UNL     1       4.370   5.258  18.199  0.00  0.00    +0.000 A 
ATOM     10  C   UNL     1       5.562   5.817  18.680  0.00  0.00    +0.000 A 
ATOM     11  C   UNL     1       6.613   6.083  17.809  0.00  0.00    +0.000 A 
BRANCH   6  13
ATOM     12  C   UNL     1       7.371   5.118  14.386  0.00  0.00    +0.000 C 
ATOM     13  O   UNL     1       7.464   5.968  15.522  0.00  0.00    +0.000 OA
ENDBRANCH   6  13
ENDBRANCH   1   9
BRANCH   5  14
ATOM     14  C   UNL     1       2.142   7.173  19.307  0.00  0.00    +0.000 A 
ATOM     15  C   UNL     1       2.466   7.629  18.024  0.00  0.00    +0.000 A 
ATOM     16  C   UNL     1       2.163   8.940  17.661  0.00  0.00    +0.000 A 
ATOM     17  C   UNL     1       1.530   9.795  18.550  0.00  0.00    +0.000 A 
ATOM     18  C   UNL     1       1.249   9.372  19.841  0.00  0.00    +0.000 A 
ATOM     19  C   UNL     1       1.561   8.072  20.215  0.00  0.00    +0.000 A 
BRANCH  17  20
ATOM     20  N   UNL     1       1.210  11.106  18.100  0.00  0.00    +0.000 N 
ATOM     21  H   UNL     1       0.920  11.254  17.137  0.00  0.00    +0.000 HD
BRANCH  20  22
ATOM     22  S   UNL     1       1.781  12.459  18.920  0.00  0.00    +0.000 S 
ATOM     23  C   UNL     1       0.532  13.663  18.526  0.00  0.00    +0.000 C 
ATOM     24  O   UNL     1       1.787  12.220  20.340  0.00  0.00    +0.000 OA
ATOM     25  O   UNL     1       2.987  12.846  18.226  0.00  0.00    +0.000 OA
ENDBRANCH  20  22
ENDBRANCH  17  20
ENDBRANCH   5  14
BRANCH   3  26
ATOM     26  C   UNL     1       1.945   2.555  21.433  0.00  0.00    +0.000 C 
ATOM     27  F   UNL     1       2.983   2.064  22.149  0.00  0.00    +0.000 F 
ATOM     28  F   UNL     1       0.978   2.903  22.333  0.00  0.00    +0.000 F 
ATOM     29  F   UNL     1       1.430   1.525  20.710  0.00  0.00    +0.000 F 
ENDBRANCH   3  26
TORSDOF 6
ENDMDL
MODEL 4
REMARK VINA RESULT:      -7.9      1.224      1.833
REMARK  Name = 
REMARK  8 active torsions:
REMARK  status: ('A' for Active; 'I' for Inactive)
REMARK    1  A    between atoms: C_1  and  O_2
REMARK    2  A    between atoms: O_2  and  C_3
REMARK    3  A    between atoms: C_6  and  N_7
REMARK    4  A    between atoms: C_9  and  C_10
REMARK    5  A    between atoms: C_15  and  C_16
REMARK    6  A    between atoms: C_19  and  N_20
REMARK    7  A    between atoms: N_20  and  S_21
REMARK    8  A    between atoms: S_21  and  C_22
REMARK                            x       y       z     vdW  Elec       q    Type
REMARK                         _______ _______ _______ _____ _____    ______ ____
ROOT
ATOM      1  N   UNL     1       3.381   5.187  19.318  0.00  0.00    +0.000 N 
ATOM      2  N   UNL     1       3.304   3.861  19.602  0.00  0.00    +0.000 NA
ATOM      3  C   UNL     1       2.257   3.743  20.440  0.00  0.00    +0.000 A 
ATOM      4  C   UNL     1       1.565   4.972  20.549  0.00  0.00    +0.000 A 
ATOM      5  C   UNL     1       2.290   5.890  19.816  0.00  0.00    +0.000 A 
ENDROOT
BRANCH   1   9
ATOM      6  C   UNL     1       6.750   6.802  17.377  0.00  0.00    +0.000 A 
ATOM      7  C   UNL     1       6.886   6.178  18.620  0.00  0.00    +0.000 A 
ATOM      8  C   UNL     1       5.781   5.617  19.262  0.00  0.00    +0.000 A 
ATOM      9  C   UNL     1       4.528   5.697  18.651  0.00  0.00    +0.000 A 
ATOM     10  C   UNL     1       4.397   6.295  17.390  0.00  0.00    +0.000 A 
ATOM     11  C   UNL     1       5.504   6.850  16.759  0.00  0.00    +0.000 A 
BRANCH   6  13
ATOM     12  C   UNL     1       8.279   8.588  17.496  0.00  0.00    +0.000 C 
ATOM     13  O   UNL     1       7.888   7.370  16.875  0.00  0.00    +0.000 OA
ENDBRANCH   6  13
ENDBRANCH   1   9
BRANCH   5  14
ATOM     14  C   UNL     1       1.961   7.286  19.513  0.00  0.00    +0.000 A 
ATOM     15  C   UNL     1       2.020   7.771  18.202  0.00  0.00    +0.000 A 
ATOM     16  C   UNL     1       1.655   9.089  17.936  0.00  0.00    +0.000 A 
ATOM     17  C   UNL     1       1.219   9.924  18.953  0.00  0.00    +0.000 A 
ATOM     18  C   UNL     1       1.204   9.473  20.265  0.00  0.00    +0.000 A 
ATOM     19  C   UNL     1       1.580   8.165  20.540  0.00  0.00    +0.000 A 
BRANCH  17  20
ATOM     20  N   UNL     1       0.820  11.244  18.606  0.00  0.00    +0.000 N 
ATOM     21  H   UNL     1       1.496  12.003  18.640  0.00  0.00    +0.000 HD
BRANCH  20  22
ATOM     22  S   UNL     1      -0.801  11.691  18.645  0.00  0.00    +0.000 S 
ATOM     23  C   UNL     1      -1.003  12.131  20.357  0.00  0.00    +0.000 C 
ATOM     24  O   UNL     1      -1.022  12.852  17.822  0.00  0.00    +0.000 OA
ATOM     25  O   UNL     1      -1.539  10.470  18.423  0.00  0.00    +0.000 OA
ENDBRANCH  20  22
ENDBRANCH  17  20
ENDBRANCH   5  14
BRANCH   3  26
ATOM     26  C   UNL     1       1.875   2.463  21.131  0.00  0.00    +0.000 C 
ATOM     27  F   UNL     1       1.578   1.447  20.288  0.00  0.00    +0.000 F 
ATOM     28  F   UNL     1       2.887   2.022  21.935  0.00  0.00    +0.000 F 
ATOM     29  F   UNL     1       0.800   2.640  21.945  0.00  0.00    +0.000 F 
ENDBRANCH   3  26
TORSDOF 6
ENDMDL
MODEL 5
REMARK VINA RESULT:      -7.9      0.721      1.167
REMARK  Name = 
REMARK  8 active torsions:
REMARK  status: ('A' for Active; 'I' for Inactive)
REMARK    1  A    between atoms: C_1  and  O_2
REMARK    2  A    between atoms: O_2  and  C_3
REMARK    3  A    between atoms: C_6  and  N_7
REMARK    4  A    between atoms: C_9  and  C_10
REMARK    5  A    between atoms: C_15  and  C_16
REMARK    6  A    between atoms: C_19  and  N_20
REMARK    7  A    between atoms: N_20  and  S_21
REMARK    8  A    between atoms: S_21  and  C_22
REMARK                            x       y       z     vdW  Elec       q    Type
REMARK                         _______ _______ _______ _____ _____    ______ ____
ROOT
ATOM      1  N   UNL     1       3.260   4.933  19.132  0.00  0.00    +0.000 N 
ATOM      2  N   UNL     1       3.106   3.641  19.521  0.00  0.00    +0.000 NA
ATOM      3  C   UNL     1       2.211   3.681  20.525  0.00  0.00    +0.000 A 
ATOM      4  C   UNL     1       1.668   4.980  20.657  0.00  0.00    +0.000 A 
ATOM      5  C   UNL     1       2.341   5.774  19.750  0.00  0.00    +0.000 A 
ENDROOT
BRANCH   1   9
ATOM      6  C   UNL     1       6.445   5.865  16.542  0.00  0.00    +0.000 A 
ATOM      7  C   UNL     1       5.229   5.409  16.026  0.00  0.00    +0.000 A 
ATOM      8  C   UNL     1       4.157   5.121  16.873  0.00  0.00    +0.000 A 
ATOM      9  C   UNL     1       4.319   5.281  18.251  0.00  0.00    +0.000 A 
ATOM     10  C   UNL     1       5.528   5.768  18.766  0.00  0.00    +0.000 A 
ATOM     11  C   UNL     1       6.588   6.053  17.914  0.00  0.00    +0.000 A 
BRANCH   6  13
ATOM     12  C   UNL     1       7.431   5.149  14.528  0.00  0.00    +0.000 C 
ATOM     13  O   UNL     1       7.441   6.054  15.625  0.00  0.00    +0.000 OA
ENDBRANCH   6  13
ENDBRANCH   1   9
BRANCH   5  14
ATOM     14  C   UNL     1       2.099   7.178  19.404  0.00  0.00    +0.000 A 
ATOM     15  C   UNL     1       2.265   7.634  18.092  0.00  0.00    +0.000 A 
ATOM     16  C   UNL     1       1.981   8.963  17.782  0.00  0.00    +0.000 A 
ATOM     17  C   UNL     1       1.522   9.837  18.755  0.00  0.00    +0.000 A 
ATOM     18  C   UNL     1       1.402   9.412  20.070  0.00  0.00    +0.000 A 
ATOM     19  C   UNL     1       1.696   8.094  20.390  0.00  0.00    +0.000 A 
BRANCH  17  20
ATOM     20  N   UNL     1       1.210  11.167  18.362  0.00  0.00    +0.000 N 
ATOM     21  H   UNL     1       1.957  11.810  18.111  0.00  0.00    +0.000 HD
BRANCH  20  22
ATOM     22  S   UNL     1      -0.260  11.867  18.785  0.00  0.00    +0.000 S 
ATOM     23  C   UNL     1       0.078  12.423  20.441  0.00  0.00    +0.000 C 
ATOM     24  O   UNL     1      -0.537  13.002  17.943  0.00  0.00    +0.000 OA
ATOM     25  O   UNL     1      -1.192  10.768  18.881  0.00  0.00    +0.000 OA
ENDBRANCH  20  22
ENDBRANCH  17  20
ENDBRANCH   5  14
BRANCH   3  26
ATOM     26  C   UNL     1       1.833   2.489  21.361  0.00  0.00    +0.000 C 
ATOM     27  F   UNL     1       1.407   1.424  20.644  0.00  0.00    +0.000 F 
ATOM     28  F   UNL     1       2.893   2.061  22.108  0.00  0.00    +0.000 F 
ATOM     29  F   UNL     1       0.849   2.797  22.248  0.00  0.00    +0.000 F 
ENDBRANCH   3  26
TORSDOF 6
ENDMDL
MODEL 6
REMARK VINA RESULT:      -7.9      1.512      2.175
REMARK  Name = 
REMARK  8 active torsions:
REMARK  status: ('A' for Active; 'I' for Inactive)
REMARK    1  A    between atoms: C_1  and  O_2
REMARK    2  A    between atoms: O_2  and  C_3
REMARK    3  A    between atoms: C_6  and  N_7
REMARK    4  A    between atoms: C_9  and  C_10
REMARK    5  A    between atoms: C_15  and  C_16
REMARK    6  A    between atoms: C_19  and  N_20
REMARK    7  A    between atoms: N_20  and  S_21
REMARK    8  A    between atoms: S_21  and  C_22
REMARK                            x       y       z     vdW  Elec       q    Type
REMARK                         _______ _______ _______ _____ _____    ______ ____
ROOT
ATOM      1  N   UNL     1       3.428   5.079  18.464  0.00  0.00    +0.000 N 
ATOM      2  N   UNL     1       3.319   3.732  18.333  0.00  0.00    +0.000 NA
ATOM      3  C   UNL     1       2.202   3.403  19.009  0.00  0.00    +0.000 A 
ATOM      4  C   UNL     1       1.510   4.565  19.423  0.00  0.00    +0.000 A 
ATOM      5  C   UNL     1       2.300   5.637  19.058  0.00  0.00    +0.000 A 
ENDROOT
BRANCH   1   9
ATOM      6  C   UNL     1       6.950   7.099  17.351  0.00  0.00    +0.000 A 
ATOM      7  C   UNL     1       6.911   6.351  18.530  0.00  0.00    +0.000 A 
ATOM      8  C   UNL     1       5.757   5.656  18.897  0.00  0.00    +0.000 A 
ATOM      9  C   UNL     1       4.630   5.728  18.075  0.00  0.00    +0.000 A 
ATOM     10  C   UNL     1       4.680   6.453  16.876  0.00  0.00    +0.000 A 
ATOM     11  C   UNL     1       5.834   7.140  16.520  0.00  0.00    +0.000 A 
BRANCH   6  13
ATOM     12  C   UNL     1       8.276   8.962  17.912  0.00  0.00    +0.000 C 
ATOM     13  O   UNL     1       8.109   7.787  17.127  0.00  0.00    +0.000 OA
ENDBRANCH   6  13
ENDBRANCH   1   9
BRANCH   5  14
ATOM     14  C   UNL     1       2.007   7.070  19.159  0.00  0.00    +0.000 A 
ATOM     15  C   UNL     1       2.042   7.892  18.027  0.00  0.00    +0.000 A 
ATOM     16  C   UNL     1       1.711   9.240  18.144  0.00  0.00    +0.000 A 
ATOM     17  C   UNL     1       1.331   9.775  19.366  0.00  0.00    +0.000 A 
ATOM     18  C   UNL     1       1.341   8.984  20.505  0.00  0.00    +0.000 A 
ATOM     19  C   UNL     1       1.684   7.643  20.399  0.00  0.00    +0.000 A 
BRANCH  17  20
ATOM     20  N   UNL     1       0.964  11.149  19.405  0.00  0.00    +0.000 N 
ATOM     21  H   UNL     1       1.628  11.841  19.742  0.00  0.00    +0.000 HD
BRANCH  20  22
ATOM     22  S   UNL     1      -0.655  11.606  19.415  0.00  0.00    +0.000 S 
ATOM     23  C   UNL     1      -0.628  13.023  18.340  0.00  0.00    +0.000 C 
ATOM     24  O   UNL     1      -1.471  10.574  18.830  0.00  0.00    +0.000 OA
ATOM     25  O   UNL     1      -0.908  12.085  20.754  0.00  0.00    +0.000 OA
ENDBRANCH  20  22
ENDBRANCH  17  20
ENDBRANCH   5  14
BRANCH   3  26
ATOM     26  C   UNL     1       1.755   1.988  19.254  0.00  0.00    +0.000 C 
ATOM     27  F   UNL     1       2.648   1.050  18.864  0.00  0.00    +0.000 F 
ATOM     28  F   UNL     1       1.516   1.775  20.582  0.00  0.00    +0.000 F 
ATOM     29  F   UNL     1       0.584   1.721  18.616  0.00  0.00    +0.000 F 
ENDBRANCH   3  26
TORSDOF 6
ENDMDL
MODEL 7
REMARK VINA RESULT:      -7.8      1.460      2.053
REMARK  Name = 
REMARK  8 active torsions:
REMARK  status: ('A' for Active; 'I' for Inactive)
REMARK    1  A    between atoms: C_1  and  O_2
REMARK    2  A    between atoms: O_2  and  C_3
REMARK    3  A    between atoms: C_6  and  N_7
REMARK    4  A    between atoms: C_9  and  C_10
REMARK    5  A    between atoms: C_15  and  C_16
REMARK    6  A    between atoms: C_19  and  N_20
REMARK    7  A    between atoms: N_20  and  S_21
REMARK    8  A    between atoms: S_21  and  C_22
REMARK                            x       y       z     vdW  Elec       q    Type
REMARK                         _______ _______ _______ _____ _____    ______ ____
ROOT
ATOM      1  N   UNL     1       3.425   5.050  18.412  0.00  0.00    +0.000 N 
ATOM      2  N   UNL     1       3.302   3.700  18.322  0.00  0.00    +0.000 NA
ATOM      3  C   UNL     1       2.169   3.406  18.986  0.00  0.00    +0.000 A 
ATOM      4  C   UNL     1       1.483   4.589  19.350  0.00  0.00    +0.000 A 
ATOM      5  C   UNL     1       2.294   5.639  18.967  0.00  0.00    +0.000 A 
ENDROOT
BRANCH   1   9
ATOM      6  C   UNL     1       6.991   6.992  17.301  0.00  0.00    +0.000 A 
ATOM      7  C   UNL     1       6.910   6.315  18.520  0.00  0.00    +0.000 A 
ATOM      8  C   UNL     1       5.741   5.646  18.888  0.00  0.00    +0.000 A 
ATOM      9  C   UNL     1       4.643   5.672  18.026  0.00  0.00    +0.000 A 
ATOM     10  C   UNL     1       4.736   6.324  16.789  0.00  0.00    +0.000 A 
ATOM     11  C   UNL     1       5.904   6.986  16.431  0.00  0.00    +0.000 A 
BRANCH   6  13
ATOM     12  C   UNL     1       8.331   8.852  17.836  0.00  0.00    +0.000 C 
ATOM     13  O   UNL     1       8.161   7.663  17.075  0.00  0.00    +0.000 OA
ENDBRANCH   6  13
ENDBRANCH   1   9
BRANCH   5  14
ATOM     14  C   UNL     1       2.017   7.078  19.017  0.00  0.00    +0.000 A 
ATOM     15  C   UNL     1       2.071   7.861  17.859  0.00  0.00    +0.000 A 
ATOM     16  C   UNL     1       1.755   9.217  17.928  0.00  0.00    +0.000 A 
ATOM     17  C   UNL     1       1.372   9.797  19.128  0.00  0.00    +0.000 A 
ATOM     18  C   UNL     1       1.363   9.044  20.293  0.00  0.00    +0.000 A 
ATOM     19  C   UNL     1       1.691   7.696  20.235  0.00  0.00    +0.000 A 
BRANCH  17  20
ATOM     20  N   UNL     1       1.021  11.175  19.118  0.00  0.00    +0.000 N 
ATOM     21  H   UNL     1       1.664  11.864  19.499  0.00  0.00    +0.000 HD
BRANCH  20  22
ATOM     22  S   UNL     1      -0.588  11.651  18.990  0.00  0.00    +0.000 S 
ATOM     23  C   UNL     1      -0.997  11.972  20.691  0.00  0.00    +0.000 C 
ATOM     24  O   UNL     1      -0.691  12.872  18.232  0.00  0.00    +0.000 OA
ATOM     25  O   UNL     1      -1.306  10.465  18.589  0.00  0.00    +0.000 OA
ENDBRANCH  20  22
ENDBRANCH  17  20
ENDBRANCH   5  14
BRANCH   3  26
ATOM     26  C   UNL     1       1.699   2.006  19.267  0.00  0.00    +0.000 C 
ATOM     27  F   UNL     1       0.540   1.677  18.652  0.00  0.00    +0.000 F 
ATOM     28  F   UNL     1       2.629   1.089  18.865  0.00  0.00    +0.000 F 
ATOM     29  F   UNL     1       1.521   1.799  20.599  0.00  0.00    +0.000 F 
ENDBRANCH   3  26
TORSDOF 6
ENDMDL
MODEL 8
REMARK VINA RESULT:      -7.8      0.197      1.171
REMARK  Name = 
REMARK  8 active torsions:
REMARK  status: ('A' for Active; 'I' for Inactive)
REMARK    1  A    between atoms: C_1  and  O_2
REMARK    2  A    between atoms: O_2  and  C_3
REMARK    3  A    between atoms: C_6  and  N_7
REMARK    4  A    between atoms: C_9  and  C_10
REMARK    5  A    between atoms: C_15  and  C_16
REMARK    6  A    between atoms: C_19  and  N_20
REMARK    7  A    between atoms: N_20  and  S_21
REMARK    8  A    between atoms: S_21  and  C_22
REMARK                            x       y       z     vdW  Elec       q    Type
REMARK                         _______ _______ _______ _____ _____    ______ ____
ROOT
ATOM      1  N   UNL     1       3.292   4.847  19.057  0.00  0.00    +0.000 N 
ATOM      2  N   UNL     1       3.157   3.561  19.474  0.00  0.00    +0.000 NA
ATOM      3  C   UNL     1       2.288   3.615  20.501  0.00  0.00    +0.000 A 
ATOM      4  C   UNL     1       1.741   4.914  20.622  0.00  0.00    +0.000 A 
ATOM      5  C   UNL     1       2.385   5.695  19.684  0.00  0.00    +0.000 A 
ENDROOT
BRANCH   1   9
ATOM      6  C   UNL     1       6.411   5.756  16.380  0.00  0.00    +0.000 A 
ATOM      7  C   UNL     1       5.263   5.104  15.926  0.00  0.00    +0.000 A 
ATOM      8  C   UNL     1       4.211   4.819  16.798  0.00  0.00    +0.000 A 
ATOM      9  C   UNL     1       4.326   5.184  18.142  0.00  0.00    +0.000 A 
ATOM     10  C   UNL     1       5.464   5.867  18.590  0.00  0.00    +0.000 A 
ATOM     11  C   UNL     1       6.505   6.146  17.713  0.00  0.00    +0.000 A 
BRANCH   6  13
ATOM     12  C   UNL     1       7.299   5.091  14.304  0.00  0.00    +0.000 C 
ATOM     13  O   UNL     1       7.400   5.925  15.451  0.00  0.00    +0.000 OA
ENDBRANCH   6  13
ENDBRANCH   1   9
BRANCH   5  14
ATOM     14  C   UNL     1       2.126   7.091  19.318  0.00  0.00    +0.000 A 
ATOM     15  C   UNL     1       1.675   8.012  20.271  0.00  0.00    +0.000 A 
ATOM     16  C   UNL     1       1.484   9.343  19.907  0.00  0.00    +0.000 A 
ATOM     17  C   UNL     1       1.750   9.771  18.615  0.00  0.00    +0.000 A 
ATOM     18  C   UNL     1       2.148   8.860  17.648  0.00  0.00    +0.000 A 
ATOM     19  C   UNL     1       2.327   7.529  18.000  0.00  0.00    +0.000 A 
BRANCH  17  20
ATOM     20  N   UNL     1       1.576  11.152  18.323  0.00  0.00    +0.000 N 
ATOM     21  H   UNL     1       2.374  11.716  18.045  0.00  0.00    +0.000 HD
BRANCH  20  22
ATOM     22  S   UNL     1       0.242  11.993  18.910  0.00  0.00    +0.000 S 
ATOM     23  C   UNL     1      -1.100  10.995  18.303  0.00  0.00    +0.000 C 
ATOM     24  O   UNL     1       0.236  11.982  20.350  0.00  0.00    +0.000 OA
ATOM     25  O   UNL     1       0.222  13.236  18.176  0.00  0.00    +0.000 OA
ENDBRANCH  20  22
ENDBRANCH  17  20
ENDBRANCH   5  14
BRANCH   3  26
ATOM     26  C   UNL     1       1.939   2.437  21.368  0.00  0.00    +0.000 C 
ATOM     27  F   UNL     1       2.952   2.011  22.156  0.00  0.00    +0.000 F 
ATOM     28  F   UNL     1       0.895   2.734  22.197  0.00  0.00    +0.000 F 
ATOM     29  F   UNL     1       1.533   1.375  20.622  0.00  0.00    +0.000 F 
ENDBRANCH   3  26
TORSDOF 6
ENDMDL
MODEL 9
REMARK VINA RESULT:      -7.8      0.832      1.324
REMARK  Name = 
REMARK  8 active torsions:
REMARK  status: ('A' for Active; 'I' for Inactive)
REMARK    1  A    between atoms: C_1  and  O_2
REMARK    2  A    between atoms: O_2  and  C_3
REMARK    3  A    between atoms: C_6  and  N_7
REMARK    4  A    between atoms: C_9  and  C_10
REMARK    5  A    between atoms: C_15  and  C_16
REMARK    6  A    between atoms: C_19  and  N_20
REMARK    7  A    between atoms: N_20  and  S_21
REMARK    8  A    between atoms: S_21  and  C_22
REMARK                            x       y       z     vdW  Elec       q    Type
REMARK                         _______ _______ _______ _____ _____    ______ ____
ROOT
ATOM      1  N   UNL     1       3.293   4.879  19.045  0.00  0.00    +0.000 N 
ATOM      2  N   UNL     1       3.147   3.596  19.467  0.00  0.00    +0.000 NA
ATOM      3  C   UNL     1       2.274   3.660  20.490  0.00  0.00    +0.000 A 
ATOM      4  C   UNL     1       1.735   4.963  20.603  0.00  0.00    +0.000 A 
ATOM      5  C   UNL     1       2.389   5.736  19.664  0.00  0.00    +0.000 A 
ENDROOT
BRANCH   1   9
ATOM      6  C   UNL     1       6.430   5.755  16.378  0.00  0.00    +0.000 A 
ATOM      7  C   UNL     1       5.271   5.126  15.917  0.00  0.00    +0.000 A 
ATOM      8  C   UNL     1       4.213   4.853  16.787  0.00  0.00    +0.000 A 
ATOM      9  C   UNL     1       4.333   5.205  18.133  0.00  0.00    +0.000 A 
ATOM     10  C   UNL     1       5.483   5.865  18.588  0.00  0.00    +0.000 A 
ATOM     11  C   UNL     1       6.529   6.133  17.714  0.00  0.00    +0.000 A 
BRANCH   6  13
ATOM     12  C   UNL     1       7.290   5.114  14.282  0.00  0.00    +0.000 C 
ATOM     13  O   UNL     1       7.422   5.914  15.451  0.00  0.00    +0.000 OA
ENDBRANCH   6  13
ENDBRANCH   1   9
BRANCH   5  14
ATOM     14  C   UNL     1       2.141   7.132  19.291  0.00  0.00    +0.000 A 
ATOM     15  C   UNL     1       1.658   8.051  20.229  0.00  0.00    +0.000 A 
ATOM     16  C   UNL     1       1.478   9.383  19.860  0.00  0.00    +0.000 A 
ATOM     17  C   UNL     1       1.785   9.812  18.578  0.00  0.00    +0.000 A 
ATOM     18  C   UNL     1       2.215   8.902  17.624  0.00  0.00    +0.000 A 
ATOM     19  C   UNL     1       2.384   7.571  17.980  0.00  0.00    +0.000 A 
BRANCH  17  20
ATOM     20  N   UNL     1       1.619  11.193  18.281  0.00  0.00    +0.000 N 
ATOM     21  H   UNL     1       2.263  11.656  17.645  0.00  0.00    +0.000 HD
BRANCH  20  22
ATOM     22  S   UNL     1       0.747  12.195  19.313  0.00  0.00    +0.000 S 
ATOM     23  C   UNL     1       0.825  13.747  18.446  0.00  0.00    +0.000 C 
ATOM     24  O   UNL     1      -0.624  11.760  19.395  0.00  0.00    +0.000 OA
ATOM     25  O   UNL     1       1.559  12.322  20.499  0.00  0.00    +0.000 OA
ENDBRANCH  20  22
ENDBRANCH  17  20
ENDBRANCH   5  14
BRANCH   3  26
ATOM     26  C   UNL     1       1.914   2.489  21.360  0.00  0.00    +0.000 C 
ATOM     27  F   UNL     1       0.905   2.734  22.227  0.00  0.00    +0.000 F 
ATOM     28  F   UNL     1       1.529   1.418  20.603  0.00  0.00    +0.000 F 
ATOM     29  F   UNL     1       2.980   2.066  22.091  0.00  0.00    +0.000 F 
ENDBRANCH   3  26
TORSDOF 6
ENDMDL
