MODEL 1
REMARK VINA RESULT:      -7.6      0.000      0.000
REMARK  Name = 
REMARK  9 active torsions:
REMARK  status: ('A' for Active; 'I' for Inactive)
REMARK    1  A    between atoms: C_1  and  C_2
REMARK    2  A    between atoms: C_2  and  O_3
REMARK    3  A    between atoms: O_3  and  C_4
REMARK    4  A    between atoms: C_7  and  S_8
REMARK    5  A    between atoms: S_8  and  N_11
REMARK    6  A    between atoms: N_14  and  C_15
REMARK    7  A    between atoms: C_19  and  C_20
REMARK    8  A    between atoms: C_23  and  C_24
REMARK    9  A    between atoms: N_26  and  C_27
REMARK                            x       y       z     vdW  Elec       q    Type
REMARK                         _______ _______ _______ _____ _____    ______ ____
ROOT
ATOM      1  C   UNL     1       1.823   6.509  20.514  0.00  0.00    +0.000 A 
ATOM      2  C   UNL     1       0.883   7.263  21.241  0.00  0.00    +0.000 A 
ATOM      3  C   UNL     1       0.539   8.566  20.864  0.00  0.00    +0.000 A 
ATOM      4  C   UNL     1       1.133   9.142  19.745  0.00  0.00    +0.000 A 
ATOM      5  C   UNL     1       2.044   8.403  18.995  0.00  0.00    +0.000 A 
ATOM      6  C   UNL     1       2.415   7.089  19.371  0.00  0.00    +0.000 A 
ENDROOT
BRANCH   6   7
ATOM      7  C   UNL     1       3.437   6.436  18.474  0.00  0.00    +0.000 A 
ATOM      8  N   UNL     1       4.618   6.990  18.373  0.00  0.00    +0.000 NA
ATOM      9  C   UNL     1       5.502   6.329  17.528  0.00  0.00    +0.000 A 
ATOM     10  C   UNL     1       6.788   6.702  17.110  0.00  0.00    +0.000 A 
ATOM     11  C   UNL     1       7.548   7.934  17.424  0.00  0.00    +0.000 C 
ATOM     12  N   UNL     1       7.295   5.776  16.279  0.00  0.00    +0.000 NA
ATOM     13  N   UNL     1       6.304   4.858  16.155  0.00  0.00    +0.000 N 
ATOM     14  C   UNL     1       6.488   3.729  15.276  0.00  0.00    +0.000 C 
ATOM     15  C   UNL     1       5.196   5.173  16.879  0.00  0.00    +0.000 A 
ATOM     16  C   UNL     1       3.920   4.561  16.981  0.00  0.00    +0.000 A 
ATOM     17  O   UNL     1       3.578   3.526  16.413  0.00  0.00    +0.000 OA
ATOM     18  N   UNL     1       3.075   5.270  17.809  0.00  0.00    +0.000 N 
ATOM     19  H   UNL     1       2.133   4.908  17.912  0.00  0.00    +0.000 HD
ENDBRANCH   6   7
BRANCH   4  20
ATOM     20  S   UNL     1       0.658  10.804  19.302  0.00  0.00    +0.000 S 
ATOM     21  O   UNL     1       1.615  11.223  18.299  0.00  0.00    +0.000 OA
ATOM     22  O   UNL     1      -0.760  10.764  19.020  0.00  0.00    +0.000 OA
BRANCH  20  23
ATOM     23  N   UNL     1       0.905  11.734  20.699  0.00  0.00    +0.000 NA
ATOM     24  C   UNL     1      -0.295  12.114  21.503  0.00  0.00    +0.000 C 
ATOM     25  C   UNL     1      -0.976  13.390  20.968  0.00  0.00    +0.000 C 
ATOM     26  N   UNL     1      -0.058  14.538  20.820  0.00  0.00    +0.000 NA
ATOM     27  C   UNL     1      -0.752  15.646  20.156  0.00  0.00    +0.000 C 
ATOM     28  C   UNL     1       1.152  14.160  20.062  0.00  0.00    +0.000 C 
ATOM     29  C   UNL     1       1.843  12.888  20.588  0.00  0.00    +0.000 C 
ENDBRANCH  20  23
ENDBRANCH   4  20
BRANCH   1  30
ATOM     30  O   UNL     1       2.183   5.219  20.876  0.00  0.00    +0.000 OA
BRANCH  30  32
ATOM     31  C   UNL     1       1.539   2.935  21.404  0.00  0.00    +0.000 C 
ATOM     32  C   UNL     1       1.205   4.194  20.624  0.00  0.00    +0.000 C 
ENDBRANCH  30  32
ENDBRANCH   1  30
TORSDOF 5
ENDMDL
MODEL 2
REMARK VINA RESULT:      -7.2      0.872      1.010
REMARK  Name = 
REMARK  9 active torsions:
REMARK  status: ('A' for Active; 'I' for Inactive)
REMARK    1  A    between atoms: C_1  and  C_2
REMARK    2  A    between atoms: C_2  and  O_3
REMARK    3  A    between atoms: O_3  and  C_4
REMARK    4  A    between atoms: C_7  and  S_8
REMARK    5  A    between atoms: S_8  and  N_11
REMARK    6  A    between atoms: N_14  and  C_15
REMARK    7  A    between atoms: C_19  and  C_20
REMARK    8  A    between atoms: C_23  and  C_24
REMARK    9  A    between atoms: N_26  and  C_27
REMARK                            x       y       z     vdW  Elec       q    Type
REMARK                         _______ _______ _______ _____ _____    ______ ____
ROOT
ATOM      1  C   UNL     1       1.923   6.447  20.598  0.00  0.00    +0.000 A 
ATOM      2  C   UNL     1       0.957   7.139  21.351  0.00  0.00    +0.000 A 
ATOM      3  C   UNL     1       0.505   8.409  20.973  0.00  0.00    +0.000 A 
ATOM      4  C   UNL     1       1.013   9.012  19.827  0.00  0.00    +0.000 A 
ATOM      5  C   UNL     1       1.948   8.331  19.052  0.00  0.00    +0.000 A 
ATOM      6  C   UNL     1       2.428   7.053  19.428  0.00  0.00    +0.000 A 
ENDROOT
BRANCH   6   7
ATOM      7  C   UNL     1       3.462   6.465  18.500  0.00  0.00    +0.000 A 
ATOM      8  N   UNL     1       4.627   7.054  18.415  0.00  0.00    +0.000 NA
ATOM      9  C   UNL     1       5.523   6.452  17.540  0.00  0.00    +0.000 A 
ATOM     10  C   UNL     1       6.796   6.876  17.131  0.00  0.00    +0.000 A 
ATOM     11  C   UNL     1       7.524   8.115  17.490  0.00  0.00    +0.000 C 
ATOM     12  N   UNL     1       7.323   5.999  16.261  0.00  0.00    +0.000 NA
ATOM     13  N   UNL     1       6.357   5.060  16.106  0.00  0.00    +0.000 N 
ATOM     14  C   UNL     1       6.566   3.971  15.181  0.00  0.00    +0.000 C 
ATOM     15  C   UNL     1       5.245   5.315  16.847  0.00  0.00    +0.000 A 
ATOM     16  C   UNL     1       3.987   4.664  16.931  0.00  0.00    +0.000 A 
ATOM     17  O   UNL     1       3.670   3.644  16.324  0.00  0.00    +0.000 OA
ATOM     18  N   UNL     1       3.128   5.316  17.791  0.00  0.00    +0.000 N 
ATOM     19  H   UNL     1       2.197   4.924  17.885  0.00  0.00    +0.000 HD
ENDBRANCH   6   7
BRANCH   4  20
ATOM     20  S   UNL     1       0.401  10.628  19.385  0.00  0.00    +0.000 S 
ATOM     21  O   UNL     1       0.163  10.572  17.958  0.00  0.00    +0.000 OA
ATOM     22  O   UNL     1      -0.664  10.933  20.315  0.00  0.00    +0.000 OA
BRANCH  20  23
ATOM     23  N   UNL     1       1.689  11.694  19.670  0.00  0.00    +0.000 NA
ATOM     24  C   UNL     1       1.562  12.649  20.813  0.00  0.00    +0.000 C 
ATOM     25  C   UNL     1       0.799  13.929  20.422  0.00  0.00    +0.000 C 
ATOM     26  N   UNL     1       1.346  14.608  19.229  0.00  0.00    +0.000 NA
ATOM     27  C   UNL     1       0.464  15.714  18.839  0.00  0.00    +0.000 C 
ATOM     28  C   UNL     1       1.514  13.663  18.106  0.00  0.00    +0.000 C 
ATOM     29  C   UNL     1       2.277  12.379  18.484  0.00  0.00    +0.000 C 
ENDBRANCH  20  23
ENDBRANCH   4  20
BRANCH   1  30
ATOM     30  O   UNL     1       2.389   5.191  20.960  0.00  0.00    +0.000 OA
BRANCH  30  32
ATOM     31  C   UNL     1       1.717   2.957  21.645  0.00  0.00    +0.000 C 
ATOM     32  C   UNL     1       1.533   4.081  20.640  0.00  0.00    +0.000 C 
ENDBRANCH  30  32
ENDBRANCH   1  30
TORSDOF 5
ENDMDL
MODEL 3
REMARK VINA RESULT:      -7.2      1.231      2.083
REMARK  Name = 
REMARK  9 active torsions:
REMARK  status: ('A' for Active; 'I' for Inactive)
REMARK    1  A    between atoms: C_1  and  C_2
REMARK    2  A    between atoms: C_2  and  O_3
REMARK    3  A    between atoms: O_3  and  C_4
REMARK    4  A    between atoms: C_7  and  S_8
REMARK    5  A    between atoms: S_8  and  N_11
REMARK    6  A    between atoms: N_14  and  C_15
REMARK    7  A    between atoms: C_19  and  C_20
REMARK    8  A    between atoms: C_23  and  C_24
REMARK    9  A    between atoms: N_26  and  C_27
REMARK                            x       y       z     vdW  Elec       q    Type
REMARK                         _______ _______ _______ _____ _____    ______ ____
ROOT
ATOM      1  C   UNL     1       1.790   6.880  20.456  0.00  0.00    +0.000 A 
ATOM      2  C   UNL     1       0.954   7.757  21.170  0.00  0.00    +0.000 A 
ATOM      3  C   UNL     1       0.661   9.040  20.694  0.00  0.00    +0.000 A 
ATOM      4  C   UNL     1       1.201   9.470  19.486  0.00  0.00    +0.000 A 
ATOM      5  C   UNL     1       2.008   8.606  18.750  0.00  0.00    +0.000 A 
ATOM      6  C   UNL     1       2.327   7.311  19.224  0.00  0.00    +0.000 A 
ENDROOT
BRANCH   6   7
ATOM      7  C   UNL     1       3.238   6.512  18.324  0.00  0.00    +0.000 A 
ATOM      8  N   UNL     1       3.064   5.218  18.256  0.00  0.00    +0.000 NA
ATOM      9  C   UNL     1       3.942   4.555  17.408  0.00  0.00    +0.000 A 
ATOM     10  C   UNL     1       4.106   3.179  17.187  0.00  0.00    +0.000 A 
ATOM     11  C   UNL     1       3.410   2.043  17.836  0.00  0.00    +0.000 C 
ATOM     12  N   UNL     1       5.080   2.964  16.288  0.00  0.00    +0.000 NA
ATOM     13  N   UNL     1       5.540   4.204  15.988  0.00  0.00    +0.000 N 
ATOM     14  C   UNL     1       6.647   4.350  15.074  0.00  0.00    +0.000 C 
ATOM     15  C   UNL     1       4.890   5.188  16.666  0.00  0.00    +0.000 A 
ATOM     16  C   UNL     1       5.088   6.592  16.727  0.00  0.00    +0.000 A 
ATOM     17  O   UNL     1       5.932   7.222  16.094  0.00  0.00    +0.000 OA
ATOM     18  N   UNL     1       4.210   7.196  17.602  0.00  0.00    +0.000 N 
ATOM     19  H   UNL     1       4.307   8.199  17.721  0.00  0.00    +0.000 HD
ENDBRANCH   6   7
BRANCH   4  20
ATOM     20  S   UNL     1       0.794  11.112  18.919  0.00  0.00    +0.000 S 
ATOM     21  O   UNL     1       1.967  11.576  18.208  0.00  0.00    +0.000 OA
ATOM     22  O   UNL     1      -0.493  11.013  18.264  0.00  0.00    +0.000 OA
BRANCH  20  23
ATOM     23  N   UNL     1       0.614  12.046  20.323  0.00  0.00    +0.000 NA
ATOM     24  C   UNL     1      -0.755  12.538  20.662  0.00  0.00    +0.000 C 
ATOM     25  C   UNL     1      -1.098  13.853  19.936  0.00  0.00    +0.000 C 
ATOM     26  N   UNL     1      -0.095  14.920  20.130  0.00  0.00    +0.000 NA
ATOM     27  C   UNL     1      -0.420  16.069  19.276  0.00  0.00    +0.000 C 
ATOM     28  C   UNL     1       1.268  14.431  19.837  0.00  0.00    +0.000 C 
ATOM     29  C   UNL     1       1.624  13.117  20.558  0.00  0.00    +0.000 C 
ENDBRANCH  20  23
ENDBRANCH   4  20
BRANCH   1  30
ATOM     30  O   UNL     1       2.099   5.607  20.915  0.00  0.00    +0.000 OA
BRANCH  30  32
ATOM     31  C   UNL     1       1.585   3.248  21.205  0.00  0.00    +0.000 C 
ATOM     32  C   UNL     1       1.134   4.579  20.629  0.00  0.00    +0.000 C 
ENDBRANCH  30  32
ENDBRANCH   1  30
TORSDOF 5
ENDMDL
MODEL 4
REMARK VINA RESULT:      -7.2      1.060      1.276
REMARK  Name = 
REMARK  9 active torsions:
REMARK  status: ('A' for Active; 'I' for Inactive)
REMARK    1  A    between atoms: C_1  and  C_2
REMARK    2  A    between atoms: C_2  and  O_3
REMARK    3  A    between atoms: O_3  and  C_4
REMARK    4  A    between atoms: C_7  and  S_8
REMARK    5  A    between atoms: S_8  and  N_11
REMARK    6  A    between atoms: N_14  and  C_15
REMARK    7  A    between atoms: C_19  and  C_20
REMARK    8  A    between atoms: C_23  and  C_24
REMARK    9  A    between atoms: N_26  and  C_27
REMARK                            x       y       z     vdW  Elec       q    Type
REMARK                         _______ _______ _______ _____ _____    ______ ____
ROOT
ATOM      1  C   UNL     1       1.852   6.280  20.546  0.00  0.00    +0.000 A 
ATOM      2  C   UNL     1       0.928   6.987  21.336  0.00  0.00    +0.000 A 
ATOM      3  C   UNL     1       0.610   8.324  21.071  0.00  0.00    +0.000 A 
ATOM      4  C   UNL     1       1.215   8.981  20.004  0.00  0.00    +0.000 A 
ATOM      5  C   UNL     1       2.111   8.290  19.193  0.00  0.00    +0.000 A 
ATOM      6  C   UNL     1       2.455   6.942  19.455  0.00  0.00    +0.000 A 
ENDROOT
BRANCH   6   7
ATOM      7  C   UNL     1       3.464   6.347  18.504  0.00  0.00    +0.000 A 
ATOM      8  N   UNL     1       4.633   6.925  18.398  0.00  0.00    +0.000 NA
ATOM      9  C   UNL     1       5.505   6.318  17.502  0.00  0.00    +0.000 A 
ATOM     10  C   UNL     1       6.773   6.730  17.069  0.00  0.00    +0.000 A 
ATOM     11  C   UNL     1       7.522   7.961  17.419  0.00  0.00    +0.000 C 
ATOM     12  N   UNL     1       7.274   5.852  16.185  0.00  0.00    +0.000 NA
ATOM     13  N   UNL     1       6.295   4.923  16.045  0.00  0.00    +0.000 N 
ATOM     14  C   UNL     1       6.474   3.837  15.112  0.00  0.00    +0.000 C 
ATOM     15  C   UNL     1       5.201   5.187  16.810  0.00  0.00    +0.000 A 
ATOM     16  C   UNL     1       3.939   4.548  16.917  0.00  0.00    +0.000 A 
ATOM     17  O   UNL     1       3.598   3.534  16.312  0.00  0.00    +0.000 OA
ATOM     18  N   UNL     1       3.104   5.205  17.797  0.00  0.00    +0.000 N 
ATOM     19  H   UNL     1       2.171   4.823  17.908  0.00  0.00    +0.000 HD
ENDBRANCH   6   7
BRANCH   4  20
ATOM     20  S   UNL     1       0.773  10.684  19.704  0.00  0.00    +0.000 S 
ATOM     21  O   UNL     1       1.645  11.464  20.559  0.00  0.00    +0.000 OA
ATOM     22  O   UNL     1       0.772  10.860  18.268  0.00  0.00    +0.000 OA
BRANCH  20  23
ATOM     23  N   UNL     1      -0.817  10.846  20.270  0.00  0.00    +0.000 NA
ATOM     24  C   UNL     1      -1.830  11.435  19.342  0.00  0.00    +0.000 C 
ATOM     25  C   UNL     1      -1.829  12.976  19.379  0.00  0.00    +0.000 C 
ATOM     26  N   UNL     1      -1.972  13.539  20.737  0.00  0.00    +0.000 NA
ATOM     27  C   UNL     1      -1.796  14.995  20.692  0.00  0.00    +0.000 C 
ATOM     28  C   UNL     1      -1.002  12.933  21.672  0.00  0.00    +0.000 C 
ATOM     29  C   UNL     1      -0.994  11.393  21.646  0.00  0.00    +0.000 C 
ENDBRANCH  20  23
ENDBRANCH   4  20
BRANCH   1  30
ATOM     30  O   UNL     1       2.186   4.956  20.797  0.00  0.00    +0.000 OA
BRANCH  30  32
ATOM     31  C   UNL     1       1.402   2.746  21.438  0.00  0.00    +0.000 C 
ATOM     32  C   UNL     1       1.136   3.992  20.611  0.00  0.00    +0.000 C 
ENDBRANCH  30  32
ENDBRANCH   1  30
TORSDOF 5
ENDMDL
MODEL 5
REMARK VINA RESULT:      -7.1      2.805      8.477
REMARK  Name = 
REMARK  9 active torsions:
REMARK  status: ('A' for Active; 'I' for Inactive)
REMARK    1  A    between atoms: C_1  and  C_2
REMARK    2  A    between atoms: C_2  and  O_3
REMARK    3  A    between atoms: O_3  and  C_4
REMARK    4  A    between atoms: C_7  and  S_8
REMARK    5  A    between atoms: S_8  and  N_11
REMARK    6  A    between atoms: N_14  and  C_15
REMARK    7  A    between atoms: C_19  and  C_20
REMARK    8  A    between atoms: C_23  and  C_24
REMARK    9  A    between atoms: N_26  and  C_27
REMARK                            x       y       z     vdW  Elec       q    Type
REMARK                         _______ _______ _______ _____ _____    ______ ____
ROOT
ATOM      1  C   UNL     1       2.506   5.323  19.784  0.00  0.00    +0.000 A 
ATOM      2  C   UNL     1       3.343   4.372  19.172  0.00  0.00    +0.000 A 
ATOM      3  C   UNL     1       4.282   4.738  18.202  0.00  0.00    +0.000 A 
ATOM      4  C   UNL     1       4.402   6.072  17.824  0.00  0.00    +0.000 A 
ATOM      5  C   UNL     1       3.604   7.033  18.439  0.00  0.00    +0.000 A 
ATOM      6  C   UNL     1       2.638   6.678  19.411  0.00  0.00    +0.000 A 
ENDROOT
BRANCH   6   7
ATOM      7  C   UNL     1       1.832   7.831  19.957  0.00  0.00    +0.000 A 
ATOM      8  N   UNL     1       1.023   8.461  19.145  0.00  0.00    +0.000 NA
ATOM      9  C   UNL     1       0.317   9.509  19.723  0.00  0.00    +0.000 A 
ATOM     10  C   UNL     1      -0.536  10.449  19.126  0.00  0.00    +0.000 A 
ATOM     11  C   UNL     1      -0.889  10.611  17.696  0.00  0.00    +0.000 C 
ATOM     12  N   UNL     1      -1.008  11.304  20.050  0.00  0.00    +0.000 NA
ATOM     13  N   UNL     1      -0.412  10.912  21.203  0.00  0.00    +0.000 N 
ATOM     14  C   UNL     1      -0.654  11.656  22.416  0.00  0.00    +0.000 C 
ATOM     15  C   UNL     1       0.414   9.844  21.037  0.00  0.00    +0.000 A 
ATOM     16  C   UNL     1       1.285   9.168  21.930  0.00  0.00    +0.000 A 
ATOM     17  O   UNL     1       1.428   9.428  23.122  0.00  0.00    +0.000 OA
ATOM     18  N   UNL     1       1.980   8.156  21.300  0.00  0.00    +0.000 N 
ATOM     19  H   UNL     1       2.645   7.641  21.868  0.00  0.00    +0.000 HD
ENDBRANCH   6   7
BRANCH   4  20
ATOM     20  S   UNL     1       5.617   6.490  16.586  0.00  0.00    +0.000 S 
ATOM     21  O   UNL     1       4.859   6.809  15.395  0.00  0.00    +0.000 OA
ATOM     22  O   UNL     1       6.507   7.456  17.194  0.00  0.00    +0.000 OA
BRANCH  20  23
ATOM     23  N   UNL     1       6.485   5.061  16.302  0.00  0.00    +0.000 NA
ATOM     24  C   UNL     1       7.649   5.128  15.367  0.00  0.00    +0.000 C 
ATOM     25  C   UNL     1       7.223   4.974  13.893  0.00  0.00    +0.000 C 
ATOM     26  N   UNL     1       6.408   3.770  13.632  0.00  0.00    +0.000 NA
ATOM     27  C   UNL     1       5.916   3.794  12.249  0.00  0.00    +0.000 C 
ATOM     28  C   UNL     1       5.278   3.673  14.578  0.00  0.00    +0.000 C 
ATOM     29  C   UNL     1       5.690   3.824  16.055  0.00  0.00    +0.000 C 
ENDBRANCH  20  23
ENDBRANCH   4  20
BRANCH   1  30
ATOM     30  O   UNL     1       1.564   4.978  20.743  0.00  0.00    +0.000 OA
BRANCH  30  32
ATOM     31  C   UNL     1       1.543   2.710  21.618  0.00  0.00    +0.000 C 
ATOM     32  C   UNL     1       0.963   3.679  20.602  0.00  0.00    +0.000 C 
ENDBRANCH  30  32
ENDBRANCH   1  30
TORSDOF 5
ENDMDL
MODEL 6
REMARK VINA RESULT:      -7.1      1.887      2.282
REMARK  Name = 
REMARK  9 active torsions:
REMARK  status: ('A' for Active; 'I' for Inactive)
REMARK    1  A    between atoms: C_1  and  C_2
REMARK    2  A    between atoms: C_2  and  O_3
REMARK    3  A    between atoms: O_3  and  C_4
REMARK    4  A    between atoms: C_7  and  S_8
REMARK    5  A    between atoms: S_8  and  N_11
REMARK    6  A    between atoms: N_14  and  C_15
REMARK    7  A    between atoms: C_19  and  C_20
REMARK    8  A    between atoms: C_23  and  C_24
REMARK    9  A    between atoms: N_26  and  C_27
REMARK                            x       y       z     vdW  Elec       q    Type
REMARK                         _______ _______ _______ _____ _____    ______ ____
ROOT
ATOM      1  C   UNL     1       1.877   6.340  20.580  0.00  0.00    +0.000 A 
ATOM      2  C   UNL     1       0.959   7.072  21.356  0.00  0.00    +0.000 A 
ATOM      3  C   UNL     1       0.629   8.397  21.045  0.00  0.00    +0.000 A 
ATOM      4  C   UNL     1       1.215   9.016  19.946  0.00  0.00    +0.000 A 
ATOM      5  C   UNL     1       2.103   8.299  19.148  0.00  0.00    +0.000 A 
ATOM      6  C   UNL     1       2.459   6.964  19.456  0.00  0.00    +0.000 A 
ENDROOT
BRANCH   6   7
ATOM      7  C   UNL     1       3.458   6.340  18.513  0.00  0.00    +0.000 A 
ATOM      8  N   UNL     1       4.634   6.901  18.393  0.00  0.00    +0.000 NA
ATOM      9  C   UNL     1       5.495   6.267  17.506  0.00  0.00    +0.000 A 
ATOM     10  C   UNL     1       6.767   6.656  17.061  0.00  0.00    +0.000 A 
ATOM     11  C   UNL     1       7.531   7.884  17.385  0.00  0.00    +0.000 C 
ATOM     12  N   UNL     1       7.254   5.754  16.192  0.00  0.00    +0.000 NA
ATOM     13  N   UNL     1       6.264   4.835  16.074  0.00  0.00    +0.000 N 
ATOM     14  C   UNL     1       6.427   3.729  15.161  0.00  0.00    +0.000 C 
ATOM     15  C   UNL     1       5.176   5.126  16.837  0.00  0.00    +0.000 A 
ATOM     16  C   UNL     1       3.906   4.505  16.960  0.00  0.00    +0.000 A 
ATOM     17  O   UNL     1       3.552   3.484  16.376  0.00  0.00    +0.000 OA
ATOM     18  N   UNL     1       3.082   5.189  17.829  0.00  0.00    +0.000 N 
ATOM     19  H   UNL     1       2.145   4.819  17.951  0.00  0.00    +0.000 HD
ENDBRANCH   6   7
BRANCH   4  20
ATOM     20  S   UNL     1       0.759  10.704  19.588  0.00  0.00    +0.000 S 
ATOM     21  O   UNL     1       1.310  11.489  20.673  0.00  0.00    +0.000 OA
ATOM     22  O   UNL     1       1.136  10.948  18.213  0.00  0.00    +0.000 OA
BRANCH  20  23
ATOM     23  N   UNL     1      -0.933  10.749  19.700  0.00  0.00    +0.000 NA
ATOM     24  C   UNL     1      -1.699   9.597  19.137  0.00  0.00    +0.000 C 
ATOM     25  C   UNL     1      -1.954   9.750  17.625  0.00  0.00    +0.000 C 
ATOM     26  N   UNL     1      -2.587  11.033  17.254  0.00  0.00    +0.000 NA
ATOM     27  C   UNL     1      -2.640  11.156  15.793  0.00  0.00    +0.000 C 
ATOM     28  C   UNL     1      -1.860  12.177  17.841  0.00  0.00    +0.000 C 
ATOM     29  C   UNL     1      -1.600  12.037  19.353  0.00  0.00    +0.000 C 
ENDBRANCH  20  23
ENDBRANCH   4  20
BRANCH   1  30
ATOM     30  O   UNL     1       2.222   5.029  20.876  0.00  0.00    +0.000 OA
BRANCH  30  32
ATOM     31  C   UNL     1       1.454   2.800  21.471  0.00  0.00    +0.000 C 
ATOM     32  C   UNL     1       1.214   4.035  20.620  0.00  0.00    +0.000 C 
ENDBRANCH  30  32
ENDBRANCH   1  30
TORSDOF 5
ENDMDL
MODEL 7
REMARK VINA RESULT:      -7.0      1.656      2.115
REMARK  Name = 
REMARK  9 active torsions:
REMARK  status: ('A' for Active; 'I' for Inactive)
REMARK    1  A    between atoms: C_1  and  C_2
REMARK    2  A    between atoms: C_2  and  O_3
REMARK    3  A    between atoms: O_3  and  C_4
REMARK    4  A    between atoms: C_7  and  S_8
REMARK    5  A    between atoms: S_8  and  N_11
REMARK    6  A    between atoms: N_14  and  C_15
REMARK    7  A    between atoms: C_19  and  C_20
REMARK    8  A    between atoms: C_23  and  C_24
REMARK    9  A    between atoms: N_26  and  C_27
REMARK                            x       y       z     vdW  Elec       q    Type
REMARK                         _______ _______ _______ _____ _____    ______ ____
ROOT
ATOM      1  C   UNL     1       2.366   5.098  20.201  0.00  0.00    +0.000 A 
ATOM      2  C   UNL     1       1.365   5.472  21.116  0.00  0.00    +0.000 A 
ATOM      3  C   UNL     1       0.900   6.789  21.196  0.00  0.00    +0.000 A 
ATOM      4  C   UNL     1       1.431   7.763  20.356  0.00  0.00    +0.000 A 
ATOM      5  C   UNL     1       2.401   7.407  19.422  0.00  0.00    +0.000 A 
ATOM      6  C   UNL     1       2.894   6.083  19.338  0.00  0.00    +0.000 A 
ENDROOT
BRANCH   6   7
ATOM      7  C   UNL     1       3.967   5.869  18.299  0.00  0.00    +0.000 A 
ATOM      8  N   UNL     1       5.042   6.611  18.354  0.00  0.00    +0.000 NA
ATOM      9  C   UNL     1       5.981   6.353  17.362  0.00  0.00    +0.000 A 
ATOM     10  C   UNL     1       7.174   7.026  17.064  0.00  0.00    +0.000 A 
ATOM     11  C   UNL     1       7.747   8.235  17.703  0.00  0.00    +0.000 C 
ATOM     12  N   UNL     1       7.784   6.453  16.012  0.00  0.00    +0.000 NA
ATOM     13  N   UNL     1       6.943   5.455  15.642  0.00  0.00    +0.000 N 
ATOM     14  C   UNL     1       7.262   4.649  14.489  0.00  0.00    +0.000 C 
ATOM     15  C   UNL     1       5.831   5.382  16.423  0.00  0.00    +0.000 A 
ATOM     16  C   UNL     1       4.671   4.567  16.352  0.00  0.00    +0.000 A 
ATOM     17  O   UNL     1       4.470   3.683  15.523  0.00  0.00    +0.000 OA
ATOM     18  N   UNL     1       3.762   4.882  17.341  0.00  0.00    +0.000 N 
ATOM     19  H   UNL     1       2.893   4.359  17.340  0.00  0.00    +0.000 HD
ENDBRANCH   6   7
BRANCH   4  20
ATOM     20  S   UNL     1       0.802   9.427  20.492  0.00  0.00    +0.000 S 
ATOM     21  O   UNL     1      -0.575   9.284  20.916  0.00  0.00    +0.000 OA
ATOM     22  O   UNL     1       1.761  10.164  21.285  0.00  0.00    +0.000 OA
BRANCH  20  23
ATOM     23  N   UNL     1       0.815  10.047  18.914  0.00  0.00    +0.000 NA
ATOM     24  C   UNL     1       1.846  11.076  18.579  0.00  0.00    +0.000 C 
ATOM     25  C   UNL     1       1.396  12.499  18.964  0.00  0.00    +0.000 C 
ATOM     26  N   UNL     1       0.079  12.878  18.413  0.00  0.00    +0.000 NA
ATOM     27  C   UNL     1      -0.335  14.173  18.962  0.00  0.00    +0.000 C 
ATOM     28  C   UNL     1      -0.938  11.847  18.703  0.00  0.00    +0.000 C 
ATOM     29  C   UNL     1      -0.502  10.419  18.322  0.00  0.00    +0.000 C 
ENDBRANCH  20  23
ENDBRANCH   4  20
BRANCH   1  30
ATOM     30  O   UNL     1       2.846   3.799  20.112  0.00  0.00    +0.000 OA
BRANCH  30  32
ATOM     31  C   UNL     1       1.190   2.631  18.768  0.00  0.00    +0.000 C 
ATOM     32  C   UNL     1       1.856   2.756  20.127  0.00  0.00    +0.000 C 
ENDBRANCH  30  32
ENDBRANCH   1  30
TORSDOF 5
ENDMDL
MODEL 8
REMARK VINA RESULT:      -7.0      1.223      1.607
REMARK  Name = 
REMARK  9 active torsions:
REMARK  status: ('A' for Active; 'I' for Inactive)
REMARK    1  A    between atoms: C_1  and  C_2
REMARK    2  A    between atoms: C_2  and  O_3
REMARK    3  A    between atoms: O_3  and  C_4
REMARK    4  A    between atoms: C_7  and  S_8
REMARK    5  A    between atoms: S_8  and  N_11
REMARK    6  A    between atoms: N_14  and  C_15
REMARK    7  A    between atoms: C_19  and  C_20
REMARK    8  A    between atoms: C_23  and  C_24
REMARK    9  A    between atoms: N_26  and  C_27
REMARK                            x       y       z     vdW  Elec       q    Type
REMARK                         _______ _______ _______ _____ _____    ______ ____
ROOT
ATOM      1  C   UNL     1       2.149   5.873  20.284  0.00  0.00    +0.000 A 
ATOM      2  C   UNL     1       1.133   6.412  21.095  0.00  0.00    +0.000 A 
ATOM      3  C   UNL     1       0.677   7.724  20.921  0.00  0.00    +0.000 A 
ATOM      4  C   UNL     1       1.230   8.524  19.927  0.00  0.00    +0.000 A 
ATOM      5  C   UNL     1       2.216   7.999  19.095  0.00  0.00    +0.000 A 
ATOM      6  C   UNL     1       2.700   6.680  19.266  0.00  0.00    +0.000 A 
ENDROOT
BRANCH   6   7
ATOM      7  C   UNL     1       3.791   6.274  18.305  0.00  0.00    +0.000 A 
ATOM      8  N   UNL     1       4.913   6.946  18.320  0.00  0.00    +0.000 NA
ATOM      9  C   UNL     1       5.865   6.511  17.406  0.00  0.00    +0.000 A 
ATOM     10  C   UNL     1       7.113   7.065  17.083  0.00  0.00    +0.000 A 
ATOM     11  C   UNL     1       7.747   8.300  17.602  0.00  0.00    +0.000 C 
ATOM     12  N   UNL     1       7.717   6.332  16.133  0.00  0.00    +0.000 NA
ATOM     13  N   UNL     1       6.822   5.354  15.845  0.00  0.00    +0.000 N 
ATOM     14  C   UNL     1       7.124   4.397  14.808  0.00  0.00    +0.000 C 
ATOM     15  C   UNL     1       5.681   5.447  16.580  0.00  0.00    +0.000 A 
ATOM     16  C   UNL     1       4.470   4.707  16.555  0.00  0.00    +0.000 A 
ATOM     17  O   UNL     1       4.237   3.746  15.826  0.00  0.00    +0.000 OA
ATOM     18  N   UNL     1       3.551   5.196  17.460  0.00  0.00    +0.000 N 
ATOM     19  H   UNL     1       2.648   4.734  17.483  0.00  0.00    +0.000 HD
ENDBRANCH   6   7
BRANCH   4  20
ATOM     20  S   UNL     1       0.611  10.187  19.742  0.00  0.00    +0.000 S 
ATOM     21  O   UNL     1       1.421  10.786  18.703  0.00  0.00    +0.000 OA
ATOM     22  O   UNL     1      -0.826  10.077  19.608  0.00  0.00    +0.000 OA
BRANCH  20  23
ATOM     23  N   UNL     1       0.958  10.965  21.209  0.00  0.00    +0.000 NA
ATOM     24  C   UNL     1       0.575  10.270  22.474  0.00  0.00    +0.000 C 
ATOM     25  C   UNL     1      -0.893  10.535  22.864  0.00  0.00    +0.000 C 
ATOM     26  N   UNL     1      -1.242  11.970  22.927  0.00  0.00    +0.000 NA
ATOM     27  C   UNL     1      -2.685  12.120  23.143  0.00  0.00    +0.000 C 
ATOM     28  C   UNL     1      -0.829  12.675  21.697  0.00  0.00    +0.000 C 
ATOM     29  C   UNL     1       0.636  12.419  21.296  0.00  0.00    +0.000 C 
ENDBRANCH  20  23
ENDBRANCH   4  20
BRANCH   1  30
ATOM     30  O   UNL     1       2.621   4.578  20.445  0.00  0.00    +0.000 OA
BRANCH  30  32
ATOM     31  C   UNL     1       2.583   2.407  21.539  0.00  0.00    +0.000 C 
ATOM     32  C   UNL     1       2.075   3.837  21.551  0.00  0.00    +0.000 C 
ENDBRANCH  30  32
ENDBRANCH   1  30
TORSDOF 5
ENDMDL
MODEL 9
REMARK VINA RESULT:      -6.9      2.600      7.689
REMARK  Name = 
REMARK  9 active torsions:
REMARK  status: ('A' for Active; 'I' for Inactive)
REMARK    1  A    between atoms: C_1  and  C_2
REMARK    2  A    between atoms: C_2  and  O_3
REMARK    3  A    between atoms: O_3  and  C_4
REMARK    4  A    between atoms: C_7  and  S_8
REMARK    5  A    between atoms: S_8  and  N_11
REMARK    6  A    between atoms: N_14  and  C_15
REMARK    7  A    between atoms: C_19  and  C_20
REMARK    8  A    between atoms: C_23  and  C_24
REMARK    9  A    between atoms: N_26  and  C_27
REMARK                            x       y       z     vdW  Elec       q    Type
REMARK                         _______ _______ _______ _____ _____    ______ ____
ROOT
ATOM      1  C   UNL     1       3.148   5.040  19.418  0.00  0.00    +0.000 A 
ATOM      2  C   UNL     1       3.897   4.035  18.779  0.00  0.00    +0.000 A 
ATOM      3  C   UNL     1       4.564   4.273  17.573  0.00  0.00    +0.000 A 
ATOM      4  C   UNL     1       4.496   5.530  16.980  0.00  0.00    +0.000 A 
ATOM      5  C   UNL     1       3.785   6.547  17.612  0.00  0.00    +0.000 A 
ATOM      6  C   UNL     1       3.091   6.320  18.824  0.00  0.00    +0.000 A 
ENDROOT
BRANCH   6   7
ATOM      7  C   UNL     1       2.342   7.514  19.362  0.00  0.00    +0.000 A 
ATOM      8  N   UNL     1       2.334   8.613  18.652  0.00  0.00    +0.000 NA
ATOM      9  C   UNL     1       1.624   9.666  19.216  0.00  0.00    +0.000 A 
ATOM     10  C   UNL     1       1.505  10.996  18.786  0.00  0.00    +0.000 A 
ATOM     11  C   UNL     1       2.145  11.661  17.626  0.00  0.00    +0.000 C 
ATOM     12  N   UNL     1       0.727  11.692  19.632  0.00  0.00    +0.000 NA
ATOM     13  N   UNL     1       0.403  10.799  20.600  0.00  0.00    +0.000 N 
ATOM     14  C   UNL     1      -0.398  11.227  21.722  0.00  0.00    +0.000 C 
ATOM     15  C   UNL     1       0.948   9.570  20.392  0.00  0.00    +0.000 A 
ATOM     16  C   UNL     1       0.945   8.384  21.171  0.00  0.00    +0.000 A 
ATOM     17  O   UNL     1       0.366   8.237  22.245  0.00  0.00    +0.000 OA
ATOM     18  N   UNL     1       1.685   7.381  20.581  0.00  0.00    +0.000 N 
ATOM     19  H   UNL     1       1.753   6.507  21.091  0.00  0.00    +0.000 HD
ENDBRANCH   6   7
BRANCH   4  20
ATOM     20  S   UNL     1       5.368   5.786  15.445  0.00  0.00    +0.000 S 
ATOM     21  O   UNL     1       5.195   4.560  14.695  0.00  0.00    +0.000 OA
ATOM     22  O   UNL     1       4.917   7.058  14.924  0.00  0.00    +0.000 OA
BRANCH  20  23
ATOM     23  N   UNL     1       7.004   5.927  15.871  0.00  0.00    +0.000 NA
ATOM     24  C   UNL     1       7.703   4.701  16.363  0.00  0.00    +0.000 C 
ATOM     25  C   UNL     1       7.493   4.478  17.874  0.00  0.00    +0.000 C 
ATOM     26  N   UNL     1       7.842   5.649  18.704  0.00  0.00    +0.000 NA
ATOM     27  C   UNL     1       7.458   5.402  20.098  0.00  0.00    +0.000 C 
ATOM     28  C   UNL     1       7.188   6.874  18.200  0.00  0.00    +0.000 C 
ATOM     29  C   UNL     1       7.391   7.111  16.691  0.00  0.00    +0.000 C 
ENDBRANCH  20  23
ENDBRANCH   4  20
BRANCH   1  30
ATOM     30  O   UNL     1       2.473   4.821  20.610  0.00  0.00    +0.000 OA
BRANCH  30  32
ATOM     31  C   UNL     1       1.661   2.751  21.593  0.00  0.00    +0.000 C 
ATOM     32  C   UNL     1       1.416   3.846  20.570  0.00  0.00    +0.000 C 
ENDBRANCH  30  32
ENDBRANCH   1  30
TORSDOF 5
ENDMDL
