MODEL 1
REMARK VINA RESULT:      -7.2      0.000      0.000
REMARK  Name = 
REMARK  7 active torsions:
REMARK  status: ('A' for Active; 'I' for Inactive)
REMARK    1  A    between atoms: C_1  and  C_2
REMARK    2  A    between atoms: C_2  and  C_3
REMARK    3  A    between atoms: C_2  and  C_4
REMARK    4  A    between atoms: C_2  and  C_5
REMARK    5  A    between atoms: C_8  and  C_9
REMARK    6  A    between atoms: C_9  and  N_10
REMARK    7  A    between atoms: N_10  and  C_11
REMARK                            x       y       z     vdW  Elec       q    Type
REMARK                         _______ _______ _______ _____ _____    ______ ____
ROOT
ATOM      1  N   UNL     1       2.348   6.936  20.487  0.00  0.00    +0.000 N 
ATOM      2  H   UNL     1       2.563   6.904  21.480  0.00  0.00    +0.000 HD
ENDROOT
BRANCH   1   3
ATOM      3  C   UNL     1       1.764   8.106  20.022  0.00  0.00    +0.000 A 
ATOM      4  C   UNL     1       1.938   8.394  18.656  0.00  0.00    +0.000 A 
ATOM      5  C   UNL     1       1.290   9.457  18.029  0.00  0.00    +0.000 A 
ATOM      6  C   UNL     1       0.436  10.269  18.766  0.00  0.00    +0.000 A 
ATOM      7  C   UNL     1       0.254  10.027  20.125  0.00  0.00    +0.000 A 
ATOM      8  C   UNL     1       0.895   8.941  20.753  0.00  0.00    +0.000 A 
ATOM      9  O   UNL     1       0.725   8.690  22.097  0.00  0.00    +0.000 OA
ATOM     10  C   UNL     1      -0.401   9.374  22.646  0.00  0.00    +0.000 C 
ATOM     11  C   UNL     1      -0.421  10.820  22.194  0.00  0.00    +0.000 C 
ATOM     12  O   UNL     1      -0.585  10.898  20.777  0.00  0.00    +0.000 OA
ENDBRANCH   1   3
BRANCH   1  13
ATOM     13  C   UNL     1       2.168   5.609  19.903  0.00  0.00    +0.000 C 
BRANCH  13  17
ATOM     14  C   UNL     1       5.489   4.960  18.720  0.00  0.00    +0.000 A 
ATOM     15  C   UNL     1       5.102   3.698  19.108  0.00  0.00    +0.000 A 
ATOM     16  N   UNL     1       3.827   3.717  19.597  0.00  0.00    +0.000 NA
ATOM     17  C   UNL     1       3.473   4.987  19.492  0.00  0.00    +0.000 A 
ATOM     18  O   UNL     1       4.434   5.804  18.960  0.00  0.00    +0.000 OA
BRANCH  14  20
ATOM     19  C   UNL     1       7.745   5.893  19.240  0.00  0.00    +0.000 C 
ATOM     20  C   UNL     1       6.740   5.544  18.124  0.00  0.00    +0.000 C 
ATOM     21  C   UNL     1       6.404   6.826  17.343  0.00  0.00    +0.000 C 
ATOM     22  C   UNL     1       7.395   4.530  17.174  0.00  0.00    +0.000 C 
ENDBRANCH  14  20
ENDBRANCH  13  17
ENDBRANCH   1  13
TORSDOF 4
ENDMDL
MODEL 2
REMARK VINA RESULT:      -7.1      1.108      1.234
REMARK  Name = 
REMARK  7 active torsions:
REMARK  status: ('A' for Active; 'I' for Inactive)
REMARK    1  A    between atoms: C_1  and  C_2
REMARK    2  A    between atoms: C_2  and  C_3
REMARK    3  A    between atoms: C_2  and  C_4
REMARK    4  A    between atoms: C_2  and  C_5
REMARK    5  A    between atoms: C_8  and  C_9
REMARK    6  A    between atoms: C_9  and  N_10
REMARK    7  A    between atoms: N_10  and  C_11
REMARK                            x       y       z     vdW  Elec       q    Type
REMARK                         _______ _______ _______ _____ _____    ______ ____
ROOT
ATOM      1  N   UNL     1       2.606   6.584  20.129  0.00  0.00    +0.000 N 
ATOM      2  H   UNL     1       3.096   6.613  21.019  0.00  0.00    +0.000 HD
ENDROOT
BRANCH   1   3
ATOM      3  C   UNL     1       2.066   7.783  19.685  0.00  0.00    +0.000 A 
ATOM      4  C   UNL     1       2.259   8.093  18.327  0.00  0.00    +0.000 A 
ATOM      5  C   UNL     1       1.652   9.192  17.719  0.00  0.00    +0.000 A 
ATOM      6  C   UNL     1       0.822  10.017  18.468  0.00  0.00    +0.000 A 
ATOM      7  C   UNL     1       0.623   9.752  19.820  0.00  0.00    +0.000 A 
ATOM      8  C   UNL     1       1.222   8.632  20.429  0.00  0.00    +0.000 A 
ATOM      9  O   UNL     1       1.034   8.359  21.766  0.00  0.00    +0.000 OA
ATOM     10  C   UNL     1      -0.072   9.069  22.323  0.00  0.00    +0.000 C 
ATOM     11  C   UNL     1      -0.039  10.525  21.901  0.00  0.00    +0.000 C 
ATOM     12  O   UNL     1      -0.190  10.637  20.485  0.00  0.00    +0.000 OA
ENDBRANCH   1   3
BRANCH   1  13
ATOM     13  C   UNL     1       2.097   5.254  19.806  0.00  0.00    +0.000 C 
BRANCH  13  17
ATOM     14  C   UNL     1       4.626   4.269  17.463  0.00  0.00    +0.000 A 
ATOM     15  C   UNL     1       4.055   3.051  17.754  0.00  0.00    +0.000 A 
ATOM     16  N   UNL     1       3.034   3.202  18.649  0.00  0.00    +0.000 NA
ATOM     17  C   UNL     1       3.011   4.504  18.877  0.00  0.00    +0.000 A 
ATOM     18  O   UNL     1       3.949   5.222  18.184  0.00  0.00    +0.000 OA
BRANCH  14  20
ATOM     19  C   UNL     1       7.081   4.702  17.353  0.00  0.00    +0.000 C 
ATOM     20  C   UNL     1       5.750   4.723  16.574  0.00  0.00    +0.000 C 
ATOM     21  C   UNL     1       5.488   6.156  16.081  0.00  0.00    +0.000 C 
ATOM     22  C   UNL     1       5.876   3.785  15.363  0.00  0.00    +0.000 C 
ENDBRANCH  14  20
ENDBRANCH  13  17
ENDBRANCH   1  13
TORSDOF 4
ENDMDL
MODEL 3
REMARK VINA RESULT:      -7.1      0.530      1.070
REMARK  Name = 
REMARK  7 active torsions:
REMARK  status: ('A' for Active; 'I' for Inactive)
REMARK    1  A    between atoms: C_1  and  C_2
REMARK    2  A    between atoms: C_2  and  C_3
REMARK    3  A    between atoms: C_2  and  C_4
REMARK    4  A    between atoms: C_2  and  C_5
REMARK    5  A    between atoms: C_8  and  C_9
REMARK    6  A    between atoms: C_9  and  N_10
REMARK    7  A    between atoms: N_10  and  C_11
REMARK                            x       y       z     vdW  Elec       q    Type
REMARK                         _______ _______ _______ _____ _____    ______ ____
ROOT
ATOM      1  N   UNL     1       2.462   6.749  20.421  0.00  0.00    +0.000 N 
ATOM      2  H   UNL     1       2.672   6.746  21.416  0.00  0.00    +0.000 HD
ENDROOT
BRANCH   1   3
ATOM      3  C   UNL     1       1.907   7.916  19.914  0.00  0.00    +0.000 A 
ATOM      4  C   UNL     1       2.090   8.152  18.540  0.00  0.00    +0.000 A 
ATOM      5  C   UNL     1       1.468   9.208  17.875  0.00  0.00    +0.000 A 
ATOM      6  C   UNL     1       0.632  10.065  18.581  0.00  0.00    +0.000 A 
ATOM      7  C   UNL     1       0.443   9.874  19.947  0.00  0.00    +0.000 A 
ATOM      8  C   UNL     1       1.057   8.796  20.615  0.00  0.00    +0.000 A 
ATOM      9  O   UNL     1       0.879   8.596  21.965  0.00  0.00    +0.000 OA
ATOM     10  C   UNL     1      -0.232   9.324  22.488  0.00  0.00    +0.000 C 
ATOM     11  C   UNL     1      -0.217  10.754  21.986  0.00  0.00    +0.000 C 
ATOM     12  O   UNL     1      -0.377  10.787  20.567  0.00  0.00    +0.000 OA
ENDBRANCH   1   3
BRANCH   1  13
ATOM     13  C   UNL     1       2.256   5.408  19.881  0.00  0.00    +0.000 C 
BRANCH  13  17
ATOM     14  C   UNL     1       5.436   4.983  18.282  0.00  0.00    +0.000 A 
ATOM     15  C   UNL     1       4.738   3.922  17.754  0.00  0.00    +0.000 A 
ATOM     16  N   UNL     1       3.461   3.900  18.239  0.00  0.00    +0.000 NA
ATOM     17  C   UNL     1       3.417   4.946  19.045  0.00  0.00    +0.000 A 
ATOM     18  O   UNL     1       4.584   5.659  19.119  0.00  0.00    +0.000 OA
BRANCH  14  20
ATOM     19  C   UNL     1       7.686   4.516  17.307  0.00  0.00    +0.000 C 
ATOM     20  C   UNL     1       6.836   5.508  18.126  0.00  0.00    +0.000 C 
ATOM     21  C   UNL     1       7.488   5.695  19.507  0.00  0.00    +0.000 C 
ATOM     22  C   UNL     1       6.815   6.857  17.390  0.00  0.00    +0.000 C 
ENDBRANCH  14  20
ENDBRANCH  13  17
ENDBRANCH   1  13
TORSDOF 4
ENDMDL
MODEL 4
REMARK VINA RESULT:      -7.0      1.058      1.245
REMARK  Name = 
REMARK  7 active torsions:
REMARK  status: ('A' for Active; 'I' for Inactive)
REMARK    1  A    between atoms: C_1  and  C_2
REMARK    2  A    between atoms: C_2  and  C_3
REMARK    3  A    between atoms: C_2  and  C_4
REMARK    4  A    between atoms: C_2  and  C_5
REMARK    5  A    between atoms: C_8  and  C_9
REMARK    6  A    between atoms: C_9  and  N_10
REMARK    7  A    between atoms: N_10  and  C_11
REMARK                            x       y       z     vdW  Elec       q    Type
REMARK                         _______ _______ _______ _____ _____    ______ ____
ROOT
ATOM      1  N   UNL     1       2.741   6.600  20.104  0.00  0.00    +0.000 N 
ATOM      2  H   UNL     1       3.055   6.597  21.071  0.00  0.00    +0.000 HD
ENDROOT
BRANCH   1   3
ATOM      3  C   UNL     1       2.152   7.773  19.653  0.00  0.00    +0.000 A 
ATOM      4  C   UNL     1       2.305   8.067  18.286  0.00  0.00    +0.000 A 
ATOM      5  C   UNL     1       1.650   9.135  17.674  0.00  0.00    +0.000 A 
ATOM      6  C   UNL     1       0.809   9.945  18.428  0.00  0.00    +0.000 A 
ATOM      7  C   UNL     1       0.649   9.697  19.789  0.00  0.00    +0.000 A 
ATOM      8  C   UNL     1       1.297   8.608  20.402  0.00  0.00    +0.000 A 
ATOM      9  O   UNL     1       1.148   8.351  21.747  0.00  0.00    +0.000 OA
ATOM     10  C   UNL     1       0.032   9.035  22.318  0.00  0.00    +0.000 C 
ATOM     11  C   UNL     1       0.009  10.483  21.872  0.00  0.00    +0.000 C 
ATOM     12  O   UNL     1      -0.178  10.567  20.458  0.00  0.00    +0.000 OA
ENDBRANCH   1   3
BRANCH   1  13
ATOM     13  C   UNL     1       2.458   5.260  19.595  0.00  0.00    +0.000 C 
BRANCH  13  17
ATOM     14  C   UNL     1       5.237   4.893  17.360  0.00  0.00    +0.000 A 
ATOM     15  C   UNL     1       4.367   3.958  16.847  0.00  0.00    +0.000 A 
ATOM     16  N   UNL     1       3.206   3.938  17.567  0.00  0.00    +0.000 NA
ATOM     17  C   UNL     1       3.401   4.859  18.495  0.00  0.00    +0.000 A 
ATOM     18  O   UNL     1       4.615   5.489  18.429  0.00  0.00    +0.000 OA
BRANCH  14  20
ATOM     19  C   UNL     1       6.756   6.871  17.261  0.00  0.00    +0.000 C 
ATOM     20  C   UNL     1       6.621   5.357  17.000  0.00  0.00    +0.000 C 
ATOM     21  C   UNL     1       6.900   5.085  15.513  0.00  0.00    +0.000 C 
ATOM     22  C   UNL     1       7.663   4.618  17.854  0.00  0.00    +0.000 C 
ENDBRANCH  14  20
ENDBRANCH  13  17
ENDBRANCH   1  13
TORSDOF 4
ENDMDL
MODEL 5
REMARK VINA RESULT:      -7.0      0.748      1.320
REMARK  Name = 
REMARK  7 active torsions:
REMARK  status: ('A' for Active; 'I' for Inactive)
REMARK    1  A    between atoms: C_1  and  C_2
REMARK    2  A    between atoms: C_2  and  C_3
REMARK    3  A    between atoms: C_2  and  C_4
REMARK    4  A    between atoms: C_2  and  C_5
REMARK    5  A    between atoms: C_8  and  C_9
REMARK    6  A    between atoms: C_9  and  N_10
REMARK    7  A    between atoms: N_10  and  C_11
REMARK                            x       y       z     vdW  Elec       q    Type
REMARK                         _______ _______ _______ _____ _____    ______ ____
ROOT
ATOM      1  N   UNL     1       2.423   6.998  20.305  0.00  0.00    +0.000 N 
ATOM      2  H   UNL     1       2.652   6.943  21.295  0.00  0.00    +0.000 HD
ENDROOT
BRANCH   1   3
ATOM      3  C   UNL     1       1.794   8.161  19.884  0.00  0.00    +0.000 A 
ATOM      4  C   UNL     1       1.914   8.479  18.519  0.00  0.00    +0.000 A 
ATOM      5  C   UNL     1       1.218   9.537  17.936  0.00  0.00    +0.000 A 
ATOM      6  C   UNL     1       0.370  10.313  18.717  0.00  0.00    +0.000 A 
ATOM      7  C   UNL     1       0.241  10.040  20.076  0.00  0.00    +0.000 A 
ATOM      8  C   UNL     1       0.930   8.959  20.661  0.00  0.00    +0.000 A 
ATOM      9  O   UNL     1       0.813   8.678  22.004  0.00  0.00    +0.000 OA
ATOM     10  C   UNL     1      -0.311   9.322  22.605  0.00  0.00    +0.000 C 
ATOM     11  C   UNL     1      -0.382  10.775  22.183  0.00  0.00    +0.000 C 
ATOM     12  O   UNL     1      -0.597  10.876  20.774  0.00  0.00    +0.000 OA
ENDBRANCH   1   3
BRANCH   1  13
ATOM     13  C   UNL     1       2.281   5.684  19.683  0.00  0.00    +0.000 C 
BRANCH  13  17
ATOM     14  C   UNL     1       5.312   5.174  17.837  0.00  0.00    +0.000 A 
ATOM     15  C   UNL     1       5.370   4.124  18.724  0.00  0.00    +0.000 A 
ATOM     16  N   UNL     1       4.275   4.126  19.541  0.00  0.00    +0.000 NA
ATOM     17  C   UNL     1       3.582   5.173  19.129  0.00  0.00    +0.000 A 
ATOM     18  O   UNL     1       4.149   5.859  18.088  0.00  0.00    +0.000 OA
BRANCH  14  20
ATOM     19  C   UNL     1       5.343   6.262  15.591  0.00  0.00    +0.000 C 
ATOM     20  C   UNL     1       6.199   5.672  16.730  0.00  0.00    +0.000 C 
ATOM     21  C   UNL     1       7.041   4.515  16.166  0.00  0.00    +0.000 C 
ATOM     22  C   UNL     1       7.136   6.770  17.257  0.00  0.00    +0.000 C 
ENDBRANCH  14  20
ENDBRANCH  13  17
ENDBRANCH   1  13
TORSDOF 4
ENDMDL
MODEL 6
REMARK VINA RESULT:      -6.9      2.055      7.744
REMARK  Name = 
REMARK  7 active torsions:
REMARK  status: ('A' for Active; 'I' for Inactive)
REMARK    1  A    between atoms: C_1  and  C_2
REMARK    2  A    between atoms: C_2  and  C_3
REMARK    3  A    between atoms: C_2  and  C_4
REMARK    4  A    between atoms: C_2  and  C_5
REMARK    5  A    between atoms: C_8  and  C_9
REMARK    6  A    between atoms: C_9  and  N_10
REMARK    7  A    between atoms: N_10  and  C_11
REMARK                            x       y       z     vdW  Elec       q    Type
REMARK                         _______ _______ _______ _____ _____    ______ ____
ROOT
ATOM      1  N   UNL     1       3.578   5.600  18.197  0.00  0.00    +0.000 N 
ATOM      2  H   UNL     1       3.026   4.862  17.768  0.00  0.00    +0.000 HD
ENDROOT
BRANCH   1   3
ATOM      3  C   UNL     1       4.956   5.490  18.068  0.00  0.00    +0.000 A 
ATOM      4  C   UNL     1       5.708   5.618  19.250  0.00  0.00    +0.000 A 
ATOM      5  C   UNL     1       7.083   5.390  19.287  0.00  0.00    +0.000 A 
ATOM      6  C   UNL     1       7.748   5.020  18.124  0.00  0.00    +0.000 A 
ATOM      7  C   UNL     1       7.040   4.903  16.932  0.00  0.00    +0.000 A 
ATOM      8  C   UNL     1       5.648   5.116  16.898  0.00  0.00    +0.000 A 
ATOM      9  O   UNL     1       4.935   5.005  15.725  0.00  0.00    +0.000 OA
ATOM     10  C   UNL     1       5.657   4.315  14.705  0.00  0.00    +0.000 C 
ATOM     11  C   UNL     1       7.079   4.831  14.616  0.00  0.00    +0.000 C 
ATOM     12  O   UNL     1       7.785   4.561  15.829  0.00  0.00    +0.000 OA
ENDBRANCH   1   3
BRANCH   1  13
ATOM     13  C   UNL     1       2.880   6.265  19.294  0.00  0.00    +0.000 C 
BRANCH  13  17
ATOM     14  C   UNL     1       1.204   9.431  19.136  0.00  0.00    +0.000 A 
ATOM     15  C   UNL     1       1.816   9.401  17.904  0.00  0.00    +0.000 A 
ATOM     16  N   UNL     1       2.522   8.242  17.748  0.00  0.00    +0.000 NA
ATOM     17  C   UNL     1       2.321   7.600  18.886  0.00  0.00    +0.000 A 
ATOM     18  O   UNL     1       1.522   8.261  19.780  0.00  0.00    +0.000 OA
BRANCH  14  20
ATOM     19  C   UNL     1       1.078  11.736  20.086  0.00  0.00    +0.000 C 
ATOM     20  C   UNL     1       0.320  10.413  19.852  0.00  0.00    +0.000 C 
ATOM     21  C   UNL     1      -0.110   9.843  21.214  0.00  0.00    +0.000 C 
ATOM     22  C   UNL     1      -0.931  10.709  19.009  0.00  0.00    +0.000 C 
ENDBRANCH  14  20
ENDBRANCH  13  17
ENDBRANCH   1  13
TORSDOF 4
ENDMDL
MODEL 7
REMARK VINA RESULT:      -6.9      6.034      8.263
REMARK  Name = 
REMARK  7 active torsions:
REMARK  status: ('A' for Active; 'I' for Inactive)
REMARK    1  A    between atoms: C_1  and  C_2
REMARK    2  A    between atoms: C_2  and  C_3
REMARK    3  A    between atoms: C_2  and  C_4
REMARK    4  A    between atoms: C_2  and  C_5
REMARK    5  A    between atoms: C_8  and  C_9
REMARK    6  A    between atoms: C_9  and  N_10
REMARK    7  A    between atoms: N_10  and  C_11
REMARK                            x       y       z     vdW  Elec       q    Type
REMARK                         _______ _______ _______ _____ _____    ______ ____
ROOT
ATOM      1  N   UNL     1       9.334   9.869  18.566  0.00  0.00    +0.000 N 
ATOM      2  H   UNL     1       9.810   9.043  18.918  0.00  0.00    +0.000 HD
ENDROOT
BRANCH   1   3
ATOM      3  C   UNL     1       9.595  11.058  19.232  0.00  0.00    +0.000 A 
ATOM      4  C   UNL     1       9.351  11.067  20.618  0.00  0.00    +0.000 A 
ATOM      5  C   UNL     1       9.702  12.145  21.430  0.00  0.00    +0.000 A 
ATOM      6  C   UNL     1      10.317  13.257  20.866  0.00  0.00    +0.000 A 
ATOM      7  C   UNL     1      10.556  13.292  19.495  0.00  0.00    +0.000 A 
ATOM      8  C   UNL     1      10.218  12.195  18.678  0.00  0.00    +0.000 A 
ATOM      9  O   UNL     1      10.448  12.217  17.320  0.00  0.00    +0.000 OA
ATOM     10  C   UNL     1      11.359  13.245  16.932  0.00  0.00    +0.000 C 
ATOM     11  C   UNL     1      11.003  14.555  17.605  0.00  0.00    +0.000 C 
ATOM     12  O   UNL     1      11.141  14.442  19.023  0.00  0.00    +0.000 OA
ENDBRANCH   1   3
BRANCH   1  13
ATOM     13  C   UNL     1       8.101   9.552  17.850  0.00  0.00    +0.000 C 
BRANCH  13  17
ATOM     14  C   UNL     1       6.877   6.245  17.204  0.00  0.00    +0.000 A 
ATOM     15  C   UNL     1       7.686   6.012  18.291  0.00  0.00    +0.000 A 
ATOM     16  N   UNL     1       8.263   7.176  18.717  0.00  0.00    +0.000 NA
ATOM     17  C   UNL     1       7.789   8.082  17.879  0.00  0.00    +0.000 A 
ATOM     18  O   UNL     1       6.931   7.589  16.931  0.00  0.00    +0.000 OA
BRANCH  14  20
ATOM     19  C   UNL     1       6.880   4.439  15.481  0.00  0.00    +0.000 C 
ATOM     20  C   UNL     1       6.006   5.383  16.331  0.00  0.00    +0.000 C 
ATOM     21  C   UNL     1       5.167   6.262  15.389  0.00  0.00    +0.000 C 
ATOM     22  C   UNL     1       5.067   4.532  17.200  0.00  0.00    +0.000 C 
ENDBRANCH  14  20
ENDBRANCH  13  17
ENDBRANCH   1  13
TORSDOF 4
ENDMDL
MODEL 8
REMARK VINA RESULT:      -6.9      1.192      1.566
REMARK  Name = 
REMARK  7 active torsions:
REMARK  status: ('A' for Active; 'I' for Inactive)
REMARK    1  A    between atoms: C_1  and  C_2
REMARK    2  A    between atoms: C_2  and  C_3
REMARK    3  A    between atoms: C_2  and  C_4
REMARK    4  A    between atoms: C_2  and  C_5
REMARK    5  A    between atoms: C_8  and  C_9
REMARK    6  A    between atoms: C_9  and  N_10
REMARK    7  A    between atoms: N_10  and  C_11
REMARK                            x       y       z     vdW  Elec       q    Type
REMARK                         _______ _______ _______ _____ _____    ______ ____
ROOT
ATOM      1  N   UNL     1       2.454   6.964  20.414  0.00  0.00    +0.000 N 
ATOM      2  H   UNL     1       3.023   7.066  21.250  0.00  0.00    +0.000 HD
ENDROOT
BRANCH   1   3
ATOM      3  C   UNL     1       1.814   8.109  19.962  0.00  0.00    +0.000 A 
ATOM      4  C   UNL     1       1.930   8.392  18.589  0.00  0.00    +0.000 A 
ATOM      5  C   UNL     1       1.224   9.429  17.979  0.00  0.00    +0.000 A 
ATOM      6  C   UNL     1       0.370  10.217  18.741  0.00  0.00    +0.000 A 
ATOM      7  C   UNL     1       0.245   9.979  20.106  0.00  0.00    +0.000 A 
ATOM      8  C   UNL     1       0.945   8.921  20.719  0.00  0.00    +0.000 A 
ATOM      9  O   UNL     1       0.832   8.675  22.069  0.00  0.00    +0.000 OA
ATOM     10  C   UNL     1      -0.297   9.325  22.654  0.00  0.00    +0.000 C 
ATOM     11  C   UNL     1      -0.382  10.766  22.193  0.00  0.00    +0.000 C 
ATOM     12  O   UNL     1      -0.599  10.827  20.783  0.00  0.00    +0.000 OA
ENDBRANCH   1   3
BRANCH   1  13
ATOM     13  C   UNL     1       1.984   5.595  20.212  0.00  0.00    +0.000 C 
BRANCH  13  17
ATOM     14  C   UNL     1       4.106   4.668  17.475  0.00  0.00    +0.000 A 
ATOM     15  C   UNL     1       3.116   3.718  17.368  0.00  0.00    +0.000 A 
ATOM     16  N   UNL     1       2.172   3.898  18.339  0.00  0.00    +0.000 NA
ATOM     17  C   UNL     1       2.612   4.950  19.009  0.00  0.00    +0.000 A 
ATOM     18  O   UNL     1       3.784   5.478  18.536  0.00  0.00    +0.000 OA
BRANCH  14  20
ATOM     19  C   UNL     1       5.226   6.319  15.976  0.00  0.00    +0.000 C 
ATOM     20  C   UNL     1       5.365   4.971  16.712  0.00  0.00    +0.000 C 
ATOM     21  C   UNL     1       5.635   3.867  15.676  0.00  0.00    +0.000 C 
ATOM     22  C   UNL     1       6.558   5.062  17.677  0.00  0.00    +0.000 C 
ENDBRANCH  14  20
ENDBRANCH  13  17
ENDBRANCH   1  13
TORSDOF 4
ENDMDL
MODEL 9
REMARK VINA RESULT:      -6.7      1.864      7.510
REMARK  Name = 
REMARK  7 active torsions:
REMARK  status: ('A' for Active; 'I' for Inactive)
REMARK    1  A    between atoms: C_1  and  C_2
REMARK    2  A    between atoms: C_2  and  C_3
REMARK    3  A    between atoms: C_2  and  C_4
REMARK    4  A    between atoms: C_2  and  C_5
REMARK    5  A    between atoms: C_8  and  C_9
REMARK    6  A    between atoms: C_9  and  N_10
REMARK    7  A    between atoms: N_10  and  C_11
REMARK                            x       y       z     vdW  Elec       q    Type
REMARK                         _______ _______ _______ _____ _____    ______ ____
ROOT
ATOM      1  N   UNL     1       3.642   4.477  18.558  0.00  0.00    +0.000 N 
ATOM      2  H   UNL     1       3.318   3.600  18.160  0.00  0.00    +0.000 HD
ENDROOT
BRANCH   1   3
ATOM      3  C   UNL     1       4.971   4.804  18.325  0.00  0.00    +0.000 A 
ATOM      4  C   UNL     1       5.715   5.235  19.439  0.00  0.00    +0.000 A 
ATOM      5  C   UNL     1       7.090   5.459  19.376  0.00  0.00    +0.000 A 
ATOM      6  C   UNL     1       7.763   5.252  18.178  0.00  0.00    +0.000 A 
ATOM      7  C   UNL     1       7.057   4.845  17.050  0.00  0.00    +0.000 A 
ATOM      8  C   UNL     1       5.671   4.601  17.118  0.00  0.00    +0.000 A 
ATOM      9  O   UNL     1       4.959   4.200  16.010  0.00  0.00    +0.000 OA
ATOM     10  C   UNL     1       5.799   3.717  14.962  0.00  0.00    +0.000 C 
ATOM     11  C   UNL     1       6.971   4.653  14.743  0.00  0.00    +0.000 C 
ATOM     12  O   UNL     1       7.801   4.694  15.905  0.00  0.00    +0.000 OA
ENDBRANCH   1   3
BRANCH   1  13
ATOM     13  C   UNL     1       2.856   4.899  19.714  0.00  0.00    +0.000 C 
BRANCH  13  17
ATOM     14  C   UNL     1       1.476   8.161  20.265  0.00  0.00    +0.000 A 
ATOM     15  C   UNL     1       1.957   8.298  18.984  0.00  0.00    +0.000 A 
ATOM     16  N   UNL     1       2.534   7.133  18.562  0.00  0.00    +0.000 NA
ATOM     17  C   UNL     1       2.387   6.322  19.596  0.00  0.00    +0.000 A 
ATOM     18  O   UNL     1       1.744   6.877  20.670  0.00  0.00    +0.000 OA
BRANCH  14  20
ATOM     19  C   UNL     1       1.616   9.275  22.494  0.00  0.00    +0.000 C 
ATOM     20  C   UNL     1       0.762   9.070  21.227  0.00  0.00    +0.000 C 
ATOM     21  C   UNL     1      -0.587   8.453  21.635  0.00  0.00    +0.000 C 
ATOM     22  C   UNL     1       0.516  10.440  20.575  0.00  0.00    +0.000 C 
ENDBRANCH  14  20
ENDBRANCH  13  17
ENDBRANCH   1  13
TORSDOF 4
ENDMDL
