MODEL 1
REMARK VINA RESULT:      -7.4      0.000      0.000
REMARK  Name = 
REMARK  11 active torsions:
REMARK  status: ('A' for Active; 'I' for Inactive)
REMARK    1  A    between atoms: C_1  and  O_2
REMARK    2  A    between atoms: O_2  and  C_3
REMARK    3  A    between atoms: C_3  and  C_5
REMARK    4  A    between atoms: C_14  and  C_15
REMARK    5  A    between atoms: C_15  and  C_17
REMARK    6  A    between atoms: C_19  and  O_20
REMARK    7  A    between atoms: O_20  and  C_21
REMARK    8  A    between atoms: C_22  and  O_23
REMARK    9  A    between atoms: O_23  and  C_24
REMARK   10  A    between atoms: C_25  and  O_26
REMARK   11  A    between atoms: O_26  and  C_27
REMARK                            x       y       z     vdW  Elec       q    Type
REMARK                         _______ _______ _______ _____ _____    ______ ____
ROOT
ATOM      1  C   UNL     1       6.874   6.024  16.397  0.00  0.00    +0.000 A 
ATOM      2  N   UNL     1       7.721   5.491  15.456  0.00  0.00    +0.000 N 
ATOM      3  C   UNL     1       7.024   4.859  14.462  0.00  0.00    +0.000 A 
ATOM      4  C   UNL     1       7.507   4.149  13.356  0.00  0.00    +0.000 A 
ATOM      5  C   UNL     1       6.575   3.607  12.469  0.00  0.00    +0.000 A 
ATOM      6  C   UNL     1       5.217   3.809  12.673  0.00  0.00    +0.000 A 
ATOM      7 CL   UNL     1       4.081   3.111  11.582  0.00  0.00    +0.000 Cl
ATOM      8  C   UNL     1       4.749   4.561  13.761  0.00  0.00    +0.000 A 
ATOM      9  C   UNL     1       5.667   5.067  14.715  0.00  0.00    +0.000 A 
ATOM     10  C   UNL     1       5.571   5.816  15.952  0.00  0.00    +0.000 A 
ATOM     11  H   UNL     1       8.731   5.540  15.521  0.00  0.00    +0.000 HD
ENDROOT
BRANCH   1  12
ATOM     12  C   UNL     1       7.418   6.670  17.571  0.00  0.00    +0.000 C 
ATOM     13  O   UNL     1       7.625   7.874  17.647  0.00  0.00    +0.000 OA
BRANCH  12  15
ATOM     14  C   UNL     1       6.846   5.443  19.470  0.00  0.00    +0.000 C 
ATOM     15  O   UNL     1       7.829   5.746  18.481  0.00  0.00    +0.000 OA
ENDBRANCH  12  15
ENDBRANCH   1  12
BRANCH  10  16
ATOM     16  C   UNL     1       4.412   6.377  16.632  0.00  0.00    +0.000 C 
ATOM     17  O   UNL     1       3.976   7.485  16.364  0.00  0.00    +0.000 OA
BRANCH  16  18
ATOM     18  C   UNL     1       3.653   5.554  17.627  0.00  0.00    +0.000 A 
ATOM     19  C   UNL     1       3.095   6.223  18.707  0.00  0.00    +0.000 A 
ATOM     20  C   UNL     1       2.297   5.563  19.637  0.00  0.00    +0.000 A 
ATOM     21  C   UNL     1       2.044   4.171  19.486  0.00  0.00    +0.000 A 
ATOM     22  C   UNL     1       2.670   3.475  18.425  0.00  0.00    +0.000 A 
ATOM     23  C   UNL     1       3.486   4.175  17.519  0.00  0.00    +0.000 A 
BRANCH  20  24
ATOM     24  O   UNL     1       1.750   6.259  20.695  0.00  0.00    +0.000 OA
ATOM     25  C   UNL     1       1.677   7.680  20.496  0.00  0.00    +0.000 C 
ENDBRANCH  20  24
BRANCH  21  26
ATOM     26  O   UNL     1       1.222   3.604  20.439  0.00  0.00    +0.000 OA
ATOM     27  C   UNL     1       1.821   2.975  21.571  0.00  0.00    +0.000 C 
ENDBRANCH  21  26
BRANCH  22  28
ATOM     28  O   UNL     1       2.473   2.122  18.314  0.00  0.00    +0.000 OA
ATOM     29  C   UNL     1       3.554   1.239  18.584  0.00  0.00    +0.000 C 
ENDBRANCH  22  28
ENDBRANCH  16  18
ENDBRANCH  10  16
TORSDOF 7
ENDMDL
MODEL 2
REMARK VINA RESULT:      -7.2      1.345      3.009
REMARK  Name = 
REMARK  11 active torsions:
REMARK  status: ('A' for Active; 'I' for Inactive)
REMARK    1  A    between atoms: C_1  and  O_2
REMARK    2  A    between atoms: O_2  and  C_3
REMARK    3  A    between atoms: C_3  and  C_5
REMARK    4  A    between atoms: C_14  and  C_15
REMARK    5  A    between atoms: C_15  and  C_17
REMARK    6  A    between atoms: C_19  and  O_20
REMARK    7  A    between atoms: O_20  and  C_21
REMARK    8  A    between atoms: C_22  and  O_23
REMARK    9  A    between atoms: O_23  and  C_24
REMARK   10  A    between atoms: C_25  and  O_26
REMARK   11  A    between atoms: O_26  and  C_27
REMARK                            x       y       z     vdW  Elec       q    Type
REMARK                         _______ _______ _______ _____ _____    ______ ____
ROOT
ATOM      1  C   UNL     1       6.812   5.016  16.650  0.00  0.00    +0.000 A 
ATOM      2  N   UNL     1       7.551   5.359  15.544  0.00  0.00    +0.000 N 
ATOM      3  C   UNL     1       7.026   4.808  14.406  0.00  0.00    +0.000 A 
ATOM      4  C   UNL     1       7.505   4.870  13.092  0.00  0.00    +0.000 A 
ATOM      5  C   UNL     1       6.766   4.227  12.097  0.00  0.00    +0.000 A 
ATOM      6  C   UNL     1       5.576   3.585  12.413  0.00  0.00    +0.000 A 
ATOM      7 CL   UNL     1       4.691   2.777  11.176  0.00  0.00    +0.000 Cl
ATOM      8  C   UNL     1       5.086   3.570  13.728  0.00  0.00    +0.000 A 
ATOM      9  C   UNL     1       5.847   4.156  14.770  0.00  0.00    +0.000 A 
ATOM     10  C   UNL     1       5.708   4.291  16.207  0.00  0.00    +0.000 A 
ATOM     11  H   UNL     1       8.392   5.922  15.587  0.00  0.00    +0.000 HD
ENDROOT
BRANCH   1  12
ATOM     12  C   UNL     1       7.245   5.437  17.964  0.00  0.00    +0.000 C 
ATOM     13  O   UNL     1       7.688   4.670  18.809  0.00  0.00    +0.000 OA
BRANCH  12  15
ATOM     14  C   UNL     1       8.027   7.634  18.028  0.00  0.00    +0.000 C 
ATOM     15  O   UNL     1       6.925   6.741  18.181  0.00  0.00    +0.000 OA
ENDBRANCH  12  15
ENDBRANCH   1  12
BRANCH  10  16
ATOM     16  C   UNL     1       4.629   3.884  17.096  0.00  0.00    +0.000 C 
ATOM     17  O   UNL     1       4.334   2.712  17.264  0.00  0.00    +0.000 OA
BRANCH  16  18
ATOM     18  C   UNL     1       3.906   4.907  17.917  0.00  0.00    +0.000 A 
ATOM     19  C   UNL     1       3.435   4.504  19.159  0.00  0.00    +0.000 A 
ATOM     20  C   UNL     1       2.829   5.402  20.032  0.00  0.00    +0.000 A 
ATOM     21  C   UNL     1       2.684   6.765  19.652  0.00  0.00    +0.000 A 
ATOM     22  C   UNL     1       3.100   7.161  18.358  0.00  0.00    +0.000 A 
ATOM     23  C   UNL     1       3.688   6.218  17.498  0.00  0.00    +0.000 A 
BRANCH  20  24
ATOM     24  O   UNL     1       2.379   4.971  21.264  0.00  0.00    +0.000 OA
ATOM     25  C   UNL     1       1.771   3.670  21.251  0.00  0.00    +0.000 C 
ENDBRANCH  20  24
BRANCH  21  26
ATOM     26  O   UNL     1       2.095   7.590  20.589  0.00  0.00    +0.000 OA
ATOM     27  C   UNL     1       0.672   7.592  20.701  0.00  0.00    +0.000 C 
ENDBRANCH  21  26
BRANCH  22  28
ATOM     28  O   UNL     1       2.906   8.462  17.970  0.00  0.00    +0.000 OA
ATOM     29  C   UNL     1       1.601   8.886  17.595  0.00  0.00    +0.000 C 
ENDBRANCH  22  28
ENDBRANCH  16  18
ENDBRANCH  10  16
TORSDOF 7
ENDMDL
MODEL 3
REMARK VINA RESULT:      -7.2      0.809      2.673
REMARK  Name = 
REMARK  11 active torsions:
REMARK  status: ('A' for Active; 'I' for Inactive)
REMARK    1  A    between atoms: C_1  and  O_2
REMARK    2  A    between atoms: O_2  and  C_3
REMARK    3  A    between atoms: C_3  and  C_5
REMARK    4  A    between atoms: C_14  and  C_15
REMARK    5  A    between atoms: C_15  and  C_17
REMARK    6  A    between atoms: C_19  and  O_20
REMARK    7  A    between atoms: O_20  and  C_21
REMARK    8  A    between atoms: C_22  and  O_23
REMARK    9  A    between atoms: O_23  and  C_24
REMARK   10  A    between atoms: C_25  and  O_26
REMARK   11  A    between atoms: O_26  and  C_27
REMARK                            x       y       z     vdW  Elec       q    Type
REMARK                         _______ _______ _______ _____ _____    ______ ____
ROOT
ATOM      1  C   UNL     1       6.892   6.229  16.409  0.00  0.00    +0.000 A 
ATOM      2  N   UNL     1       7.747   5.684  15.483  0.00  0.00    +0.000 N 
ATOM      3  C   UNL     1       7.061   5.004  14.513  0.00  0.00    +0.000 A 
ATOM      4  C   UNL     1       7.556   4.269  13.429  0.00  0.00    +0.000 A 
ATOM      5  C   UNL     1       6.634   3.677  12.564  0.00  0.00    +0.000 A 
ATOM      6  C   UNL     1       5.271   3.855  12.767  0.00  0.00    +0.000 A 
ATOM      7 CL   UNL     1       4.148   3.097  11.704  0.00  0.00    +0.000 Cl
ATOM      8  C   UNL     1       4.791   4.632  13.831  0.00  0.00    +0.000 A 
ATOM      9  C   UNL     1       5.700   5.190  14.764  0.00  0.00    +0.000 A 
ATOM     10  C   UNL     1       5.592   5.977  15.977  0.00  0.00    +0.000 A 
ATOM     11  H   UNL     1       8.756   5.758  15.542  0.00  0.00    +0.000 HD
ENDROOT
BRANCH   1  12
ATOM     12  C   UNL     1       7.425   6.925  17.559  0.00  0.00    +0.000 C 
ATOM     13  O   UNL     1       7.707   6.372  18.614  0.00  0.00    +0.000 OA
BRANCH  12  15
ATOM     14  C   UNL     1       8.386   8.979  18.107  0.00  0.00    +0.000 C 
ATOM     15  O   UNL     1       7.394   8.270  17.364  0.00  0.00    +0.000 OA
ENDBRANCH  12  15
ENDBRANCH   1  12
BRANCH  10  16
ATOM     16  C   UNL     1       4.423   6.534  16.642  0.00  0.00    +0.000 C 
ATOM     17  O   UNL     1       3.854   7.531  16.228  0.00  0.00    +0.000 OA
BRANCH  16  18
ATOM     18  C   UNL     1       3.820   5.829  17.818  0.00  0.00    +0.000 A 
ATOM     19  C   UNL     1       4.162   4.496  18.000  0.00  0.00    +0.000 A 
ATOM     20  C   UNL     1       3.726   3.780  19.110  0.00  0.00    +0.000 A 
ATOM     21  C   UNL     1       2.911   4.419  20.086  0.00  0.00    +0.000 A 
ATOM     22  C   UNL     1       2.505   5.757  19.865  0.00  0.00    +0.000 A 
ATOM     23  C   UNL     1       2.950   6.439  18.719  0.00  0.00    +0.000 A 
BRANCH  20  24
ATOM     24  O   UNL     1       4.091   2.458  19.266  0.00  0.00    +0.000 OA
ATOM     25  C   UNL     1       3.507   1.565  18.304  0.00  0.00    +0.000 C 
ENDBRANCH  20  24
BRANCH  21  26
ATOM     26  O   UNL     1       2.547   3.641  21.166  0.00  0.00    +0.000 OA
ATOM     27  C   UNL     1       1.303   2.943  21.117  0.00  0.00    +0.000 C 
ENDBRANCH  21  26
BRANCH  22  28
ATOM     28  O   UNL     1       1.671   6.354  20.776  0.00  0.00    +0.000 OA
ATOM     29  C   UNL     1       1.516   7.767  20.752  0.00  0.00    +0.000 C 
ENDBRANCH  22  28
ENDBRANCH  16  18
ENDBRANCH  10  16
TORSDOF 7
ENDMDL
MODEL 4
REMARK VINA RESULT:      -7.2      0.624      2.486
REMARK  Name = 
REMARK  11 active torsions:
REMARK  status: ('A' for Active; 'I' for Inactive)
REMARK    1  A    between atoms: C_1  and  O_2
REMARK    2  A    between atoms: O_2  and  C_3
REMARK    3  A    between atoms: C_3  and  C_5
REMARK    4  A    between atoms: C_14  and  C_15
REMARK    5  A    between atoms: C_15  and  C_17
REMARK    6  A    between atoms: C_19  and  O_20
REMARK    7  A    between atoms: O_20  and  C_21
REMARK    8  A    between atoms: C_22  and  O_23
REMARK    9  A    between atoms: O_23  and  C_24
REMARK   10  A    between atoms: C_25  and  O_26
REMARK   11  A    between atoms: O_26  and  C_27
REMARK                            x       y       z     vdW  Elec       q    Type
REMARK                         _______ _______ _______ _____ _____    ______ ____
ROOT
ATOM      1  C   UNL     1       6.918   5.886  16.364  0.00  0.00    +0.000 A 
ATOM      2  N   UNL     1       7.727   5.324  15.407  0.00  0.00    +0.000 N 
ATOM      3  C   UNL     1       6.989   4.740  14.413  0.00  0.00    +0.000 A 
ATOM      4  C   UNL     1       7.425   4.021  13.293  0.00  0.00    +0.000 A 
ATOM      5  C   UNL     1       6.458   3.537  12.410  0.00  0.00    +0.000 A 
ATOM      6  C   UNL     1       5.113   3.803  12.632  0.00  0.00    +0.000 A 
ATOM      7 CL   UNL     1       3.933   3.176  11.545  0.00  0.00    +0.000 Cl
ATOM      8  C   UNL     1       4.695   4.563  13.734  0.00  0.00    +0.000 A 
ATOM      9  C   UNL     1       5.647   5.011  14.683  0.00  0.00    +0.000 A 
ATOM     10  C   UNL     1       5.601   5.748  15.932  0.00  0.00    +0.000 A 
ATOM     11  H   UNL     1       8.739   5.323  15.461  0.00  0.00    +0.000 HD
ENDROOT
BRANCH   1  12
ATOM     12  C   UNL     1       7.505   6.489  17.539  0.00  0.00    +0.000 C 
ATOM     13  O   UNL     1       7.746   7.685  17.639  0.00  0.00    +0.000 OA
BRANCH  12  15
ATOM     14  C   UNL     1       7.220   5.576  19.667  0.00  0.00    +0.000 C 
ATOM     15  O   UNL     1       7.910   5.534  18.418  0.00  0.00    +0.000 OA
ENDBRANCH  12  15
ENDBRANCH   1  12
BRANCH  10  16
ATOM     16  C   UNL     1       4.478   6.356  16.631  0.00  0.00    +0.000 C 
ATOM     17  O   UNL     1       3.952   7.386  16.242  0.00  0.00    +0.000 OA
BRANCH  16  18
ATOM     18  C   UNL     1       3.867   5.668  17.812  0.00  0.00    +0.000 A 
ATOM     19  C   UNL     1       4.183   4.329  17.998  0.00  0.00    +0.000 A 
ATOM     20  C   UNL     1       3.737   3.626  19.114  0.00  0.00    +0.000 A 
ATOM     21  C   UNL     1       2.940   4.285  20.090  0.00  0.00    +0.000 A 
ATOM     22  C   UNL     1       2.558   5.630  19.864  0.00  0.00    +0.000 A 
ATOM     23  C   UNL     1       3.012   6.299  18.714  0.00  0.00    +0.000 A 
BRANCH  20  24
ATOM     24  O   UNL     1       4.077   2.298  19.273  0.00  0.00    +0.000 OA
ATOM     25  C   UNL     1       3.597   1.434  18.232  0.00  0.00    +0.000 C 
ENDBRANCH  20  24
BRANCH  21  26
ATOM     26  O   UNL     1       2.564   3.520  21.174  0.00  0.00    +0.000 OA
ATOM     27  C   UNL     1       1.299   2.860  21.141  0.00  0.00    +0.000 C 
ENDBRANCH  21  26
BRANCH  22  28
ATOM     28  O   UNL     1       1.740   6.247  20.776  0.00  0.00    +0.000 OA
ATOM     29  C   UNL     1       1.505   7.645  20.662  0.00  0.00    +0.000 C 
ENDBRANCH  22  28
ENDBRANCH  16  18
ENDBRANCH  10  16
TORSDOF 7
ENDMDL
MODEL 5
REMARK VINA RESULT:      -7.1      5.219      8.050
REMARK  Name = 
REMARK  11 active torsions:
REMARK  status: ('A' for Active; 'I' for Inactive)
REMARK    1  A    between atoms: C_1  and  O_2
REMARK    2  A    between atoms: O_2  and  C_3
REMARK    3  A    between atoms: C_3  and  C_5
REMARK    4  A    between atoms: C_14  and  C_15
REMARK    5  A    between atoms: C_15  and  C_17
REMARK    6  A    between atoms: C_19  and  O_20
REMARK    7  A    between atoms: O_20  and  C_21
REMARK    8  A    between atoms: C_22  and  O_23
REMARK    9  A    between atoms: O_23  and  C_24
REMARK   10  A    between atoms: C_25  and  O_26
REMARK   11  A    between atoms: O_26  and  C_27
REMARK                            x       y       z     vdW  Elec       q    Type
REMARK                         _______ _______ _______ _____ _____    ______ ____
ROOT
ATOM      1  C   UNL     1       0.983   8.460  20.713  0.00  0.00    +0.000 A 
ATOM      2  N   UNL     1       1.684   7.290  20.872  0.00  0.00    +0.000 N 
ATOM      3  C   UNL     1       2.440   7.009  19.765  0.00  0.00    +0.000 A 
ATOM      4  C   UNL     1       3.249   5.897  19.505  0.00  0.00    +0.000 A 
ATOM      5  C   UNL     1       3.937   5.859  18.290  0.00  0.00    +0.000 A 
ATOM      6  C   UNL     1       3.840   6.919  17.398  0.00  0.00    +0.000 A 
ATOM      7 CL   UNL     1       4.676   6.843  15.895  0.00  0.00    +0.000 Cl
ATOM      8  C   UNL     1       3.061   8.047  17.693  0.00  0.00    +0.000 A 
ATOM      9  C   UNL     1       2.298   8.085  18.887  0.00  0.00    +0.000 A 
ATOM     10  C   UNL     1       1.367   9.016  19.495  0.00  0.00    +0.000 A 
ATOM     11  H   UNL     1       1.615   6.704  21.695  0.00  0.00    +0.000 HD
ENDROOT
BRANCH   1  12
ATOM     12  C   UNL     1       0.065   8.893  21.743  0.00  0.00    +0.000 C 
ATOM     13  O   UNL     1      -0.979   8.312  22.007  0.00  0.00    +0.000 OA
BRANCH  12  15
ATOM     14  C   UNL     1      -0.636  10.812  22.869  0.00  0.00    +0.000 C 
ATOM     15  O   UNL     1       0.430  10.109  22.231  0.00  0.00    +0.000 OA
ENDBRANCH  12  15
ENDBRANCH   1  12
BRANCH  10  16
ATOM     16  C   UNL     1       0.930  10.335  19.063  0.00  0.00    +0.000 C 
ATOM     17  O   UNL     1       1.708  11.266  18.929  0.00  0.00    +0.000 OA
BRANCH  16  18
ATOM     18  C   UNL     1      -0.498  10.562  18.671  0.00  0.00    +0.000 A 
ATOM     19  C   UNL     1      -1.224  11.473  19.425  0.00  0.00    +0.000 A 
ATOM     20  C   UNL     1      -2.529  11.819  19.087  0.00  0.00    +0.000 A 
ATOM     21  C   UNL     1      -3.140  11.232  17.945  0.00  0.00    +0.000 A 
ATOM     22  C   UNL     1      -2.425  10.250  17.217  0.00  0.00    +0.000 A 
ATOM     23  C   UNL     1      -1.117   9.913  17.604  0.00  0.00    +0.000 A 
BRANCH  20  24
ATOM     24  O   UNL     1      -3.221  12.735  19.853  0.00  0.00    +0.000 OA
ATOM     25  C   UNL     1      -2.389  13.577  20.666  0.00  0.00    +0.000 C 
ENDBRANCH  20  24
BRANCH  21  26
ATOM     26  O   UNL     1      -4.425  11.652  17.670  0.00  0.00    +0.000 OA
ATOM     27  C   UNL     1      -5.519  10.875  18.159  0.00  0.00    +0.000 C 
ENDBRANCH  21  26
BRANCH  22  28
ATOM     28  O   UNL     1      -3.036   9.641  16.152  0.00  0.00    +0.000 OA
ATOM     29  C   UNL     1      -2.925  10.226  14.860  0.00  0.00    +0.000 C 
ENDBRANCH  22  28
ENDBRANCH  16  18
ENDBRANCH  10  16
TORSDOF 7
ENDMDL
MODEL 6
REMARK VINA RESULT:      -7.0      3.048      5.666
REMARK  Name = 
REMARK  11 active torsions:
REMARK  status: ('A' for Active; 'I' for Inactive)
REMARK    1  A    between atoms: C_1  and  O_2
REMARK    2  A    between atoms: O_2  and  C_3
REMARK    3  A    between atoms: C_3  and  C_5
REMARK    4  A    between atoms: C_14  and  C_15
REMARK    5  A    between atoms: C_15  and  C_17
REMARK    6  A    between atoms: C_19  and  O_20
REMARK    7  A    between atoms: O_20  and  C_21
REMARK    8  A    between atoms: C_22  and  O_23
REMARK    9  A    between atoms: O_23  and  C_24
REMARK   10  A    between atoms: C_25  and  O_26
REMARK   11  A    between atoms: O_26  and  C_27
REMARK                            x       y       z     vdW  Elec       q    Type
REMARK                         _______ _______ _______ _____ _____    ______ ____
ROOT
ATOM      1  C   UNL     1       3.195   4.290  17.526  0.00  0.00    +0.000 A 
ATOM      2  N   UNL     1       4.168   4.097  16.576  0.00  0.00    +0.000 N 
ATOM      3  C   UNL     1       5.213   4.964  16.752  0.00  0.00    +0.000 A 
ATOM      4  C   UNL     1       6.367   5.128  15.976  0.00  0.00    +0.000 A 
ATOM      5  C   UNL     1       7.299   6.083  16.385  0.00  0.00    +0.000 A 
ATOM      6  C   UNL     1       7.089   6.811  17.549  0.00  0.00    +0.000 A 
ATOM      7 CL   UNL     1       8.239   8.003  18.024  0.00  0.00    +0.000 Cl
ATOM      8  C   UNL     1       5.950   6.604  18.340  0.00  0.00    +0.000 A 
ATOM      9  C   UNL     1       4.954   5.690  17.916  0.00  0.00    +0.000 A 
ATOM     10  C   UNL     1       3.662   5.256  18.414  0.00  0.00    +0.000 A 
ATOM     11  H   UNL     1       4.092   3.417  15.829  0.00  0.00    +0.000 HD
ENDROOT
BRANCH   1  12
ATOM     12  C   UNL     1       1.971   3.522  17.468  0.00  0.00    +0.000 C 
ATOM     13  O   UNL     1       0.869   4.018  17.271  0.00  0.00    +0.000 OA
BRANCH  12  15
ATOM     14  C   UNL     1       1.861   1.966  19.202  0.00  0.00    +0.000 C 
ATOM     15  O   UNL     1       2.193   2.234  17.840  0.00  0.00    +0.000 OA
ENDBRANCH  12  15
ENDBRANCH   1  12
BRANCH  10  16
ATOM     16  C   UNL     1       2.950   5.612  19.632  0.00  0.00    +0.000 C 
ATOM     17  O   UNL     1       2.976   4.908  20.628  0.00  0.00    +0.000 OA
BRANCH  16  18
ATOM     18  C   UNL     1       2.233   6.923  19.728  0.00  0.00    +0.000 A 
ATOM     19  C   UNL     1       2.377   7.802  18.663  0.00  0.00    +0.000 A 
ATOM     20  C   UNL     1       1.681   9.007  18.617  0.00  0.00    +0.000 A 
ATOM     21  C   UNL     1       0.801   9.353  19.679  0.00  0.00    +0.000 A 
ATOM     22  C   UNL     1       0.707   8.490  20.797  0.00  0.00    +0.000 A 
ATOM     23  C   UNL     1       1.444   7.293  20.815  0.00  0.00    +0.000 A 
BRANCH  20  24
ATOM     24  O   UNL     1       1.840   9.855  17.540  0.00  0.00    +0.000 OA
ATOM     25  C   UNL     1       2.471  11.105  17.857  0.00  0.00    +0.000 C 
ENDBRANCH  20  24
BRANCH  21  26
ATOM     26  O   UNL     1       0.133  10.552  19.538  0.00  0.00    +0.000 OA
ATOM     27  C   UNL     1      -1.184  10.541  18.986  0.00  0.00    +0.000 C 
ENDBRANCH  21  26
BRANCH  22  28
ATOM     28  O   UNL     1      -0.096   8.853  21.848  0.00  0.00    +0.000 OA
ATOM     29  C   UNL     1       0.477   9.534  22.956  0.00  0.00    +0.000 C 
ENDBRANCH  22  28
ENDBRANCH  16  18
ENDBRANCH  10  16
TORSDOF 7
ENDMDL
MODEL 7
REMARK VINA RESULT:      -6.9      2.868      6.694
REMARK  Name = 
REMARK  11 active torsions:
REMARK  status: ('A' for Active; 'I' for Inactive)
REMARK    1  A    between atoms: C_1  and  O_2
REMARK    2  A    between atoms: O_2  and  C_3
REMARK    3  A    between atoms: C_3  and  C_5
REMARK    4  A    between atoms: C_14  and  C_15
REMARK    5  A    between atoms: C_15  and  C_17
REMARK    6  A    between atoms: C_19  and  O_20
REMARK    7  A    between atoms: O_20  and  C_21
REMARK    8  A    between atoms: C_22  and  O_23
REMARK    9  A    between atoms: O_23  and  C_24
REMARK   10  A    between atoms: C_25  and  O_26
REMARK   11  A    between atoms: O_26  and  C_27
REMARK                            x       y       z     vdW  Elec       q    Type
REMARK                         _______ _______ _______ _____ _____    ______ ____
ROOT
ATOM      1  C   UNL     1       3.157   4.181  19.808  0.00  0.00    +0.000 A 
ATOM      2  N   UNL     1       2.719   5.092  20.737  0.00  0.00    +0.000 N 
ATOM      3  C   UNL     1       2.421   6.294  20.153  0.00  0.00    +0.000 A 
ATOM      4  C   UNL     1       1.997   7.487  20.750  0.00  0.00    +0.000 A 
ATOM      5  C   UNL     1       1.742   8.579  19.919  0.00  0.00    +0.000 A 
ATOM      6  C   UNL     1       1.871   8.455  18.542  0.00  0.00    +0.000 A 
ATOM      7 CL   UNL     1       1.574   9.820  17.534  0.00  0.00    +0.000 Cl
ATOM      8  C   UNL     1       2.252   7.240  17.955  0.00  0.00    +0.000 A 
ATOM      9  C   UNL     1       2.583   6.133  18.776  0.00  0.00    +0.000 A 
ATOM     10  C   UNL     1       3.052   4.779  18.554  0.00  0.00    +0.000 A 
ATOM     11  H   UNL     1       2.659   4.894  21.729  0.00  0.00    +0.000 HD
ENDROOT
BRANCH   1  12
ATOM     12  C   UNL     1       3.595   2.871  20.235  0.00  0.00    +0.000 C 
ATOM     13  O   UNL     1       4.168   2.075  19.502  0.00  0.00    +0.000 OA
BRANCH  12  15
ATOM     14  C   UNL     1       1.721   2.345  21.520  0.00  0.00    +0.000 C 
ATOM     15  O   UNL     1       3.126   2.589  21.480  0.00  0.00    +0.000 OA
ENDBRANCH  12  15
ENDBRANCH   1  12
BRANCH  10  16
ATOM     16  C   UNL     1       3.298   4.053  17.316  0.00  0.00    +0.000 C 
ATOM     17  O   UNL     1       2.520   3.215  16.890  0.00  0.00    +0.000 OA
BRANCH  16  18
ATOM     18  C   UNL     1       4.486   4.392  16.469  0.00  0.00    +0.000 A 
ATOM     19  C   UNL     1       5.357   5.356  16.958  0.00  0.00    +0.000 A 
ATOM     20  C   UNL     1       6.535   5.676  16.289  0.00  0.00    +0.000 A 
ATOM     21  C   UNL     1       6.861   5.007  15.077  0.00  0.00    +0.000 A 
ATOM     22  C   UNL     1       5.939   4.076  14.542  0.00  0.00    +0.000 A 
ATOM     23  C   UNL     1       4.751   3.796  15.238  0.00  0.00    +0.000 A 
BRANCH  20  24
ATOM     24  O   UNL     1       7.384   6.634  16.807  0.00  0.00    +0.000 OA
ATOM     25  C   UNL     1       7.619   6.517  18.219  0.00  0.00    +0.000 C 
ENDBRANCH  20  24
BRANCH  21  26
ATOM     26  O   UNL     1       8.059   5.369  14.496  0.00  0.00    +0.000 OA
ATOM     27  C   UNL     1       8.079   5.672  13.101  0.00  0.00    +0.000 C 
ENDBRANCH  21  26
BRANCH  22  28
ATOM     28  O   UNL     1       6.226   3.475  13.344  0.00  0.00    +0.000 OA
ATOM     29  C   UNL     1       5.216   3.399  12.346  0.00  0.00    +0.000 C 
ENDBRANCH  22  28
ENDBRANCH  16  18
ENDBRANCH  10  16
TORSDOF 7
ENDMDL
MODEL 8
REMARK VINA RESULT:      -6.9      2.924      7.099
REMARK  Name = 
REMARK  11 active torsions:
REMARK  status: ('A' for Active; 'I' for Inactive)
REMARK    1  A    between atoms: C_1  and  O_2
REMARK    2  A    between atoms: O_2  and  C_3
REMARK    3  A    between atoms: C_3  and  C_5
REMARK    4  A    between atoms: C_14  and  C_15
REMARK    5  A    between atoms: C_15  and  C_17
REMARK    6  A    between atoms: C_19  and  O_20
REMARK    7  A    between atoms: O_20  and  C_21
REMARK    8  A    between atoms: C_22  and  O_23
REMARK    9  A    between atoms: O_23  and  C_24
REMARK   10  A    between atoms: C_25  and  O_26
REMARK   11  A    between atoms: O_26  and  C_27
REMARK                            x       y       z     vdW  Elec       q    Type
REMARK                         _______ _______ _______ _____ _____    ______ ____
ROOT
ATOM      1  C   UNL     1       2.797   4.089  19.616  0.00  0.00    +0.000 A 
ATOM      2  N   UNL     1       2.288   4.950  20.558  0.00  0.00    +0.000 N 
ATOM      3  C   UNL     1       2.164   6.218  20.056  0.00  0.00    +0.000 A 
ATOM      4  C   UNL     1       1.740   7.386  20.700  0.00  0.00    +0.000 A 
ATOM      5  C   UNL     1       1.687   8.563  19.951  0.00  0.00    +0.000 A 
ATOM      6  C   UNL     1       2.011   8.547  18.600  0.00  0.00    +0.000 A 
ATOM      7 CL   UNL     1       1.962  10.013  17.698  0.00  0.00    +0.000 Cl
ATOM      8  C   UNL     1       2.391   7.359  17.958  0.00  0.00    +0.000 A 
ATOM      9  C   UNL     1       2.519   6.163  18.707  0.00  0.00    +0.000 A 
ATOM     10  C   UNL     1       2.922   4.799  18.424  0.00  0.00    +0.000 A 
ATOM     11  H   UNL     1       2.069   4.673  21.507  0.00  0.00    +0.000 HD
ENDROOT
BRANCH   1  12
ATOM     12  C   UNL     1       3.076   2.716  19.973  0.00  0.00    +0.000 C 
ATOM     13  O   UNL     1       4.189   2.211  19.905  0.00  0.00    +0.000 OA
BRANCH  12  15
ATOM     14  C   UNL     1       0.912   2.265  19.226  0.00  0.00    +0.000 C 
ATOM     15  O   UNL     1       1.921   2.037  20.209  0.00  0.00    +0.000 OA
ENDBRANCH  12  15
ENDBRANCH   1  12
BRANCH  10  16
ATOM     16  C   UNL     1       3.299   4.164  17.169  0.00  0.00    +0.000 C 
ATOM     17  O   UNL     1       2.528   3.454  16.544  0.00  0.00    +0.000 OA
BRANCH  16  18
ATOM     18  C   UNL     1       4.633   4.450  16.554  0.00  0.00    +0.000 A 
ATOM     19  C   UNL     1       4.903   3.863  15.325  0.00  0.00    +0.000 A 
ATOM     20  C   UNL     1       6.077   4.138  14.631  0.00  0.00    +0.000 A 
ATOM     21  C   UNL     1       7.029   5.038  15.185  0.00  0.00    +0.000 A 
ATOM     22  C   UNL     1       6.787   5.581  16.470  0.00  0.00    +0.000 A 
ATOM     23  C   UNL     1       5.598   5.262  17.148  0.00  0.00    +0.000 A 
BRANCH  20  24
ATOM     24  O   UNL     1       6.310   3.545  13.407  0.00  0.00    +0.000 OA
ATOM     25  C   UNL     1       5.141   3.400  12.586  0.00  0.00    +0.000 C 
ENDBRANCH  20  24
BRANCH  21  26
ATOM     26  O   UNL     1       8.151   5.272  14.417  0.00  0.00    +0.000 OA
ATOM     27  C   UNL     1       7.980   5.649  13.051  0.00  0.00    +0.000 C 
ENDBRANCH  21  26
BRANCH  22  28
ATOM     28  O   UNL     1       7.733   6.402  17.030  0.00  0.00    +0.000 OA
ATOM     29  C   UNL     1       7.387   7.746  17.341  0.00  0.00    +0.000 C 
ENDBRANCH  22  28
ENDBRANCH  16  18
ENDBRANCH  10  16
TORSDOF 7
ENDMDL
MODEL 9
REMARK VINA RESULT:      -6.9      3.022      5.645
REMARK  Name = 
REMARK  11 active torsions:
REMARK  status: ('A' for Active; 'I' for Inactive)
REMARK    1  A    between atoms: C_1  and  O_2
REMARK    2  A    between atoms: O_2  and  C_3
REMARK    3  A    between atoms: C_3  and  C_5
REMARK    4  A    between atoms: C_14  and  C_15
REMARK    5  A    between atoms: C_15  and  C_17
REMARK    6  A    between atoms: C_19  and  O_20
REMARK    7  A    between atoms: O_20  and  C_21
REMARK    8  A    between atoms: C_22  and  O_23
REMARK    9  A    between atoms: O_23  and  C_24
REMARK   10  A    between atoms: C_25  and  O_26
REMARK   11  A    between atoms: O_26  and  C_27
REMARK                            x       y       z     vdW  Elec       q    Type
REMARK                         _______ _______ _______ _____ _____    ______ ____
ROOT
ATOM      1  C   UNL     1       3.066   4.080  17.852  0.00  0.00    +0.000 A 
ATOM      2  N   UNL     1       4.001   3.746  16.904  0.00  0.00    +0.000 N 
ATOM      3  C   UNL     1       5.024   4.656  16.873  0.00  0.00    +0.000 A 
ATOM      4  C   UNL     1       6.136   4.709  16.025  0.00  0.00    +0.000 A 
ATOM      5  C   UNL     1       7.053   5.744  16.213  0.00  0.00    +0.000 A 
ATOM      6  C   UNL     1       6.872   6.661  17.241  0.00  0.00    +0.000 A 
ATOM      7 CL   UNL     1       8.002   7.945  17.442  0.00  0.00    +0.000 Cl
ATOM      8  C   UNL     1       5.777   6.568  18.112  0.00  0.00    +0.000 A 
ATOM      9  C   UNL     1       4.793   5.569  17.904  0.00  0.00    +0.000 A 
ATOM     10  C   UNL     1       3.541   5.199  18.533  0.00  0.00    +0.000 A 
ATOM     11  H   UNL     1       3.915   2.944  16.292  0.00  0.00    +0.000 HD
ENDROOT
BRANCH   1  12
ATOM     12  C   UNL     1       1.866   3.284  17.991  0.00  0.00    +0.000 C 
ATOM     13  O   UNL     1       0.772   3.628  17.562  0.00  0.00    +0.000 OA
BRANCH  12  15
ATOM     14  C   UNL     1       1.387   2.291  20.046  0.00  0.00    +0.000 C 
ATOM     15  O   UNL     1       2.088   2.218  18.805  0.00  0.00    +0.000 OA
ENDBRANCH  12  15
ENDBRANCH   1  12
BRANCH  10  16
ATOM     16  C   UNL     1       2.871   5.746  19.705  0.00  0.00    +0.000 C 
ATOM     17  O   UNL     1       2.930   5.205  20.797  0.00  0.00    +0.000 OA
BRANCH  16  18
ATOM     18  C   UNL     1       2.161   7.061  19.618  0.00  0.00    +0.000 A 
ATOM     19  C   UNL     1       1.310   7.391  20.664  0.00  0.00    +0.000 A 
ATOM     20  C   UNL     1       0.674   8.627  20.720  0.00  0.00    +0.000 A 
ATOM     21  C   UNL     1       0.894   9.581  19.688  0.00  0.00    +0.000 A 
ATOM     22  C   UNL     1       1.706   9.218  18.586  0.00  0.00    +0.000 A 
ATOM     23  C   UNL     1       2.313   7.951  18.557  0.00  0.00    +0.000 A 
BRANCH  20  24
ATOM     24  O   UNL     1      -0.160   8.927  21.779  0.00  0.00    +0.000 OA
ATOM     25  C   UNL     1       0.522   9.361  22.966  0.00  0.00    +0.000 C 
ENDBRANCH  20  24
BRANCH  21  26
ATOM     26  O   UNL     1       0.244  10.788  19.838  0.00  0.00    +0.000 OA
ATOM     27  C   UNL     1      -1.036  10.957  19.229  0.00  0.00    +0.000 C 
ENDBRANCH  21  26
BRANCH  22  28
ATOM     28  O   UNL     1       1.870  10.116  17.563  0.00  0.00    +0.000 OA
ATOM     29  C   UNL     1       2.517  11.355  17.823  0.00  0.00    +0.000 C 
ENDBRANCH  22  28
ENDBRANCH  16  18
ENDBRANCH  10  16
TORSDOF 7
ENDMDL
