MODEL 1
REMARK VINA RESULT:      -7.1      0.000      0.000
REMARK  Name = 
REMARK  7 active torsions:
REMARK  status: ('A' for Active; 'I' for Inactive)
REMARK    1  A    between atoms: C_1  and  O_2
REMARK    2  A    between atoms: O_2  and  C_3
REMARK    3  A    between atoms: C_6  and  C_7
REMARK    4  A    between atoms: C_8  and  C_9
REMARK    5  A    between atoms: C_8  and  C_13
REMARK    6  A    between atoms: C_9  and  C_10
REMARK    7  A    between atoms: C_10  and  O_12
REMARK                            x       y       z     vdW  Elec       q    Type
REMARK                         _______ _______ _______ _____ _____    ______ ____
ROOT
ATOM      1  C   UNL     1       3.739   7.266  18.069  0.00  0.00    +0.000 C 
ATOM      2  C   UNL     1       2.576   6.976  18.701  0.00  0.00    +0.000 C 
ENDROOT
BRANCH   2   3
ATOM      3  C   UNL     1       1.875   8.014  19.428  0.00  0.00    +0.000 A 
ATOM      4  N   UNL     1       1.674   7.951  20.734  0.00  0.00    +0.000 NA
ATOM      5  C   UNL     1       0.867   8.993  21.161  0.00  0.00    +0.000 A 
ATOM      6  C   UNL     1       0.335   9.146  22.458  0.00  0.00    +0.000 A 
ATOM      7  C   UNL     1      -0.471  10.250  22.754  0.00  0.00    +0.000 A 
ATOM      8  C   UNL     1      -0.736  11.209  21.782  0.00  0.00    +0.000 A 
ATOM      9  C   UNL     1      -0.216  11.082  20.489  0.00  0.00    +0.000 A 
ATOM     10  C   UNL     1       0.570   9.951  20.196  0.00  0.00    +0.000 A 
ATOM     11  S   UNL     1       1.298   9.482  18.710  0.00  0.00    +0.000 S 
ENDBRANCH   2   3
BRANCH   1  15
ATOM     12  C   UNL     1       5.896   4.457  15.665  0.00  0.00    +0.000 A 
ATOM     13  C   UNL     1       5.528   5.701  15.145  0.00  0.00    +0.000 A 
ATOM     14  C   UNL     1       4.845   6.632  15.933  0.00  0.00    +0.000 A 
ATOM     15  C   UNL     1       4.507   6.317  17.252  0.00  0.00    +0.000 A 
ATOM     16  C   UNL     1       4.886   5.078  17.779  0.00  0.00    +0.000 A 
ATOM     17  C   UNL     1       5.580   4.153  16.989  0.00  0.00    +0.000 A 
BRANCH  12  19
ATOM     18  C   UNL     1       6.285   3.869  13.396  0.00  0.00    +0.000 C 
ATOM     19  O   UNL     1       6.529   3.633  14.778  0.00  0.00    +0.000 OA
ENDBRANCH  12  19
ENDBRANCH   1  15
BRANCH   2  20
ATOM     20  C   UNL     1       1.919   5.606  18.570  0.00  0.00    +0.000 C 
BRANCH  20  21
ATOM     21  C   UNL     1       1.854   4.938  19.926  0.00  0.00    +0.000 C 
ATOM     22  O   UNL     1       0.905   4.277  20.322  0.00  0.00    +0.000 OA
BRANCH  21  23
ATOM     23  O   UNL     1       2.974   5.110  20.669  0.00  0.00    +0.000 OA
ATOM     24  H   UNL     1       3.343   4.270  21.018  0.00  0.00    +0.000 HD
ENDBRANCH  21  23
ENDBRANCH  20  21
ENDBRANCH   2  20
TORSDOF 6
ENDMDL
MODEL 2
REMARK VINA RESULT:      -6.8      0.228      1.018
REMARK  Name = 
REMARK  7 active torsions:
REMARK  status: ('A' for Active; 'I' for Inactive)
REMARK    1  A    between atoms: C_1  and  O_2
REMARK    2  A    between atoms: O_2  and  C_3
REMARK    3  A    between atoms: C_6  and  C_7
REMARK    4  A    between atoms: C_8  and  C_9
REMARK    5  A    between atoms: C_8  and  C_13
REMARK    6  A    between atoms: C_9  and  C_10
REMARK    7  A    between atoms: C_10  and  O_12
REMARK                            x       y       z     vdW  Elec       q    Type
REMARK                         _______ _______ _______ _____ _____    ______ ____
ROOT
ATOM      1  C   UNL     1       3.561   7.293  18.001  0.00  0.00    +0.000 C 
ATOM      2  C   UNL     1       2.452   6.987  18.717  0.00  0.00    +0.000 C 
ENDROOT
BRANCH   2   3
ATOM      3  C   UNL     1       1.794   8.014  19.498  0.00  0.00    +0.000 A 
ATOM      4  N   UNL     1       1.622   7.908  20.804  0.00  0.00    +0.000 NA
ATOM      5  C   UNL     1       0.851   8.953  21.288  0.00  0.00    +0.000 A 
ATOM      6  C   UNL     1       0.353   9.071  22.602  0.00  0.00    +0.000 A 
ATOM      7  C   UNL     1      -0.418  10.183  22.957  0.00  0.00    +0.000 A 
ATOM      8  C   UNL     1      -0.681  11.183  22.027  0.00  0.00    +0.000 A 
ATOM      9  C   UNL     1      -0.194  11.091  20.718  0.00  0.00    +0.000 A 
ATOM     10  C   UNL     1       0.556   9.954  20.365  0.00  0.00    +0.000 A 
ATOM     11  S   UNL     1       1.238   9.521  18.847  0.00  0.00    +0.000 S 
ENDBRANCH   2   3
BRANCH   1  15
ATOM     12  C   UNL     1       5.734   4.592  15.491  0.00  0.00    +0.000 A 
ATOM     13  C   UNL     1       5.173   4.149  16.692  0.00  0.00    +0.000 A 
ATOM     14  C   UNL     1       4.441   5.020  17.504  0.00  0.00    +0.000 A 
ATOM     15  C   UNL     1       4.278   6.356  17.126  0.00  0.00    +0.000 A 
ATOM     16  C   UNL     1       4.827   6.798  15.919  0.00  0.00    +0.000 A 
ATOM     17  C   UNL     1       5.551   5.919  15.103  0.00  0.00    +0.000 A 
BRANCH  12  19
ATOM     18  C   UNL     1       6.322   3.639  13.396  0.00  0.00    +0.000 C 
ATOM     19  O   UNL     1       6.450   3.646  14.813  0.00  0.00    +0.000 OA
ENDBRANCH  12  19
ENDBRANCH   1  15
BRANCH   2  20
ATOM     20  C   UNL     1       1.804   5.609  18.631  0.00  0.00    +0.000 C 
BRANCH  20  21
ATOM     21  C   UNL     1       1.814   4.953  19.993  0.00  0.00    +0.000 C 
ATOM     22  O   UNL     1       0.886   4.302  20.451  0.00  0.00    +0.000 OA
BRANCH  21  23
ATOM     23  O   UNL     1       2.978   5.122  20.668  0.00  0.00    +0.000 OA
ATOM     24  H   UNL     1       3.766   5.144  20.084  0.00  0.00    +0.000 HD
ENDBRANCH  21  23
ENDBRANCH  20  21
ENDBRANCH   2  20
TORSDOF 6
ENDMDL
MODEL 3
REMARK VINA RESULT:      -6.7      2.970      8.317
REMARK  Name = 
REMARK  7 active torsions:
REMARK  status: ('A' for Active; 'I' for Inactive)
REMARK    1  A    between atoms: C_1  and  O_2
REMARK    2  A    between atoms: O_2  and  C_3
REMARK    3  A    between atoms: C_6  and  C_7
REMARK    4  A    between atoms: C_8  and  C_9
REMARK    5  A    between atoms: C_8  and  C_13
REMARK    6  A    between atoms: C_9  and  C_10
REMARK    7  A    between atoms: C_10  and  O_12
REMARK                            x       y       z     vdW  Elec       q    Type
REMARK                         _______ _______ _______ _____ _____    ______ ____
ROOT
ATOM      1  C   UNL     1       3.542   6.113  17.355  0.00  0.00    +0.000 C 
ATOM      2  C   UNL     1       4.875   5.891  17.258  0.00  0.00    +0.000 C 
ENDROOT
BRANCH   2   3
ATOM      3  C   UNL     1       5.420   5.298  16.055  0.00  0.00    +0.000 A 
ATOM      4  N   UNL     1       6.471   5.802  15.430  0.00  0.00    +0.000 NA
ATOM      5  C   UNL     1       6.707   5.134  14.240  0.00  0.00    +0.000 A 
ATOM      6  C   UNL     1       7.651   5.504  13.259  0.00  0.00    +0.000 A 
ATOM      7  C   UNL     1       7.784   4.738  12.096  0.00  0.00    +0.000 A 
ATOM      8  C   UNL     1       7.004   3.601  11.910  0.00  0.00    +0.000 A 
ATOM      9  C   UNL     1       6.064   3.211  12.870  0.00  0.00    +0.000 A 
ATOM     10  C   UNL     1       5.919   4.007  14.022  0.00  0.00    +0.000 A 
ATOM     11  S   UNL     1       4.831   3.832  15.342  0.00  0.00    +0.000 S 
ENDBRANCH   2   3
BRANCH   1  15
ATOM     12  C   UNL     1       1.529   7.983  20.636  0.00  0.00    +0.000 A 
ATOM     13  C   UNL     1       1.939   6.650  20.722  0.00  0.00    +0.000 A 
ATOM     14  C   UNL     1       2.619   6.041  19.663  0.00  0.00    +0.000 A 
ATOM     15  C   UNL     1       2.880   6.761  18.495  0.00  0.00    +0.000 A 
ATOM     16  C   UNL     1       2.483   8.099  18.411  0.00  0.00    +0.000 A 
ATOM     17  C   UNL     1       1.812   8.708  19.479  0.00  0.00    +0.000 A 
BRANCH  12  19
ATOM     18  C   UNL     1      -0.571   8.487  21.627  0.00  0.00    +0.000 C 
ATOM     19  O   UNL     1       0.848   8.442  21.728  0.00  0.00    +0.000 OA
ENDBRANCH  12  19
ENDBRANCH   1  15
BRANCH   2  20
ATOM     20  C   UNL     1       5.840   6.360  18.342  0.00  0.00    +0.000 C 
BRANCH  20  21
ATOM     21  C   UNL     1       6.244   5.188  19.209  0.00  0.00    +0.000 C 
ATOM     22  O   UNL     1       5.680   4.103  19.205  0.00  0.00    +0.000 OA
BRANCH  21  23
ATOM     23  O   UNL     1       7.326   5.436  19.986  0.00  0.00    +0.000 OA
ATOM     24  H   UNL     1       7.425   4.803  20.729  0.00  0.00    +0.000 HD
ENDBRANCH  21  23
ENDBRANCH  20  21
ENDBRANCH   2  20
TORSDOF 6
ENDMDL
MODEL 4
REMARK VINA RESULT:      -6.6      2.327      7.873
REMARK  Name = 
REMARK  7 active torsions:
REMARK  status: ('A' for Active; 'I' for Inactive)
REMARK    1  A    between atoms: C_1  and  O_2
REMARK    2  A    between atoms: O_2  and  C_3
REMARK    3  A    between atoms: C_6  and  C_7
REMARK    4  A    between atoms: C_8  and  C_9
REMARK    5  A    between atoms: C_8  and  C_13
REMARK    6  A    between atoms: C_9  and  C_10
REMARK    7  A    between atoms: C_10  and  O_12
REMARK                            x       y       z     vdW  Elec       q    Type
REMARK                         _______ _______ _______ _____ _____    ______ ____
ROOT
ATOM      1  C   UNL     1       2.091   7.921  19.812  0.00  0.00    +0.000 C 
ATOM      2  C   UNL     1       2.288   6.585  19.923  0.00  0.00    +0.000 C 
ENDROOT
BRANCH   2   3
ATOM      3  C   UNL     1       3.234   5.923  19.049  0.00  0.00    +0.000 A 
ATOM      4  N   UNL     1       4.504   5.755  19.378  0.00  0.00    +0.000 NA
ATOM      5  C   UNL     1       5.222   5.219  18.322  0.00  0.00    +0.000 A 
ATOM      6  C   UNL     1       6.622   5.049  18.278  0.00  0.00    +0.000 A 
ATOM      7  C   UNL     1       7.221   4.496  17.141  0.00  0.00    +0.000 A 
ATOM      8  C   UNL     1       6.442   4.093  16.061  0.00  0.00    +0.000 A 
ATOM      9  C   UNL     1       5.051   4.247  16.083  0.00  0.00    +0.000 A 
ATOM     10  C   UNL     1       4.464   4.832  17.220  0.00  0.00    +0.000 A 
ATOM     11  S   UNL     1       2.813   5.205  17.529  0.00  0.00    +0.000 S 
ENDBRANCH   2   3
BRANCH   1  15
ATOM     12  C   UNL     1      -0.549  10.156  22.333  0.00  0.00    +0.000 A 
ATOM     13  C   UNL     1       0.477   9.384  22.886  0.00  0.00    +0.000 A 
ATOM     14  C   UNL     1       1.357   8.672  22.067  0.00  0.00    +0.000 A 
ATOM     15  C   UNL     1       1.207   8.713  20.678  0.00  0.00    +0.000 A 
ATOM     16  C   UNL     1       0.190   9.494  20.122  0.00  0.00    +0.000 A 
ATOM     17  C   UNL     1      -0.683  10.215  20.946  0.00  0.00    +0.000 A 
BRANCH  12  19
ATOM     18  C   UNL     1      -1.814  12.079  22.918  0.00  0.00    +0.000 C 
ATOM     19  O   UNL     1      -1.355  10.774  23.247  0.00  0.00    +0.000 OA
ENDBRANCH  12  19
ENDBRANCH   1  15
BRANCH   2  20
ATOM     20  C   UNL     1       1.624   5.772  21.029  0.00  0.00    +0.000 C 
BRANCH  20  21
ATOM     21  C   UNL     1       1.559   4.316  20.624  0.00  0.00    +0.000 C 
ATOM     22  O   UNL     1       0.629   3.814  20.008  0.00  0.00    +0.000 OA
BRANCH  21  23
ATOM     23  O   UNL     1       2.656   3.604  20.980  0.00  0.00    +0.000 OA
ATOM     24  H   UNL     1       3.353   3.593  20.289  0.00  0.00    +0.000 HD
ENDBRANCH  21  23
ENDBRANCH  20  21
ENDBRANCH   2  20
TORSDOF 6
ENDMDL
MODEL 5
REMARK VINA RESULT:      -6.5      0.957      1.540
REMARK  Name = 
REMARK  7 active torsions:
REMARK  status: ('A' for Active; 'I' for Inactive)
REMARK    1  A    between atoms: C_1  and  O_2
REMARK    2  A    between atoms: O_2  and  C_3
REMARK    3  A    between atoms: C_6  and  C_7
REMARK    4  A    between atoms: C_8  and  C_9
REMARK    5  A    between atoms: C_8  and  C_13
REMARK    6  A    between atoms: C_9  and  C_10
REMARK    7  A    between atoms: C_10  and  O_12
REMARK                            x       y       z     vdW  Elec       q    Type
REMARK                         _______ _______ _______ _____ _____    ______ ____
ROOT
ATOM      1  C   UNL     1       3.933   7.183  18.046  0.00  0.00    +0.000 C 
ATOM      2  C   UNL     1       2.718   6.823  18.525  0.00  0.00    +0.000 C 
ENDROOT
BRANCH   2   3
ATOM      3  C   UNL     1       1.959   7.755  19.334  0.00  0.00    +0.000 A 
ATOM      4  N   UNL     1       1.455   8.873  18.839  0.00  0.00    +0.000 NA
ATOM      5  C   UNL     1       0.894   9.649  19.840  0.00  0.00    +0.000 A 
ATOM      6  C   UNL     1       0.402  10.962  19.688  0.00  0.00    +0.000 A 
ATOM      7  C   UNL     1      -0.138  11.635  20.790  0.00  0.00    +0.000 A 
ATOM      8  C   UNL     1      -0.210  11.009  22.030  0.00  0.00    +0.000 A 
ATOM      9  C   UNL     1       0.267   9.705  22.204  0.00  0.00    +0.000 A 
ATOM     10  C   UNL     1       0.834   9.050  21.096  0.00  0.00    +0.000 A 
ATOM     11  S   UNL     1       1.549   7.489  20.996  0.00  0.00    +0.000 S 
ENDBRANCH   2   3
BRANCH   1  15
ATOM     12  C   UNL     1       6.292   4.697  15.483  0.00  0.00    +0.000 A 
ATOM     13  C   UNL     1       5.567   5.770  14.959  0.00  0.00    +0.000 A 
ATOM     14  C   UNL     1       4.814   6.600  15.794  0.00  0.00    +0.000 A 
ATOM     15  C   UNL     1       4.768   6.351  17.169  0.00  0.00    +0.000 A 
ATOM     16  C   UNL     1       5.503   5.286  17.697  0.00  0.00    +0.000 A 
ATOM     17  C   UNL     1       6.265   4.464  16.858  0.00  0.00    +0.000 A 
BRANCH  12  19
ATOM     18  C   UNL     1       6.285   3.712  13.321  0.00  0.00    +0.000 C 
ATOM     19  O   UNL     1       6.957   3.948  14.552  0.00  0.00    +0.000 OA
ENDBRANCH  12  19
ENDBRANCH   1  15
BRANCH   2  20
ATOM     20  C   UNL     1       2.070   5.498  18.139  0.00  0.00    +0.000 C 
BRANCH  20  21
ATOM     21  C   UNL     1       2.147   4.533  19.300  0.00  0.00    +0.000 C 
ATOM     22  O   UNL     1       3.158   4.322  19.954  0.00  0.00    +0.000 OA
BRANCH  21  23
ATOM     23  O   UNL     1       0.966   3.931  19.584  0.00  0.00    +0.000 OA
ATOM     24  H   UNL     1       0.670   3.307  18.887  0.00  0.00    +0.000 HD
ENDBRANCH  21  23
ENDBRANCH  20  21
ENDBRANCH   2  20
TORSDOF 6
ENDMDL
MODEL 6
REMARK VINA RESULT:      -6.5      2.885      8.293
REMARK  Name = 
REMARK  7 active torsions:
REMARK  status: ('A' for Active; 'I' for Inactive)
REMARK    1  A    between atoms: C_1  and  O_2
REMARK    2  A    between atoms: O_2  and  C_3
REMARK    3  A    between atoms: C_6  and  C_7
REMARK    4  A    between atoms: C_8  and  C_9
REMARK    5  A    between atoms: C_8  and  C_13
REMARK    6  A    between atoms: C_9  and  C_10
REMARK    7  A    between atoms: C_10  and  O_12
REMARK                            x       y       z     vdW  Elec       q    Type
REMARK                         _______ _______ _______ _____ _____    ______ ____
ROOT
ATOM      1  C   UNL     1       3.464   6.039  17.307  0.00  0.00    +0.000 C 
ATOM      2  C   UNL     1       4.772   5.684  17.295  0.00  0.00    +0.000 C 
ENDROOT
BRANCH   2   3
ATOM      3  C   UNL     1       5.367   5.175  16.076  0.00  0.00    +0.000 A 
ATOM      4  N   UNL     1       6.420   5.742  15.512  0.00  0.00    +0.000 NA
ATOM      5  C   UNL     1       6.708   5.149  14.294  0.00  0.00    +0.000 A 
ATOM      6  C   UNL     1       7.668   5.599  13.363  0.00  0.00    +0.000 A 
ATOM      7  C   UNL     1       7.855   4.903  12.164  0.00  0.00    +0.000 A 
ATOM      8  C   UNL     1       7.113   3.759  11.891  0.00  0.00    +0.000 A 
ATOM      9  C   UNL     1       6.159   3.290  12.801  0.00  0.00    +0.000 A 
ATOM     10  C   UNL     1       5.959   4.015  13.990  0.00  0.00    +0.000 A 
ATOM     11  S   UNL     1       4.840   3.737  15.266  0.00  0.00    +0.000 S 
ENDBRANCH   2   3
BRANCH   1  15
ATOM     12  C   UNL     1       1.513   7.757  20.707  0.00  0.00    +0.000 A 
ATOM     13  C   UNL     1       1.770   8.529  19.570  0.00  0.00    +0.000 A 
ATOM     14  C   UNL     1       2.385   7.967  18.448  0.00  0.00    +0.000 A 
ATOM     15  C   UNL     1       2.765   6.623  18.459  0.00  0.00    +0.000 A 
ATOM     16  C   UNL     1       2.497   5.845  19.590  0.00  0.00    +0.000 A 
ATOM     17  C   UNL     1       1.871   6.410  20.708  0.00  0.00    +0.000 A 
BRANCH  12  19
ATOM     18  C   UNL     1      -0.092   9.363  21.408  0.00  0.00    +0.000 C 
ATOM     19  O   UNL     1       0.938   8.439  21.742  0.00  0.00    +0.000 OA
ENDBRANCH  12  19
ENDBRANCH   1  15
BRANCH   2  20
ATOM     20  C   UNL     1       5.671   5.917  18.503  0.00  0.00    +0.000 C 
BRANCH  20  21
ATOM     21  C   UNL     1       6.482   4.672  18.785  0.00  0.00    +0.000 C 
ATOM     22  O   UNL     1       7.699   4.608  18.689  0.00  0.00    +0.000 OA
BRANCH  21  23
ATOM     23  O   UNL     1       5.734   3.619  19.195  0.00  0.00    +0.000 OA
ATOM     24  H   UNL     1       5.372   3.728  20.100  0.00  0.00    +0.000 HD
ENDBRANCH  21  23
ENDBRANCH  20  21
ENDBRANCH   2  20
TORSDOF 6
ENDMDL
MODEL 7
REMARK VINA RESULT:      -6.5      3.792      7.517
REMARK  Name = 
REMARK  7 active torsions:
REMARK  status: ('A' for Active; 'I' for Inactive)
REMARK    1  A    between atoms: C_1  and  O_2
REMARK    2  A    between atoms: O_2  and  C_3
REMARK    3  A    between atoms: C_6  and  C_7
REMARK    4  A    between atoms: C_8  and  C_9
REMARK    5  A    between atoms: C_8  and  C_13
REMARK    6  A    between atoms: C_9  and  C_10
REMARK    7  A    between atoms: C_10  and  O_12
REMARK                            x       y       z     vdW  Elec       q    Type
REMARK                         _______ _______ _______ _____ _____    ______ ____
ROOT
ATOM      1  C   UNL     1       1.230   9.095  18.983  0.00  0.00    +0.000 C 
ATOM      2  C   UNL     1       1.480   8.423  20.132  0.00  0.00    +0.000 C 
ENDROOT
BRANCH   2   3
ATOM      3  C   UNL     1       1.935   7.048  20.077  0.00  0.00    +0.000 A 
ATOM      4  N   UNL     1       1.470   6.116  20.891  0.00  0.00    +0.000 NA
ATOM      5  C   UNL     1       2.160   4.926  20.726  0.00  0.00    +0.000 A 
ATOM      6  C   UNL     1       2.025   3.775  21.531  0.00  0.00    +0.000 A 
ATOM      7  C   UNL     1       2.789   2.637  21.251  0.00  0.00    +0.000 A 
ATOM      8  C   UNL     1       3.667   2.626  20.173  0.00  0.00    +0.000 A 
ATOM      9  C   UNL     1       3.814   3.753  19.357  0.00  0.00    +0.000 A 
ATOM     10  C   UNL     1       3.062   4.902  19.666  0.00  0.00    +0.000 A 
ATOM     11  S   UNL     1       3.057   6.444  18.904  0.00  0.00    +0.000 S 
ENDBRANCH   2   3
BRANCH   1  15
ATOM     12  C   UNL     1       0.054  13.198  18.669  0.00  0.00    +0.000 A 
ATOM     13  C   UNL     1      -0.907  12.192  18.799  0.00  0.00    +0.000 A 
ATOM     14  C   UNL     1      -0.529  10.853  18.927  0.00  0.00    +0.000 A 
ATOM     15  C   UNL     1       0.825  10.505  18.908  0.00  0.00    +0.000 A 
ATOM     16  C   UNL     1       1.789  11.510  18.791  0.00  0.00    +0.000 A 
ATOM     17  C   UNL     1       1.405  12.852  18.674  0.00  0.00    +0.000 A 
BRANCH  12  19
ATOM     18  C   UNL     1       0.339  15.531  19.014  0.00  0.00    +0.000 C 
ATOM     19  O   UNL     1      -0.454  14.458  18.520  0.00  0.00    +0.000 OA
ENDBRANCH  12  19
ENDBRANCH   1  15
BRANCH   2  20
ATOM     20  C   UNL     1       1.408   9.112  21.490  0.00  0.00    +0.000 C 
BRANCH  20  21
ATOM     21  C   UNL     1      -0.016   9.095  21.999  0.00  0.00    +0.000 C 
ATOM     22  O   UNL     1      -0.522   9.991  22.659  0.00  0.00    +0.000 OA
BRANCH  21  23
ATOM     23  O   UNL     1      -0.711   7.993  21.625  0.00  0.00    +0.000 OA
ATOM     24  H   UNL     1      -0.507   7.694  20.713  0.00  0.00    +0.000 HD
ENDBRANCH  21  23
ENDBRANCH  20  21
ENDBRANCH   2  20
TORSDOF 6
ENDMDL
MODEL 8
REMARK VINA RESULT:      -6.5      3.832      7.444
REMARK  Name = 
REMARK  7 active torsions:
REMARK  status: ('A' for Active; 'I' for Inactive)
REMARK    1  A    between atoms: C_1  and  O_2
REMARK    2  A    between atoms: O_2  and  C_3
REMARK    3  A    between atoms: C_6  and  C_7
REMARK    4  A    between atoms: C_8  and  C_9
REMARK    5  A    between atoms: C_8  and  C_13
REMARK    6  A    between atoms: C_9  and  C_10
REMARK    7  A    between atoms: C_10  and  O_12
REMARK                            x       y       z     vdW  Elec       q    Type
REMARK                         _______ _______ _______ _____ _____    ______ ____
ROOT
ATOM      1  C   UNL     1       1.294   8.976  18.795  0.00  0.00    +0.000 C 
ATOM      2  C   UNL     1       1.523   8.335  19.967  0.00  0.00    +0.000 C 
ENDROOT
BRANCH   2   3
ATOM      3  C   UNL     1       2.010   6.970  19.957  0.00  0.00    +0.000 A 
ATOM      4  N   UNL     1       1.520   6.038  20.755  0.00  0.00    +0.000 NA
ATOM      5  C   UNL     1       2.243   4.862  20.646  0.00  0.00    +0.000 A 
ATOM      6  C   UNL     1       2.087   3.718  21.457  0.00  0.00    +0.000 A 
ATOM      7  C   UNL     1       2.891   2.594  21.239  0.00  0.00    +0.000 A 
ATOM      8  C   UNL     1       3.831   2.590  20.213  0.00  0.00    +0.000 A 
ATOM      9  C   UNL     1       4.001   3.711  19.392  0.00  0.00    +0.000 A 
ATOM     10  C   UNL     1       3.207   4.846  19.641  0.00  0.00    +0.000 A 
ATOM     11  S   UNL     1       3.212   6.377  18.859  0.00  0.00    +0.000 S 
ENDBRANCH   2   3
BRANCH   1  15
ATOM     12  C   UNL     1       0.014  13.052  18.544  0.00  0.00    +0.000 A 
ATOM     13  C   UNL     1       1.373  12.738  18.620  0.00  0.00    +0.000 A 
ATOM     14  C   UNL     1       1.799  11.408  18.678  0.00  0.00    +0.000 A 
ATOM     15  C   UNL     1       0.859  10.374  18.676  0.00  0.00    +0.000 A 
ATOM     16  C   UNL     1      -0.501  10.684  18.586  0.00  0.00    +0.000 A 
ATOM     17  C   UNL     1      -0.922  12.018  18.517  0.00  0.00    +0.000 A 
BRANCH  12  19
ATOM     18  C   UNL     1       0.514  15.217  19.383  0.00  0.00    +0.000 C 
ATOM     19  O   UNL     1      -0.264  14.390  18.526  0.00  0.00    +0.000 OA
ENDBRANCH  12  19
ENDBRANCH   1  15
BRANCH   2  20
ATOM     20  C   UNL     1       1.393   9.052  21.306  0.00  0.00    +0.000 C 
BRANCH  20  21
ATOM     21  C   UNL     1      -0.059   9.085  21.729  0.00  0.00    +0.000 C 
ATOM     22  O   UNL     1      -0.794   8.108  21.744  0.00  0.00    +0.000 OA
BRANCH  21  23
ATOM     23  O   UNL     1      -0.478  10.309  22.132  0.00  0.00    +0.000 OA
ATOM     24  H   UNL     1      -0.883  10.307  23.027  0.00  0.00    +0.000 HD
ENDBRANCH  21  23
ENDBRANCH  20  21
ENDBRANCH   2  20
TORSDOF 6
ENDMDL
MODEL 9
REMARK VINA RESULT:      -6.5      2.432      7.833
REMARK  Name = 
REMARK  7 active torsions:
REMARK  status: ('A' for Active; 'I' for Inactive)
REMARK    1  A    between atoms: C_1  and  O_2
REMARK    2  A    between atoms: O_2  and  C_3
REMARK    3  A    between atoms: C_6  and  C_7
REMARK    4  A    between atoms: C_8  and  C_9
REMARK    5  A    between atoms: C_8  and  C_13
REMARK    6  A    between atoms: C_9  and  C_10
REMARK    7  A    between atoms: C_10  and  O_12
REMARK                            x       y       z     vdW  Elec       q    Type
REMARK                         _______ _______ _______ _____ _____    ______ ____
ROOT
ATOM      1  C   UNL     1       2.120   7.895  20.019  0.00  0.00    +0.000 C 
ATOM      2  C   UNL     1       2.072   6.551  19.854  0.00  0.00    +0.000 C 
ENDROOT
BRANCH   2   3
ATOM      3  C   UNL     1       3.087   5.888  19.061  0.00  0.00    +0.000 A 
ATOM      4  N   UNL     1       4.365   5.895  19.399  0.00  0.00    +0.000 NA
ATOM      5  C   UNL     1       5.141   5.310  18.411  0.00  0.00    +0.000 A 
ATOM      6  C   UNL     1       6.551   5.283  18.377  0.00  0.00    +0.000 A 
ATOM      7  C   UNL     1       7.209   4.657  17.313  0.00  0.00    +0.000 A 
ATOM      8  C   UNL     1       6.482   4.044  16.298  0.00  0.00    +0.000 A 
ATOM      9  C   UNL     1       5.083   4.054  16.312  0.00  0.00    +0.000 A 
ATOM     10  C   UNL     1       4.432   4.712  17.372  0.00  0.00    +0.000 A 
ATOM     11  S   UNL     1       2.751   4.946  17.647  0.00  0.00    +0.000 S 
ENDBRANCH   2   3
BRANCH   1  15
ATOM     12  C   UNL     1      -0.531  10.229  22.436  0.00  0.00    +0.000 A 
ATOM     13  C   UNL     1      -0.636  10.251  21.042  0.00  0.00    +0.000 A 
ATOM     14  C   UNL     1       0.211   9.473  20.249  0.00  0.00    +0.000 A 
ATOM     15  C   UNL     1       1.188   8.672  20.847  0.00  0.00    +0.000 A 
ATOM     16  C   UNL     1       1.286   8.638  22.241  0.00  0.00    +0.000 A 
ATOM     17  C   UNL     1       0.428   9.411  23.032  0.00  0.00    +0.000 A 
BRANCH  12  19
ATOM     18  C   UNL     1      -1.424  12.419  22.663  0.00  0.00    +0.000 C 
ATOM     19  O   UNL     1      -1.398  11.061  23.087  0.00  0.00    +0.000 OA
ENDBRANCH  12  19
ENDBRANCH   1  15
BRANCH   2  20
ATOM     20  C   UNL     1       1.040   5.697  20.581  0.00  0.00    +0.000 C 
BRANCH  20  21
ATOM     21  C   UNL     1       1.638   4.349  20.919  0.00  0.00    +0.000 C 
ATOM     22  O   UNL     1       2.545   4.180  21.721  0.00  0.00    +0.000 OA
BRANCH  21  23
ATOM     23  O   UNL     1       1.049   3.316  20.268  0.00  0.00    +0.000 OA
ATOM     24  H   UNL     1       0.152   3.529  19.932  0.00  0.00    +0.000 HD
ENDBRANCH  21  23
ENDBRANCH  20  21
ENDBRANCH   2  20
TORSDOF 6
ENDMDL
