MODEL 1
REMARK VINA RESULT:      -9.4      0.000      0.000
REMARK  Name = 
REMARK  10 active torsions:
REMARK  status: ('A' for Active; 'I' for Inactive)
REMARK    1  A    between atoms: C_1  and  C_2
REMARK    2  A    between atoms: C_2  and  N_3
REMARK    3  A    between atoms: C_5  and  C_6
REMARK    4  A    between atoms: C_8  and  C_9
REMARK    5  A    between atoms: N_11  and  C_12
REMARK    6  A    between atoms: C_16  and  O_17
REMARK    7  A    between atoms: O_17  and  C_18
REMARK    8  A    between atoms: C_22  and  C_23
REMARK    9  A    between atoms: C_24  and  C_25
REMARK   10  A    between atoms: C_28  and  C_29
REMARK                            x       y       z     vdW  Elec       q    Type
REMARK                         _______ _______ _______ _____ _____    ______ ____
ROOT
ATOM      1  O   UNL     1       2.044   5.312  21.207  0.00  0.00    +0.000 OA
ENDROOT
BRANCH   1   2
ATOM      2  C   UNL     1       2.094   6.637  20.782  0.00  0.00    +0.000 A 
ATOM      3  C   UNL     1       1.152   7.481  21.374  0.00  0.00    +0.000 A 
ATOM      4  C   UNL     1       0.997   8.794  20.923  0.00  0.00    +0.000 A 
ATOM      5  C   UNL     1       1.221   8.889  19.537  0.00  0.00    +0.000 A 
ATOM      6  C   UNL     1       0.492   9.403  18.429  0.00  0.00    +0.000 A 
ATOM      7  N   UNL     1       1.156   9.192  17.278  0.00  0.00    +0.000 NA
ATOM      8  N   UNL     1       2.208   8.450  17.631  0.00  0.00    +0.000 N 
ATOM      9  C   UNL     1       2.180   8.058  18.952  0.00  0.00    +0.000 A 
ATOM     10  C   UNL     1       2.786   7.000  19.635  0.00  0.00    +0.000 A 
ATOM     11  H   UNL     1       2.819   8.096  16.906  0.00  0.00    +0.000 HD
BRANCH   6  12
ATOM     12  C   UNL     1      -0.809  10.010  18.514  0.00  0.00    +0.000 C 
ATOM     13  C   UNL     1      -1.641  10.062  17.462  0.00  0.00    +0.000 C 
BRANCH  13  14
ATOM     14  C   UNL     1      -2.874  10.750  17.345  0.00  0.00    +0.000 A 
ATOM     15  C   UNL     1      -3.379  11.175  16.141  0.00  0.00    +0.000 A 
ATOM     16  N   UNL     1      -4.473  11.915  16.462  0.00  0.00    +0.000 N 
ATOM     17  C   UNL     1      -4.621  11.884  17.826  0.00  0.00    +0.000 A 
ATOM     18  C   UNL     1      -5.723  12.625  18.492  0.00  0.00    +0.000 C 
ATOM     19  N   UNL     1      -3.654  11.177  18.389  0.00  0.00    +0.000 NA
ATOM     20  H   UNL     1      -5.049  12.435  15.817  0.00  0.00    +0.000 HD
ENDBRANCH  13  14
ENDBRANCH   6  12
ENDBRANCH   1   2
BRANCH   1  25
ATOM     21  C   UNL     1       2.985   3.144  18.386  0.00  0.00    +0.000 A 
ATOM     22  C   UNL     1       1.814   2.391  18.240  0.00  0.00    +0.000 A 
ATOM     23  C   UNL     1       0.708   2.592  19.093  0.00  0.00    +0.000 A 
ATOM     24  C   UNL     1       0.753   3.526  20.134  0.00  0.00    +0.000 A 
ATOM     25  C   UNL     1       1.908   4.284  20.298  0.00  0.00    +0.000 A 
ATOM     26  C   UNL     1       2.998   4.110  19.413  0.00  0.00    +0.000 A 
BRANCH  21  29
ATOM     27  C   UNL     1       4.339   4.148  16.646  0.00  0.00    +0.000 C 
ATOM     28  O   UNL     1       3.572   5.109  16.793  0.00  0.00    +0.000 OA
ATOM     29  N   UNL     1       4.094   3.025  17.442  0.00  0.00    +0.000 N 
ATOM     30  H   UNL     1       4.117   2.176  16.897  0.00  0.00    +0.000 HD
BRANCH  27  36
ATOM     31  N   UNL     1       6.572   5.508  16.054  0.00  0.00    +0.000 N 
ATOM     32  N   UNL     1       7.625   5.388  15.184  0.00  0.00    +0.000 NA
ATOM     33  C   UNL     1       7.289   5.007  13.954  0.00  0.00    +0.000 A 
ATOM     34  C   UNL     1       6.290   3.961  13.468  0.00  0.00    +0.000 C 
ATOM     35  C   UNL     1       8.205   5.275  12.875  0.00  0.00    +0.000 A 
ATOM     36  C   UNL     1       5.548   4.495  16.005  0.00  0.00    +0.000 A 
BRANCH  31  38
ATOM     37  C   UNL     1       7.335   5.911  18.439  0.00  0.00    +0.000 C 
ATOM     38  C   UNL     1       6.718   6.474  17.139  0.00  0.00    +0.000 C 
ENDBRANCH  31  38
ENDBRANCH  27  36
ENDBRANCH  21  29
ENDBRANCH   1  25
TORSDOF 7
ENDMDL
MODEL 2
REMARK VINA RESULT:      -9.2      3.481      4.434
REMARK  Name = 
REMARK  10 active torsions:
REMARK  status: ('A' for Active; 'I' for Inactive)
REMARK    1  A    between atoms: C_1  and  C_2
REMARK    2  A    between atoms: C_2  and  N_3
REMARK    3  A    between atoms: C_5  and  C_6
REMARK    4  A    between atoms: C_8  and  C_9
REMARK    5  A    between atoms: N_11  and  C_12
REMARK    6  A    between atoms: C_16  and  O_17
REMARK    7  A    between atoms: O_17  and  C_18
REMARK    8  A    between atoms: C_22  and  C_23
REMARK    9  A    between atoms: C_24  and  C_25
REMARK   10  A    between atoms: C_28  and  C_29
REMARK                            x       y       z     vdW  Elec       q    Type
REMARK                         _______ _______ _______ _____ _____    ______ ____
ROOT
ATOM      1  O   UNL     1       2.160   6.524  21.120  0.00  0.00    +0.000 OA
ENDROOT
BRANCH   1   2
ATOM      2  C   UNL     1       1.407   7.557  20.567  0.00  0.00    +0.000 A 
ATOM      3  C   UNL     1       1.922   8.093  19.384  0.00  0.00    +0.000 A 
ATOM      4  C   UNL     1       1.347   9.231  18.816  0.00  0.00    +0.000 A 
ATOM      5  C   UNL     1       0.857  10.106  19.803  0.00  0.00    +0.000 A 
ATOM      6  C   UNL     1       1.037  11.483  20.113  0.00  0.00    +0.000 A 
ATOM      7  N   UNL     1       0.359  11.818  21.225  0.00  0.00    +0.000 NA
ATOM      8  N   UNL     1      -0.128  10.661  21.680  0.00  0.00    +0.000 N 
ATOM      9  C   UNL     1       0.323   9.566  20.976  0.00  0.00    +0.000 A 
ATOM     10  C   UNL     1       0.432   8.212  21.305  0.00  0.00    +0.000 A 
ATOM     11  H   UNL     1      -0.615  10.654  22.567  0.00  0.00    +0.000 HD
BRANCH   6  12
ATOM     12  C   UNL     1       1.882  12.385  19.377  0.00  0.00    +0.000 C 
ATOM     13  C   UNL     1       2.443  13.462  19.948  0.00  0.00    +0.000 C 
BRANCH  13  14
ATOM     14  C   UNL     1       3.164  14.514  19.331  0.00  0.00    +0.000 A 
ATOM     15  C   UNL     1       3.022  14.835  18.004  0.00  0.00    +0.000 A 
ATOM     16  N   UNL     1       3.979  15.772  17.766  0.00  0.00    +0.000 N 
ATOM     17  C   UNL     1       4.635  16.016  18.947  0.00  0.00    +0.000 A 
ATOM     18  C   UNL     1       5.762  16.982  19.008  0.00  0.00    +0.000 C 
ATOM     19  N   UNL     1       4.155  15.258  19.919  0.00  0.00    +0.000 NA
ATOM     20  H   UNL     1       4.201  16.181  16.871  0.00  0.00    +0.000 HD
ENDBRANCH  13  14
ENDBRANCH   6  12
ENDBRANCH   1   2
BRANCH   1  25
ATOM     21  C   UNL     1       3.382   3.706  19.094  0.00  0.00    +0.000 A 
ATOM     22  C   UNL     1       2.286   2.839  19.172  0.00  0.00    +0.000 A 
ATOM     23  C   UNL     1       1.137   3.184  19.917  0.00  0.00    +0.000 A 
ATOM     24  C   UNL     1       1.066   4.388  20.626  0.00  0.00    +0.000 A 
ATOM     25  C   UNL     1       2.145   5.263  20.563  0.00  0.00    +0.000 A 
ATOM     26  C   UNL     1       3.277   4.933  19.780  0.00  0.00    +0.000 A 
BRANCH  21  29
ATOM     27  C   UNL     1       4.559   4.076  17.009  0.00  0.00    +0.000 C 
ATOM     28  O   UNL     1       3.595   4.811  16.754  0.00  0.00    +0.000 OA
ATOM     29  N   UNL     1       4.530   3.411  18.238  0.00  0.00    +0.000 N 
ATOM     30  H   UNL     1       4.760   2.434  18.134  0.00  0.00    +0.000 HD
BRANCH  27  36
ATOM     31  N   UNL     1       6.856   5.190  16.191  0.00  0.00    +0.000 N 
ATOM     32  N   UNL     1       7.724   5.054  15.138  0.00  0.00    +0.000 NA
ATOM     33  C   UNL     1       7.140   4.903  13.952  0.00  0.00    +0.000 A 
ATOM     34  C   UNL     1       5.922   4.085  13.532  0.00  0.00    +0.000 C 
ATOM     35  C   UNL     1       7.902   5.197  12.766  0.00  0.00    +0.000 A 
ATOM     36  C   UNL     1       5.690   4.344  16.207  0.00  0.00    +0.000 A 
BRANCH  31  38
ATOM     37  C   UNL     1       7.156   7.492  17.212  0.00  0.00    +0.000 C 
ATOM     38  C   UNL     1       7.325   5.961  17.339  0.00  0.00    +0.000 C 
ENDBRANCH  31  38
ENDBRANCH  27  36
ENDBRANCH  21  29
ENDBRANCH   1  25
TORSDOF 7
ENDMDL
MODEL 3
REMARK VINA RESULT:      -9.0      2.697      3.146
REMARK  Name = 
REMARK  10 active torsions:
REMARK  status: ('A' for Active; 'I' for Inactive)
REMARK    1  A    between atoms: C_1  and  C_2
REMARK    2  A    between atoms: C_2  and  N_3
REMARK    3  A    between atoms: C_5  and  C_6
REMARK    4  A    between atoms: C_8  and  C_9
REMARK    5  A    between atoms: N_11  and  C_12
REMARK    6  A    between atoms: C_16  and  O_17
REMARK    7  A    between atoms: O_17  and  C_18
REMARK    8  A    between atoms: C_22  and  C_23
REMARK    9  A    between atoms: C_24  and  C_25
REMARK   10  A    between atoms: C_28  and  C_29
REMARK                            x       y       z     vdW  Elec       q    Type
REMARK                         _______ _______ _______ _____ _____    ______ ____
ROOT
ATOM      1  O   UNL     1       1.120   5.562  20.395  0.00  0.00    +0.000 OA
ENDROOT
BRANCH   1   2
ATOM      2  C   UNL     1       1.497   6.899  20.503  0.00  0.00    +0.000 A 
ATOM      3  C   UNL     1       0.952   7.577  21.595  0.00  0.00    +0.000 A 
ATOM      4  C   UNL     1       1.127   8.956  21.729  0.00  0.00    +0.000 A 
ATOM      5  C   UNL     1       1.151   9.594  20.475  0.00  0.00    +0.000 A 
ATOM      6  C   UNL     1       0.446  10.675  19.877  0.00  0.00    +0.000 A 
ATOM      7  N   UNL     1       0.829  10.851  18.600  0.00  0.00    +0.000 NA
ATOM      8  N   UNL     1       1.655   9.831  18.356  0.00  0.00    +0.000 N 
ATOM      9  C   UNL     1       1.716   8.920  19.389  0.00  0.00    +0.000 A 
ATOM     10  C   UNL     1       2.078   7.571  19.437  0.00  0.00    +0.000 A 
ATOM     11  H   UNL     1       2.013   9.708  17.417  0.00  0.00    +0.000 HD
BRANCH   6  12
ATOM     12  C   UNL     1      -0.586  11.438  20.525  0.00  0.00    +0.000 C 
ATOM     13  C   UNL     1      -0.475  11.851  21.798  0.00  0.00    +0.000 C 
BRANCH  13  14
ATOM     14  C   UNL     1      -1.454  12.469  22.614  0.00  0.00    +0.000 A 
ATOM     15  C   UNL     1      -1.262  13.690  23.212  0.00  0.00    +0.000 A 
ATOM     16  N   UNL     1      -2.342  13.858  24.020  0.00  0.00    +0.000 N 
ATOM     17  C   UNL     1      -3.164  12.770  23.860  0.00  0.00    +0.000 A 
ATOM     18  C   UNL     1      -4.426  12.646  24.634  0.00  0.00    +0.000 C 
ATOM     19  N   UNL     1      -2.642  11.906  23.006  0.00  0.00    +0.000 NA
ATOM     20  H   UNL     1      -2.492  14.623  24.661  0.00  0.00    +0.000 HD
ENDBRANCH  13  14
ENDBRANCH   6  12
ENDBRANCH   1   2
BRANCH   1  25
ATOM     21  C   UNL     1       4.247   3.701  19.846  0.00  0.00    +0.000 A 
ATOM     22  C   UNL     1       3.998   2.552  20.606  0.00  0.00    +0.000 A 
ATOM     23  C   UNL     1       2.791   2.399  21.321  0.00  0.00    +0.000 A 
ATOM     24  C   UNL     1       1.815   3.401  21.320  0.00  0.00    +0.000 A 
ATOM     25  C   UNL     1       2.042   4.552  20.572  0.00  0.00    +0.000 A 
ATOM     26  C   UNL     1       3.235   4.682  19.822  0.00  0.00    +0.000 A 
BRANCH  21  29
ATOM     27  C   UNL     1       5.224   3.826  17.633  0.00  0.00    +0.000 C 
ATOM     28  O   UNL     1       4.052   3.685  17.256  0.00  0.00    +0.000 OA
ATOM     29  N   UNL     1       5.442   3.823  19.013  0.00  0.00    +0.000 N 
ATOM     30  H   UNL     1       6.214   3.223  19.263  0.00  0.00    +0.000 HD
BRANCH  27  36
ATOM     31  N   UNL     1       6.716   5.598  16.282  0.00  0.00    +0.000 N 
ATOM     32  N   UNL     1       7.500   5.605  15.156  0.00  0.00    +0.000 NA
ATOM     33  C   UNL     1       6.995   4.937  14.122  0.00  0.00    +0.000 A 
ATOM     34  C   UNL     1       6.268   3.597  14.055  0.00  0.00    +0.000 C 
ATOM     35  C   UNL     1       7.482   5.240  12.802  0.00  0.00    +0.000 A 
ATOM     36  C   UNL     1       6.068   4.359  16.634  0.00  0.00    +0.000 A 
BRANCH  31  38
ATOM     37  C   UNL     1       7.817   6.559  18.354  0.00  0.00    +0.000 C 
ATOM     38  C   UNL     1       6.833   6.745  17.177  0.00  0.00    +0.000 C 
ENDBRANCH  31  38
ENDBRANCH  27  36
ENDBRANCH  21  29
ENDBRANCH   1  25
TORSDOF 7
ENDMDL
MODEL 4
REMARK VINA RESULT:      -9.0      3.248      8.639
REMARK  Name = 
REMARK  10 active torsions:
REMARK  status: ('A' for Active; 'I' for Inactive)
REMARK    1  A    between atoms: C_1  and  C_2
REMARK    2  A    between atoms: C_2  and  N_3
REMARK    3  A    between atoms: C_5  and  C_6
REMARK    4  A    between atoms: C_8  and  C_9
REMARK    5  A    between atoms: N_11  and  C_12
REMARK    6  A    between atoms: C_16  and  O_17
REMARK    7  A    between atoms: O_17  and  C_18
REMARK    8  A    between atoms: C_22  and  C_23
REMARK    9  A    between atoms: C_24  and  C_25
REMARK   10  A    between atoms: C_28  and  C_29
REMARK                            x       y       z     vdW  Elec       q    Type
REMARK                         _______ _______ _______ _____ _____    ______ ____
ROOT
ATOM      1  O   UNL     1       3.497   3.470  17.591  0.00  0.00    +0.000 OA
ENDROOT
BRANCH   1   2
ATOM      2  C   UNL     1       4.855   3.777  17.626  0.00  0.00    +0.000 A 
ATOM      3  C   UNL     1       5.294   4.366  18.814  0.00  0.00    +0.000 A 
ATOM      4  C   UNL     1       6.596   4.861  18.917  0.00  0.00    +0.000 A 
ATOM      5  C   UNL     1       7.044   5.386  17.691  0.00  0.00    +0.000 A 
ATOM      6  C   UNL     1       7.596   6.625  17.262  0.00  0.00    +0.000 A 
ATOM      7  N   UNL     1       7.808   6.623  15.934  0.00  0.00    +0.000 NA
ATOM      8  N   UNL     1       7.286   5.468  15.514  0.00  0.00    +0.000 N 
ATOM      9  C   UNL     1       6.619   4.780  16.505  0.00  0.00    +0.000 A 
ATOM     10  C   UNL     1       5.616   3.807  16.467  0.00  0.00    +0.000 A 
ATOM     11  H   UNL     1       7.257   5.280  14.520  0.00  0.00    +0.000 HD
BRANCH   6  12
ATOM     12  C   UNL     1       7.835   7.755  18.119  0.00  0.00    +0.000 C 
ATOM     13  C   UNL     1       8.239   8.941  17.638  0.00  0.00    +0.000 C 
BRANCH  13  14
ATOM     14  C   UNL     1       8.658  10.088  18.356  0.00  0.00    +0.000 A 
ATOM     15  C   UNL     1       8.518  11.364  17.869  0.00  0.00    +0.000 A 
ATOM     16  N   UNL     1       9.171  12.154  18.762  0.00  0.00    +0.000 N 
ATOM     17  C   UNL     1       9.646  11.351  19.770  0.00  0.00    +0.000 A 
ATOM     18  C   UNL     1      10.432  11.921  20.894  0.00  0.00    +0.000 C 
ATOM     19  N   UNL     1       9.345  10.082  19.543  0.00  0.00    +0.000 NA
ATOM     20  H   UNL     1       9.323  13.147  18.677  0.00  0.00    +0.000 HD
ENDBRANCH  13  14
ENDBRANCH   6  12
ENDBRANCH   1   2
BRANCH   1  25
ATOM     21  C   UNL     1       2.057   5.906  19.944  0.00  0.00    +0.000 A 
ATOM     22  C   UNL     1       1.162   5.088  20.644  0.00  0.00    +0.000 A 
ATOM     23  C   UNL     1       1.022   3.721  20.323  0.00  0.00    +0.000 A 
ATOM     24  C   UNL     1       1.747   3.142  19.276  0.00  0.00    +0.000 A 
ATOM     25  C   UNL     1       2.641   3.937  18.567  0.00  0.00    +0.000 A 
ATOM     26  C   UNL     1       2.812   5.297  18.920  0.00  0.00    +0.000 A 
BRANCH  21  29
ATOM     27  C   UNL     1       1.856   8.266  19.434  0.00  0.00    +0.000 C 
ATOM     28  O   UNL     1       1.352   7.856  18.380  0.00  0.00    +0.000 OA
ATOM     29  N   UNL     1       2.294   7.293  20.338  0.00  0.00    +0.000 N 
ATOM     30  H   UNL     1       3.220   7.500  20.681  0.00  0.00    +0.000 HD
BRANCH  27  36
ATOM     31  N   UNL     1       0.538  10.395  20.392  0.00  0.00    +0.000 N 
ATOM     32  N   UNL     1       0.695  11.757  20.402  0.00  0.00    +0.000 NA
ATOM     33  C   UNL     1       1.110  12.278  19.250  0.00  0.00    +0.000 A 
ATOM     34  C   UNL     1       2.159  11.795  18.253  0.00  0.00    +0.000 C 
ATOM     35  C   UNL     1       0.884  13.680  19.007  0.00  0.00    +0.000 A 
ATOM     36  C   UNL     1       1.541   9.614  19.713  0.00  0.00    +0.000 A 
BRANCH  31  38
ATOM     37  C   UNL     1      -0.419  10.399  22.740  0.00  0.00    +0.000 C 
ATOM     38  C   UNL     1      -0.459   9.837  21.301  0.00  0.00    +0.000 C 
ENDBRANCH  31  38
ENDBRANCH  27  36
ENDBRANCH  21  29
ENDBRANCH   1  25
TORSDOF 7
ENDMDL
MODEL 5
REMARK VINA RESULT:      -8.9      1.593      1.857
REMARK  Name = 
REMARK  10 active torsions:
REMARK  status: ('A' for Active; 'I' for Inactive)
REMARK    1  A    between atoms: C_1  and  C_2
REMARK    2  A    between atoms: C_2  and  N_3
REMARK    3  A    between atoms: C_5  and  C_6
REMARK    4  A    between atoms: C_8  and  C_9
REMARK    5  A    between atoms: N_11  and  C_12
REMARK    6  A    between atoms: C_16  and  O_17
REMARK    7  A    between atoms: O_17  and  C_18
REMARK    8  A    between atoms: C_22  and  C_23
REMARK    9  A    between atoms: C_24  and  C_25
REMARK   10  A    between atoms: C_28  and  C_29
REMARK                            x       y       z     vdW  Elec       q    Type
REMARK                         _______ _______ _______ _____ _____    ______ ____
ROOT
ATOM      1  O   UNL     1       1.848   5.968  21.408  0.00  0.00    +0.000 OA
ENDROOT
BRANCH   1   2
ATOM      2  C   UNL     1       1.886   7.250  20.865  0.00  0.00    +0.000 A 
ATOM      3  C   UNL     1       1.205   8.222  21.602  0.00  0.00    +0.000 A 
ATOM      4  C   UNL     1       1.039   9.510  21.089  0.00  0.00    +0.000 A 
ATOM      5  C   UNL     1       0.890   9.488  19.690  0.00  0.00    +0.000 A 
ATOM      6  C   UNL     1      -0.066   9.996  18.767  0.00  0.00    +0.000 A 
ATOM      7  N   UNL     1       0.246   9.642  17.507  0.00  0.00    +0.000 NA
ATOM      8  N   UNL     1       1.294   8.826  17.641  0.00  0.00    +0.000 N 
ATOM      9  C   UNL     1       1.589   8.528  18.953  0.00  0.00    +0.000 A 
ATOM     10  C   UNL     1       2.271   7.464  19.549  0.00  0.00    +0.000 A 
ATOM     11  H   UNL     1       1.658   8.364  16.817  0.00  0.00    +0.000 HD
BRANCH   6  12
ATOM     12  C   UNL     1      -1.246  10.734  19.132  0.00  0.00    +0.000 C 
ATOM     13  C   UNL     1      -1.185  11.995  19.588  0.00  0.00    +0.000 C 
BRANCH  13  14
ATOM     14  C   UNL     1      -2.227  12.790  20.126  0.00  0.00    +0.000 A 
ATOM     15  C   UNL     1      -1.993  13.903  20.895  0.00  0.00    +0.000 A 
ATOM     16  N   UNL     1      -3.219  14.286  21.339  0.00  0.00    +0.000 N 
ATOM     17  C   UNL     1      -4.150  13.431  20.802  0.00  0.00    +0.000 A 
ATOM     18  C   UNL     1      -5.593  13.576  21.123  0.00  0.00    +0.000 C 
ATOM     19  N   UNL     1      -3.567  12.507  20.056  0.00  0.00    +0.000 NA
ATOM     20  H   UNL     1      -3.409  15.035  21.987  0.00  0.00    +0.000 HD
ENDBRANCH  13  14
ENDBRANCH   6  12
ENDBRANCH   1   2
BRANCH   1  25
ATOM     21  C   UNL     1       3.353   3.612  19.015  0.00  0.00    +0.000 A 
ATOM     22  C   UNL     1       2.258   2.781  18.751  0.00  0.00    +0.000 A 
ATOM     23  C   UNL     1       1.014   2.992  19.383  0.00  0.00    +0.000 A 
ATOM     24  C   UNL     1       0.840   4.018  20.318  0.00  0.00    +0.000 A 
ATOM     25  C   UNL     1       1.915   4.855  20.597  0.00  0.00    +0.000 A 
ATOM     26  C   UNL     1       3.148   4.668  19.927  0.00  0.00    +0.000 A 
BRANCH  21  29
ATOM     27  C   UNL     1       4.605   3.937  16.967  0.00  0.00    +0.000 C 
ATOM     28  O   UNL     1       3.529   4.378  16.540  0.00  0.00    +0.000 OA
ATOM     29  N   UNL     1       4.612   3.474  18.285  0.00  0.00    +0.000 N 
ATOM     30  H   UNL     1       5.065   2.575  18.358  0.00  0.00    +0.000 HD
BRANCH  27  36
ATOM     31  N   UNL     1       6.684   5.410  16.131  0.00  0.00    +0.000 N 
ATOM     32  N   UNL     1       7.640   5.339  15.150  0.00  0.00    +0.000 NA
ATOM     33  C   UNL     1       7.193   4.931  13.966  0.00  0.00    +0.000 A 
ATOM     34  C   UNL     1       6.204   3.831  13.594  0.00  0.00    +0.000 C 
ATOM     35  C   UNL     1       7.970   5.240  12.793  0.00  0.00    +0.000 A 
ATOM     36  C   UNL     1       5.717   4.344  16.196  0.00  0.00    +0.000 A 
BRANCH  31  38
ATOM     37  C   UNL     1       7.783   5.909  18.361  0.00  0.00    +0.000 C 
ATOM     38  C   UNL     1       6.895   6.391  17.192  0.00  0.00    +0.000 C 
ENDBRANCH  31  38
ENDBRANCH  27  36
ENDBRANCH  21  29
ENDBRANCH   1  25
TORSDOF 7
ENDMDL
MODEL 6
REMARK VINA RESULT:      -8.8      1.683      1.829
REMARK  Name = 
REMARK  10 active torsions:
REMARK  status: ('A' for Active; 'I' for Inactive)
REMARK    1  A    between atoms: C_1  and  C_2
REMARK    2  A    between atoms: C_2  and  N_3
REMARK    3  A    between atoms: C_5  and  C_6
REMARK    4  A    between atoms: C_8  and  C_9
REMARK    5  A    between atoms: N_11  and  C_12
REMARK    6  A    between atoms: C_16  and  O_17
REMARK    7  A    between atoms: O_17  and  C_18
REMARK    8  A    between atoms: C_22  and  C_23
REMARK    9  A    between atoms: C_24  and  C_25
REMARK   10  A    between atoms: C_28  and  C_29
REMARK                            x       y       z     vdW  Elec       q    Type
REMARK                         _______ _______ _______ _____ _____    ______ ____
ROOT
ATOM      1  O   UNL     1       1.787   4.978  21.124  0.00  0.00    +0.000 OA
ENDROOT
BRANCH   1   2
ATOM      2  C   UNL     1       2.096   6.275  20.720  0.00  0.00    +0.000 A 
ATOM      3  C   UNL     1       1.406   7.282  21.399  0.00  0.00    +0.000 A 
ATOM      4  C   UNL     1       1.511   8.612  20.985  0.00  0.00    +0.000 A 
ATOM      5  C   UNL     1       1.649   8.704  19.588  0.00  0.00    +0.000 A 
ATOM      6  C   UNL     1       0.973   9.402  18.549  0.00  0.00    +0.000 A 
ATOM      7  N   UNL     1       1.489   9.091  17.346  0.00  0.00    +0.000 NA
ATOM      8  N   UNL     1       2.377   8.128  17.603  0.00  0.00    +0.000 N 
ATOM      9  C   UNL     1       2.358   7.705  18.915  0.00  0.00    +0.000 A 
ATOM     10  C   UNL     1       2.765   6.518  19.530  0.00  0.00    +0.000 A 
ATOM     11  H   UNL     1       2.841   7.675  16.826  0.00  0.00    +0.000 HD
BRANCH   6  12
ATOM     12  C   UNL     1      -0.154  10.273  18.746  0.00  0.00    +0.000 C 
ATOM     13  C   UNL     1      -0.155  11.239  19.679  0.00  0.00    +0.000 C 
BRANCH  13  14
ATOM     14  C   UNL     1      -1.228  12.065  20.093  0.00  0.00    +0.000 A 
ATOM     15  C   UNL     1      -1.667  13.138  19.359  0.00  0.00    +0.000 A 
ATOM     16  N   UNL     1      -2.584  13.754  20.152  0.00  0.00    +0.000 N 
ATOM     17  C   UNL     1      -2.699  13.025  21.310  0.00  0.00    +0.000 A 
ATOM     18  C   UNL     1      -3.613  13.459  22.397  0.00  0.00    +0.000 C 
ATOM     19  N   UNL     1      -1.879  11.987  21.297  0.00  0.00    +0.000 NA
ATOM     20  H   UNL     1      -3.059  14.620  19.949  0.00  0.00    +0.000 HD
ENDBRANCH  13  14
ENDBRANCH   6  12
ENDBRANCH   1   2
BRANCH   1  25
ATOM     21  C   UNL     1       3.167   2.813  18.487  0.00  0.00    +0.000 A 
ATOM     22  C   UNL     1       2.054   2.014  18.203  0.00  0.00    +0.000 A 
ATOM     23  C   UNL     1       0.839   2.182  18.903  0.00  0.00    +0.000 A 
ATOM     24  C   UNL     1       0.714   3.130  19.924  0.00  0.00    +0.000 A 
ATOM     25  C   UNL     1       1.809   3.934  20.223  0.00  0.00    +0.000 A 
ATOM     26  C   UNL     1       3.011   3.792  19.489  0.00  0.00    +0.000 A 
BRANCH  21  29
ATOM     27  C   UNL     1       4.493   3.622  16.628  0.00  0.00    +0.000 C 
ATOM     28  O   UNL     1       3.522   4.366  16.436  0.00  0.00    +0.000 OA
ATOM     29  N   UNL     1       4.393   2.726  17.696  0.00  0.00    +0.000 N 
ATOM     30  H   UNL     1       4.674   1.796  17.425  0.00  0.00    +0.000 HD
BRANCH  27  36
ATOM     31  N   UNL     1       6.729   5.036  16.192  0.00  0.00    +0.000 N 
ATOM     32  N   UNL     1       7.725   5.083  15.251  0.00  0.00    +0.000 NA
ATOM     33  C   UNL     1       7.307   4.974  13.993  0.00  0.00    +0.000 A 
ATOM     34  C   UNL     1       6.250   4.072  13.364  0.00  0.00    +0.000 C 
ATOM     35  C   UNL     1       8.166   5.446  12.938  0.00  0.00    +0.000 A 
ATOM     36  C   UNL     1       5.673   4.075  15.998  0.00  0.00    +0.000 A 
BRANCH  31  38
ATOM     37  C   UNL     1       7.205   7.270  17.294  0.00  0.00    +0.000 C 
ATOM     38  C   UNL     1       6.966   5.751  17.443  0.00  0.00    +0.000 C 
ENDBRANCH  31  38
ENDBRANCH  27  36
ENDBRANCH  21  29
ENDBRANCH   1  25
TORSDOF 7
ENDMDL
MODEL 7
REMARK VINA RESULT:      -8.7      4.025      9.170
REMARK  Name = 
REMARK  10 active torsions:
REMARK  status: ('A' for Active; 'I' for Inactive)
REMARK    1  A    between atoms: C_1  and  C_2
REMARK    2  A    between atoms: C_2  and  N_3
REMARK    3  A    between atoms: C_5  and  C_6
REMARK    4  A    between atoms: C_8  and  C_9
REMARK    5  A    between atoms: N_11  and  C_12
REMARK    6  A    between atoms: C_16  and  O_17
REMARK    7  A    between atoms: O_17  and  C_18
REMARK    8  A    between atoms: C_22  and  C_23
REMARK    9  A    between atoms: C_24  and  C_25
REMARK   10  A    between atoms: C_28  and  C_29
REMARK                            x       y       z     vdW  Elec       q    Type
REMARK                         _______ _______ _______ _____ _____    ______ ____
ROOT
ATOM      1  O   UNL     1       5.425   3.949  19.503  0.00  0.00    +0.000 OA
ENDROOT
BRANCH   1   2
ATOM      2  C   UNL     1       6.411   4.655  18.818  0.00  0.00    +0.000 A 
ATOM      3  C   UNL     1       7.485   5.077  19.604  0.00  0.00    +0.000 A 
ATOM      4  C   UNL     1       8.460   5.923  19.071  0.00  0.00    +0.000 A 
ATOM      5  C   UNL     1       7.907   6.818  18.138  0.00  0.00    +0.000 A 
ATOM      6  C   UNL     1       7.909   8.231  17.967  0.00  0.00    +0.000 A 
ATOM      7  N   UNL     1       7.162   8.588  16.907  0.00  0.00    +0.000 NA
ATOM      8  N   UNL     1       6.598   7.450  16.498  0.00  0.00    +0.000 N 
ATOM      9  C   UNL     1       6.846   6.386  17.338  0.00  0.00    +0.000 A 
ATOM     10  C   UNL     1       6.175   5.179  17.555  0.00  0.00    +0.000 A 
ATOM     11  H   UNL     1       5.919   7.485  15.748  0.00  0.00    +0.000 HD
BRANCH   6  12
ATOM     12  C   UNL     1       8.565   9.161  18.846  0.00  0.00    +0.000 C 
ATOM     13  C   UNL     1       8.844  10.420  18.472  0.00  0.00    +0.000 C 
BRANCH  13  14
ATOM     14  C   UNL     1       9.610  11.395  19.156  0.00  0.00    +0.000 A 
ATOM     15  C   UNL     1      10.845  11.130  19.693  0.00  0.00    +0.000 A 
ATOM     16  N   UNL     1      11.175  12.251  20.387  0.00  0.00    +0.000 N 
ATOM     17  C   UNL     1      10.163  13.164  20.220  0.00  0.00    +0.000 A 
ATOM     18  C   UNL     1      10.218  14.493  20.882  0.00  0.00    +0.000 C 
ATOM     19  N   UNL     1       9.194  12.664  19.472  0.00  0.00    +0.000 NA
ATOM     20  H   UNL     1      11.993  12.375  20.963  0.00  0.00    +0.000 HD
ENDBRANCH  13  14
ENDBRANCH   6  12
ENDBRANCH   1   2
BRANCH   1  25
ATOM     21  C   UNL     1       2.212   5.679  19.981  0.00  0.00    +0.000 A 
ATOM     22  C   UNL     1       1.370   4.874  19.206  0.00  0.00    +0.000 A 
ATOM     23  C   UNL     1       1.873   3.757  18.504  0.00  0.00    +0.000 A 
ATOM     24  C   UNL     1       3.233   3.434  18.534  0.00  0.00    +0.000 A 
ATOM     25  C   UNL     1       4.089   4.222  19.297  0.00  0.00    +0.000 A 
ATOM     26  C   UNL     1       3.573   5.314  20.035  0.00  0.00    +0.000 A 
BRANCH  21  29
ATOM     27  C   UNL     1       1.598   8.015  20.172  0.00  0.00    +0.000 C 
ATOM     28  O   UNL     1       2.009   8.077  19.005  0.00  0.00    +0.000 OA
ATOM     29  N   UNL     1       1.687   6.770  20.801  0.00  0.00    +0.000 N 
ATOM     30  H   UNL     1       2.080   6.852  21.726  0.00  0.00    +0.000 HD
BRANCH  27  36
ATOM     31  N   UNL     1       0.451  10.437  20.102  0.00  0.00    +0.000 N 
ATOM     32  N   UNL     1      -0.521  11.113  20.795  0.00  0.00    +0.000 NA
ATOM     33  C   UNL     1      -0.480  10.948  22.114  0.00  0.00    +0.000 A 
ATOM     34  C   UNL     1      -0.224   9.704  22.960  0.00  0.00    +0.000 C 
ATOM     35  C   UNL     1      -1.130  11.922  22.951  0.00  0.00    +0.000 A 
ATOM     36  C   UNL     1       0.757   9.093  20.523  0.00  0.00    +0.000 A 
BRANCH  31  38
ATOM     37  C   UNL     1       1.861  12.208  18.959  0.00  0.00    +0.000 C 
ATOM     38  C   UNL     1       0.884  11.017  18.834  0.00  0.00    +0.000 C 
ENDBRANCH  31  38
ENDBRANCH  27  36
ENDBRANCH  21  29
ENDBRANCH   1  25
TORSDOF 7
ENDMDL
MODEL 8
REMARK VINA RESULT:      -8.7      2.060      2.212
REMARK  Name = 
REMARK  10 active torsions:
REMARK  status: ('A' for Active; 'I' for Inactive)
REMARK    1  A    between atoms: C_1  and  C_2
REMARK    2  A    between atoms: C_2  and  N_3
REMARK    3  A    between atoms: C_5  and  C_6
REMARK    4  A    between atoms: C_8  and  C_9
REMARK    5  A    between atoms: N_11  and  C_12
REMARK    6  A    between atoms: C_16  and  O_17
REMARK    7  A    between atoms: O_17  and  C_18
REMARK    8  A    between atoms: C_22  and  C_23
REMARK    9  A    between atoms: C_24  and  C_25
REMARK   10  A    between atoms: C_28  and  C_29
REMARK                            x       y       z     vdW  Elec       q    Type
REMARK                         _______ _______ _______ _____ _____    ______ ____
ROOT
ATOM      1  O   UNL     1       1.063   5.219  20.791  0.00  0.00    +0.000 OA
ENDROOT
BRANCH   1   2
ATOM      2  C   UNL     1       1.611   6.474  20.536  0.00  0.00    +0.000 A 
ATOM      3  C   UNL     1       1.096   7.511  21.318  0.00  0.00    +0.000 A 
ATOM      4  C   UNL     1       1.449   8.836  21.055  0.00  0.00    +0.000 A 
ATOM      5  C   UNL     1       1.639   9.052  19.678  0.00  0.00    +0.000 A 
ATOM      6  C   UNL     1       1.128   9.970  18.718  0.00  0.00    +0.000 A 
ATOM      7  N   UNL     1       1.611   9.702  17.492  0.00  0.00    +0.000 NA
ATOM      8  N   UNL     1       2.303   8.571  17.646  0.00  0.00    +0.000 N 
ATOM      9  C   UNL     1       2.174   8.020  18.902  0.00  0.00    +0.000 A 
ATOM     10  C   UNL     1       2.344   6.719  19.384  0.00  0.00    +0.000 A 
ATOM     11  H   UNL     1       2.699   8.127  16.826  0.00  0.00    +0.000 HD
BRANCH   6  12
ATOM     12  C   UNL     1       0.171  11.005  19.004  0.00  0.00    +0.000 C 
ATOM     13  C   UNL     1       0.463  12.306  18.854  0.00  0.00    +0.000 C 
BRANCH  13  14
ATOM     14  C   UNL     1      -0.306  13.433  19.233  0.00  0.00    +0.000 A 
ATOM     15  C   UNL     1      -0.169  14.663  18.640  0.00  0.00    +0.000 A 
ATOM     16  N   UNL     1      -0.951  15.497  19.375  0.00  0.00    +0.000 N 
ATOM     17  C   UNL     1      -1.562  14.752  20.352  0.00  0.00    +0.000 A 
ATOM     18  C   UNL     1      -2.470  15.387  21.342  0.00  0.00    +0.000 C 
ATOM     19  N   UNL     1      -1.183  13.486  20.287  0.00  0.00    +0.000 NA
ATOM     20  H   UNL     1      -1.033  16.495  19.255  0.00  0.00    +0.000 HD
ENDBRANCH  13  14
ENDBRANCH   6  12
ENDBRANCH   1   2
BRANCH   1  25
ATOM     21  C   UNL     1       3.492   3.172  18.934  0.00  0.00    +0.000 A 
ATOM     22  C   UNL     1       2.732   2.020  18.703  0.00  0.00    +0.000 A 
ATOM     23  C   UNL     1       1.408   1.912  19.181  0.00  0.00    +0.000 A 
ATOM     24  C   UNL     1       0.820   2.939  19.927  0.00  0.00    +0.000 A 
ATOM     25  C   UNL     1       1.558   4.092  20.170  0.00  0.00    +0.000 A 
ATOM     26  C   UNL     1       2.870   4.214  19.651  0.00  0.00    +0.000 A 
BRANCH  21  29
ATOM     27  C   UNL     1       4.859   3.546  16.969  0.00  0.00    +0.000 C 
ATOM     28  O   UNL     1       3.771   3.523  16.376  0.00  0.00    +0.000 OA
ATOM     29  N   UNL     1       4.822   3.341  18.351  0.00  0.00    +0.000 N 
ATOM     30  H   UNL     1       5.517   2.671  18.643  0.00  0.00    +0.000 HD
BRANCH  27  36
ATOM     31  N   UNL     1       6.669   5.374  16.213  0.00  0.00    +0.000 N 
ATOM     32  N   UNL     1       7.618   5.507  15.232  0.00  0.00    +0.000 NA
ATOM     33  C   UNL     1       7.234   5.093  14.027  0.00  0.00    +0.000 A 
ATOM     34  C   UNL     1       6.431   3.868  13.598  0.00  0.00    +0.000 C 
ATOM     35  C   UNL     1       7.943   5.581  12.872  0.00  0.00    +0.000 A 
ATOM     36  C   UNL     1       5.885   4.164  16.222  0.00  0.00    +0.000 A 
BRANCH  31  38
ATOM     37  C   UNL     1       7.531   5.840  18.552  0.00  0.00    +0.000 C 
ATOM     38  C   UNL     1       6.727   6.321  17.322  0.00  0.00    +0.000 C 
ENDBRANCH  31  38
ENDBRANCH  27  36
ENDBRANCH  21  29
ENDBRANCH   1  25
TORSDOF 7
ENDMDL
MODEL 9
REMARK VINA RESULT:      -8.7      3.128      9.885
REMARK  Name = 
REMARK  10 active torsions:
REMARK  status: ('A' for Active; 'I' for Inactive)
REMARK    1  A    between atoms: C_1  and  C_2
REMARK    2  A    between atoms: C_2  and  N_3
REMARK    3  A    between atoms: C_5  and  C_6
REMARK    4  A    between atoms: C_8  and  C_9
REMARK    5  A    between atoms: N_11  and  C_12
REMARK    6  A    between atoms: C_16  and  O_17
REMARK    7  A    between atoms: O_17  and  C_18
REMARK    8  A    between atoms: C_22  and  C_23
REMARK    9  A    between atoms: C_24  and  C_25
REMARK   10  A    between atoms: C_28  and  C_29
REMARK                            x       y       z     vdW  Elec       q    Type
REMARK                         _______ _______ _______ _____ _____    ______ ____
ROOT
ATOM      1  O   UNL     1       1.580   6.867  20.860  0.00  0.00    +0.000 OA
ENDROOT
BRANCH   1   2
ATOM      2  C   UNL     1       2.035   5.581  20.582  0.00  0.00    +0.000 A 
ATOM      3  C   UNL     1       3.390   5.492  20.259  0.00  0.00    +0.000 A 
ATOM      4  C   UNL     1       3.933   4.286  19.812  0.00  0.00    +0.000 A 
ATOM      5  C   UNL     1       3.002   3.558  19.048  0.00  0.00    +0.000 A 
ATOM      6  C   UNL     1       2.998   2.969  17.753  0.00  0.00    +0.000 A 
ATOM      7  N   UNL     1       1.801   2.417  17.480  0.00  0.00    +0.000 NA
ATOM      8  N   UNL     1       1.032   2.760  18.515  0.00  0.00    +0.000 N 
ATOM      9  C   UNL     1       1.649   3.631  19.387  0.00  0.00    +0.000 A 
ATOM     10  C   UNL     1       1.149   4.545  20.319  0.00  0.00    +0.000 A 
ATOM     11  H   UNL     1       0.049   2.520  18.492  0.00  0.00    +0.000 HD
BRANCH   6  12
ATOM     12  C   UNL     1       4.099   3.011  16.829  0.00  0.00    +0.000 C 
ATOM     13  C   UNL     1       4.767   4.147  16.568  0.00  0.00    +0.000 C 
BRANCH  13  14
ATOM     14  C   UNL     1       5.759   4.381  15.585  0.00  0.00    +0.000 A 
ATOM     15  C   UNL     1       6.817   5.233  15.783  0.00  0.00    +0.000 A 
ATOM     16  N   UNL     1       7.440   5.305  14.577  0.00  0.00    +0.000 N 
ATOM     17  C   UNL     1       6.775   4.476  13.707  0.00  0.00    +0.000 A 
ATOM     18  C   UNL     1       7.204   4.354  12.290  0.00  0.00    +0.000 C 
ATOM     19  N   UNL     1       5.743   3.899  14.301  0.00  0.00    +0.000 NA
ATOM     20  H   UNL     1       8.222   5.898  14.346  0.00  0.00    +0.000 HD
ENDBRANCH  13  14
ENDBRANCH   6  12
ENDBRANCH   1   2
BRANCH   1  25
ATOM     21  C   UNL     1       0.719  10.055  19.234  0.00  0.00    +0.000 A 
ATOM     22  C   UNL     1       1.430   9.931  18.035  0.00  0.00    +0.000 A 
ATOM     23  C   UNL     1       2.215   8.788  17.768  0.00  0.00    +0.000 A 
ATOM     24  C   UNL     1       2.336   7.756  18.704  0.00  0.00    +0.000 A 
ATOM     25  C   UNL     1       1.639   7.859  19.904  0.00  0.00    +0.000 A 
ATOM     26  C   UNL     1       0.818   8.985  20.148  0.00  0.00    +0.000 A 
BRANCH  21  29
ATOM     27  C   UNL     1       0.375  12.281  20.125  0.00  0.00    +0.000 C 
ATOM     28  O   UNL     1       1.562  12.180  20.465  0.00  0.00    +0.000 OA
ATOM     29  N   UNL     1      -0.185  11.178  19.475  0.00  0.00    +0.000 N 
ATOM     30  H   UNL     1      -1.086  10.940  19.863  0.00  0.00    +0.000 HD
BRANCH  27  36
ATOM     31  N   UNL     1      -1.306  14.368  20.211  0.00  0.00    +0.000 N 
ATOM     32  N   UNL     1      -1.222  15.734  20.125  0.00  0.00    +0.000 NA
ATOM     33  C   UNL     1      -0.392  16.182  19.187  0.00  0.00    +0.000 A 
ATOM     34  C   UNL     1       0.994  15.703  18.764  0.00  0.00    +0.000 C 
ATOM     35  C   UNL     1      -0.554  17.532  18.711  0.00  0.00    +0.000 A 
ATOM     36  C   UNL     1      -0.081  13.617  20.093  0.00  0.00    +0.000 A 
BRANCH  31  38
ATOM     37  C   UNL     1      -2.540  13.315  22.160  0.00  0.00    +0.000 C 
ATOM     38  C   UNL     1      -2.565  13.811  20.697  0.00  0.00    +0.000 C 
ENDBRANCH  31  38
ENDBRANCH  27  36
ENDBRANCH  21  29
ENDBRANCH   1  25
TORSDOF 7
ENDMDL
