MODEL 1
REMARK VINA RESULT:      -7.3      0.000      0.000
REMARK  Name = 
REMARK  10 active torsions:
REMARK  status: ('A' for Active; 'I' for Inactive)
REMARK    1  A    between atoms: C_1  and  C_2
REMARK    2  A    between atoms: C_2  and  N_3
REMARK    3  A    between atoms: C_4  and  C_5
REMARK    4  A    between atoms: C_7  and  C_8
REMARK    5  A    between atoms: N_10  and  C_11
REMARK    6  A    between atoms: C_11  and  C_12
REMARK    7  A    between atoms: C_15  and  C_16
REMARK    8  A    between atoms: C_16  and  S_17
REMARK    9  A    between atoms: S_17  and  C_18
REMARK   10  A    between atoms: C_23  and  C_24
REMARK                            x       y       z     vdW  Elec       q    Type
REMARK                         _______ _______ _______ _____ _____    ______ ____
ROOT
ATOM      1  C   UNL     1      -0.678  10.260  18.742  0.00  0.00    +0.000 C 
ATOM      2  O   UNL     1      -0.797  10.110  19.951  0.00  0.00    +0.000 OA
ATOM      3  N   UNL     1       0.552  10.232  18.136  0.00  0.00    +0.000 N 
ATOM      4  H   UNL     1       0.601  10.239  17.131  0.00  0.00    +0.000 HD
ENDROOT
BRANCH   1   9
ATOM      5  N   UNL     1      -3.809  11.201  17.076  0.00  0.00    +0.000 N 
ATOM      6  C   UNL     1      -3.286  10.395  16.084  0.00  0.00    +0.000 A 
ATOM      7  C   UNL     1      -3.922  10.106  14.763  0.00  0.00    +0.000 C 
ATOM      8  C   UNL     1      -2.072   9.921  16.549  0.00  0.00    +0.000 A 
ATOM      9  C   UNL     1      -1.818  10.470  17.838  0.00  0.00    +0.000 A 
ATOM     10  C   UNL     1      -2.893  11.316  18.109  0.00  0.00    +0.000 A 
ATOM     11  C   UNL     1      -3.108  12.217  19.282  0.00  0.00    +0.000 C 
BRANCH   5  13
ATOM     12  C   UNL     1      -6.133  11.124  17.954  0.00  0.00    +0.000 C 
ATOM     13  C   UNL     1      -5.122  11.837  17.071  0.00  0.00    +0.000 C 
ENDBRANCH   5  13
ENDBRANCH   1   9
BRANCH   3  14
ATOM     14  C   UNL     1       1.739   9.998  18.929  0.00  0.00    +0.000 C 
BRANCH  14  15
ATOM     15  C   UNL     1       2.189   8.562  18.879  0.00  0.00    +0.000 A 
ATOM     16  C   UNL     1       1.917   7.690  19.940  0.00  0.00    +0.000 A 
ATOM     17  C   UNL     1       2.284   6.343  19.871  0.00  0.00    +0.000 A 
ATOM     18  C   UNL     1       2.909   5.816  18.733  0.00  0.00    +0.000 A 
ATOM     19  C   UNL     1       3.273   6.714  17.721  0.00  0.00    +0.000 A 
ATOM     20  C   UNL     1       2.889   8.057  17.778  0.00  0.00    +0.000 A 
BRANCH  18  21
ATOM     21  C   UNL     1       3.214   4.343  18.665  0.00  0.00    +0.000 C 
BRANCH  21  22
ATOM     22  S   UNL     1       1.829   3.329  18.124  0.00  0.00    +0.000 S 
ATOM     23  C   UNL     1       0.894   2.922  19.591  0.00  0.00    +0.000 C 
ATOM     24  O   UNL     1       0.983   4.084  17.237  0.00  0.00    +0.000 OA
ATOM     25  O   UNL     1       2.403   2.059  17.656  0.00  0.00    +0.000 OA
ENDBRANCH  21  22
ENDBRANCH  18  21
ENDBRANCH  14  15
ENDBRANCH   3  14
TORSDOF 6
ENDMDL
MODEL 2
REMARK VINA RESULT:      -7.0      1.512      1.933
REMARK  Name = 
REMARK  10 active torsions:
REMARK  status: ('A' for Active; 'I' for Inactive)
REMARK    1  A    between atoms: C_1  and  C_2
REMARK    2  A    between atoms: C_2  and  N_3
REMARK    3  A    between atoms: C_4  and  C_5
REMARK    4  A    between atoms: C_7  and  C_8
REMARK    5  A    between atoms: N_10  and  C_11
REMARK    6  A    between atoms: C_11  and  C_12
REMARK    7  A    between atoms: C_15  and  C_16
REMARK    8  A    between atoms: C_16  and  S_17
REMARK    9  A    between atoms: S_17  and  C_18
REMARK   10  A    between atoms: C_23  and  C_24
REMARK                            x       y       z     vdW  Elec       q    Type
REMARK                         _______ _______ _______ _____ _____    ______ ____
ROOT
ATOM      1  C   UNL     1      -0.714  10.330  18.765  0.00  0.00    +0.000 C 
ATOM      2  O   UNL     1      -0.790  10.292  19.986  0.00  0.00    +0.000 OA
ATOM      3  N   UNL     1       0.481  10.142  18.117  0.00  0.00    +0.000 N 
ATOM      4  H   UNL     1       0.484  10.061  17.114  0.00  0.00    +0.000 HD
ENDROOT
BRANCH   1   9
ATOM      5  N   UNL     1      -3.877  11.316  17.188  0.00  0.00    +0.000 N 
ATOM      6  C   UNL     1      -3.375  10.534  16.165  0.00  0.00    +0.000 A 
ATOM      7  C   UNL     1      -4.039  10.280  14.851  0.00  0.00    +0.000 C 
ATOM      8  C   UNL     1      -2.153  10.048  16.593  0.00  0.00    +0.000 A 
ATOM      9  C   UNL     1      -1.871  10.564  17.891  0.00  0.00    +0.000 A 
ATOM     10  C   UNL     1      -2.940  11.403  18.204  0.00  0.00    +0.000 A 
ATOM     11  C   UNL     1      -3.129  12.275  19.404  0.00  0.00    +0.000 C 
BRANCH   5  13
ATOM     12  C   UNL     1      -6.235  11.121  17.950  0.00  0.00    +0.000 C 
ATOM     13  C   UNL     1      -5.189  11.952  17.225  0.00  0.00    +0.000 C 
ENDBRANCH   5  13
ENDBRANCH   1   9
BRANCH   3  14
ATOM     14  C   UNL     1       1.678   9.871  18.881  0.00  0.00    +0.000 C 
BRANCH  14  15
ATOM     15  C   UNL     1       1.911   8.396  19.079  0.00  0.00    +0.000 A 
ATOM     16  C   UNL     1       2.338   7.591  18.016  0.00  0.00    +0.000 A 
ATOM     17  C   UNL     1       2.611   6.234  18.211  0.00  0.00    +0.000 A 
ATOM     18  C   UNL     1       2.492   5.643  19.475  0.00  0.00    +0.000 A 
ATOM     19  C   UNL     1       1.964   6.426  20.509  0.00  0.00    +0.000 A 
ATOM     20  C   UNL     1       1.710   7.788  20.323  0.00  0.00    +0.000 A 
BRANCH  18  21
ATOM     21  C   UNL     1       2.874   4.197  19.660  0.00  0.00    +0.000 C 
BRANCH  21  22
ATOM     22  S   UNL     1       4.564   3.814  19.175  0.00  0.00    +0.000 S 
ATOM     23  C   UNL     1       4.514   3.411  17.436  0.00  0.00    +0.000 C 
ATOM     24  O   UNL     1       5.401   4.972  19.352  0.00  0.00    +0.000 OA
ATOM     25  O   UNL     1       4.919   2.563  19.861  0.00  0.00    +0.000 OA
ENDBRANCH  21  22
ENDBRANCH  18  21
ENDBRANCH  14  15
ENDBRANCH   3  14
TORSDOF 6
ENDMDL
MODEL 3
REMARK VINA RESULT:      -6.9      0.944      1.011
REMARK  Name = 
REMARK  10 active torsions:
REMARK  status: ('A' for Active; 'I' for Inactive)
REMARK    1  A    between atoms: C_1  and  C_2
REMARK    2  A    between atoms: C_2  and  N_3
REMARK    3  A    between atoms: C_4  and  C_5
REMARK    4  A    between atoms: C_7  and  C_8
REMARK    5  A    between atoms: N_10  and  C_11
REMARK    6  A    between atoms: C_11  and  C_12
REMARK    7  A    between atoms: C_15  and  C_16
REMARK    8  A    between atoms: C_16  and  S_17
REMARK    9  A    between atoms: S_17  and  C_18
REMARK   10  A    between atoms: C_23  and  C_24
REMARK                            x       y       z     vdW  Elec       q    Type
REMARK                         _______ _______ _______ _____ _____    ______ ____
ROOT
ATOM      1  C   UNL     1      -0.272  10.643  18.810  0.00  0.00    +0.000 C 
ATOM      2  O   UNL     1       0.693  11.387  18.698  0.00  0.00    +0.000 OA
ATOM      3  N   UNL     1      -0.249   9.565  19.658  0.00  0.00    +0.000 N 
ATOM      4  H   UNL     1      -1.098   9.047  19.813  0.00  0.00    +0.000 HD
ENDROOT
BRANCH   1   9
ATOM      5  N   UNL     1      -3.643  11.463  17.617  0.00  0.00    +0.000 N 
ATOM      6  C   UNL     1      -3.195  10.778  16.504  0.00  0.00    +0.000 A 
ATOM      7  C   UNL     1      -3.971  10.543  15.249  0.00  0.00    +0.000 C 
ATOM      8  C   UNL     1      -1.903  10.366  16.778  0.00  0.00    +0.000 A 
ATOM      9  C   UNL     1      -1.527  10.832  18.070  0.00  0.00    +0.000 A 
ATOM     10  C   UNL     1      -2.615  11.568  18.539  0.00  0.00    +0.000 A 
ATOM     11  C   UNL     1      -2.741  12.357  19.803  0.00  0.00    +0.000 C 
BRANCH   5  13
ATOM     12  C   UNL     1      -5.955  10.962  18.381  0.00  0.00    +0.000 C 
ATOM     13  C   UNL     1      -4.987  11.992  17.823  0.00  0.00    +0.000 C 
ENDBRANCH   5  13
ENDBRANCH   1   9
BRANCH   3  14
ATOM     14  C   UNL     1       0.927   9.305  20.459  0.00  0.00    +0.000 C 
BRANCH  14  15
ATOM     15  C   UNL     1       1.595   8.006  20.093  0.00  0.00    +0.000 A 
ATOM     16  C   UNL     1       1.485   6.886  20.925  0.00  0.00    +0.000 A 
ATOM     17  C   UNL     1       2.057   5.663  20.559  0.00  0.00    +0.000 A 
ATOM     18  C   UNL     1       2.733   5.512  19.341  0.00  0.00    +0.000 A 
ATOM     19  C   UNL     1       2.931   6.661  18.564  0.00  0.00    +0.000 A 
ATOM     20  C   UNL     1       2.343   7.879  18.917  0.00  0.00    +0.000 A 
BRANCH  18  21
ATOM     21  C   UNL     1       3.263   4.158  18.947  0.00  0.00    +0.000 C 
BRANCH  21  22
ATOM     22  S   UNL     1       2.051   3.100  18.140  0.00  0.00    +0.000 S 
ATOM     23  C   UNL     1       0.996   2.461  19.431  0.00  0.00    +0.000 C 
ATOM     24  O   UNL     1       1.247   3.877  17.233  0.00  0.00    +0.000 OA
ATOM     25  O   UNL     1       2.793   1.940  17.625  0.00  0.00    +0.000 OA
ENDBRANCH  21  22
ENDBRANCH  18  21
ENDBRANCH  14  15
ENDBRANCH   3  14
TORSDOF 6
ENDMDL
MODEL 4
REMARK VINA RESULT:      -6.8      1.119      1.534
REMARK  Name = 
REMARK  10 active torsions:
REMARK  status: ('A' for Active; 'I' for Inactive)
REMARK    1  A    between atoms: C_1  and  C_2
REMARK    2  A    between atoms: C_2  and  N_3
REMARK    3  A    between atoms: C_4  and  C_5
REMARK    4  A    between atoms: C_7  and  C_8
REMARK    5  A    between atoms: N_10  and  C_11
REMARK    6  A    between atoms: C_11  and  C_12
REMARK    7  A    between atoms: C_15  and  C_16
REMARK    8  A    between atoms: C_16  and  S_17
REMARK    9  A    between atoms: S_17  and  C_18
REMARK   10  A    between atoms: C_23  and  C_24
REMARK                            x       y       z     vdW  Elec       q    Type
REMARK                         _______ _______ _______ _____ _____    ______ ____
ROOT
ATOM      1  C   UNL     1      -0.071  10.465  18.831  0.00  0.00    +0.000 C 
ATOM      2  O   UNL     1       0.933  11.137  18.638  0.00  0.00    +0.000 OA
ATOM      3  N   UNL     1      -0.070   9.415  19.714  0.00  0.00    +0.000 N 
ATOM      4  H   UNL     1      -0.941   8.962  19.935  0.00  0.00    +0.000 HD
ENDROOT
BRANCH   1   9
ATOM      5  N   UNL     1      -3.457  11.448  17.816  0.00  0.00    +0.000 N 
ATOM      6  C   UNL     1      -3.101  10.748  16.680  0.00  0.00    +0.000 A 
ATOM      7  C   UNL     1      -3.951  10.555  15.466  0.00  0.00    +0.000 C 
ATOM      8  C   UNL     1      -1.817  10.274  16.886  0.00  0.00    +0.000 A 
ATOM      9  C   UNL     1      -1.353  10.717  18.158  0.00  0.00    +0.000 A 
ATOM     10  C   UNL     1      -2.378  11.501  18.684  0.00  0.00    +0.000 A 
ATOM     11  C   UNL     1      -2.402  12.290  19.954  0.00  0.00    +0.000 C 
BRANCH   5  13
ATOM     12  C   UNL     1      -5.771  11.037  18.625  0.00  0.00    +0.000 C 
ATOM     13  C   UNL     1      -4.762  12.040  18.093  0.00  0.00    +0.000 C 
ENDBRANCH   5  13
ENDBRANCH   1   9
BRANCH   3  14
ATOM     14  C   UNL     1       1.131   9.100  20.455  0.00  0.00    +0.000 C 
BRANCH  14  15
ATOM     15  C   UNL     1       1.692   7.750  20.093  0.00  0.00    +0.000 A 
ATOM     16  C   UNL     1       2.417   7.572  18.908  0.00  0.00    +0.000 A 
ATOM     17  C   UNL     1       2.987   6.333  18.598  0.00  0.00    +0.000 A 
ATOM     18  C   UNL     1       2.876   5.243  19.470  0.00  0.00    +0.000 A 
ATOM     19  C   UNL     1       2.062   5.397  20.599  0.00  0.00    +0.000 A 
ATOM     20  C   UNL     1       1.508   6.640  20.923  0.00  0.00    +0.000 A 
BRANCH  18  21
ATOM     21  C   UNL     1       3.574   3.950  19.138  0.00  0.00    +0.000 C 
BRANCH  21  22
ATOM     22  S   UNL     1       2.590   2.816  18.145  0.00  0.00    +0.000 S 
ATOM     23  C   UNL     1       1.109   2.474  19.083  0.00  0.00    +0.000 C 
ATOM     24  O   UNL     1       2.213   3.447  16.908  0.00  0.00    +0.000 OA
ATOM     25  O   UNL     1       3.334   1.548  18.105  0.00  0.00    +0.000 OA
ENDBRANCH  21  22
ENDBRANCH  18  21
ENDBRANCH  14  15
ENDBRANCH   3  14
TORSDOF 6
ENDMDL
MODEL 5
REMARK VINA RESULT:      -6.7      3.792      4.936
REMARK  Name = 
REMARK  10 active torsions:
REMARK  status: ('A' for Active; 'I' for Inactive)
REMARK    1  A    between atoms: C_1  and  C_2
REMARK    2  A    between atoms: C_2  and  N_3
REMARK    3  A    between atoms: C_4  and  C_5
REMARK    4  A    between atoms: C_7  and  C_8
REMARK    5  A    between atoms: N_10  and  C_11
REMARK    6  A    between atoms: C_11  and  C_12
REMARK    7  A    between atoms: C_15  and  C_16
REMARK    8  A    between atoms: C_16  and  S_17
REMARK    9  A    between atoms: S_17  and  C_18
REMARK   10  A    between atoms: C_23  and  C_24
REMARK                            x       y       z     vdW  Elec       q    Type
REMARK                         _______ _______ _______ _____ _____    ______ ____
ROOT
ATOM      1  C   UNL     1       0.377   8.558  21.179  0.00  0.00    +0.000 C 
ATOM      2  O   UNL     1      -0.558   7.845  21.519  0.00  0.00    +0.000 OA
ATOM      3  N   UNL     1       1.598   8.028  20.849  0.00  0.00    +0.000 N 
ATOM      4  H   UNL     1       2.304   8.632  20.461  0.00  0.00    +0.000 HD
ENDROOT
BRANCH   1   9
ATOM      5  N   UNL     1       0.460  12.104  20.240  0.00  0.00    +0.000 N 
ATOM      6  C   UNL     1      -0.046  12.245  21.518  0.00  0.00    +0.000 A 
ATOM      7  C   UNL     1      -0.420  13.533  22.175  0.00  0.00    +0.000 C 
ATOM      8  C   UNL     1      -0.140  10.973  22.055  0.00  0.00    +0.000 A 
ATOM      9  C   UNL     1       0.282  10.021  21.083  0.00  0.00    +0.000 A 
ATOM     10  C   UNL     1       0.588  10.758  19.939  0.00  0.00    +0.000 A 
ATOM     11  C   UNL     1       0.998  10.268  18.587  0.00  0.00    +0.000 C 
BRANCH   5  13
ATOM     12  C   UNL     1      -0.339  13.663  18.476  0.00  0.00    +0.000 C 
ATOM     13  C   UNL     1       0.824  13.186  19.331  0.00  0.00    +0.000 C 
ENDBRANCH   5  13
ENDBRANCH   1   9
BRANCH   3  14
ATOM     14  C   UNL     1       1.791   6.595  20.877  0.00  0.00    +0.000 C 
BRANCH  14  15
ATOM     15  C   UNL     1       2.560   6.095  19.683  0.00  0.00    +0.000 A 
ATOM     16  C   UNL     1       2.936   6.970  18.657  0.00  0.00    +0.000 A 
ATOM     17  C   UNL     1       3.700   6.520  17.576  0.00  0.00    +0.000 A 
ATOM     18  C   UNL     1       4.135   5.191  17.497  0.00  0.00    +0.000 A 
ATOM     19  C   UNL     1       3.668   4.298  18.470  0.00  0.00    +0.000 A 
ATOM     20  C   UNL     1       2.922   4.749  19.563  0.00  0.00    +0.000 A 
BRANCH  18  21
ATOM     21  C   UNL     1       5.025   4.765  16.358  0.00  0.00    +0.000 C 
BRANCH  21  22
ATOM     22  S   UNL     1       6.708   5.393  16.465  0.00  0.00    +0.000 S 
ATOM     23  C   UNL     1       7.285   5.020  18.114  0.00  0.00    +0.000 C 
ATOM     24  O   UNL     1       7.549   4.708  15.519  0.00  0.00    +0.000 OA
ATOM     25  O   UNL     1       6.607   6.859  16.403  0.00  0.00    +0.000 OA
ENDBRANCH  21  22
ENDBRANCH  18  21
ENDBRANCH  14  15
ENDBRANCH   3  14
TORSDOF 6
ENDMDL
MODEL 6
REMARK VINA RESULT:      -6.7      3.965      4.724
REMARK  Name = 
REMARK  10 active torsions:
REMARK  status: ('A' for Active; 'I' for Inactive)
REMARK    1  A    between atoms: C_1  and  C_2
REMARK    2  A    between atoms: C_2  and  N_3
REMARK    3  A    between atoms: C_4  and  C_5
REMARK    4  A    between atoms: C_7  and  C_8
REMARK    5  A    between atoms: N_10  and  C_11
REMARK    6  A    between atoms: C_11  and  C_12
REMARK    7  A    between atoms: C_15  and  C_16
REMARK    8  A    between atoms: C_16  and  S_17
REMARK    9  A    between atoms: S_17  and  C_18
REMARK   10  A    between atoms: C_23  and  C_24
REMARK                            x       y       z     vdW  Elec       q    Type
REMARK                         _______ _______ _______ _____ _____    ______ ____
ROOT
ATOM      1  C   UNL     1       0.294   9.003  20.965  0.00  0.00    +0.000 C 
ATOM      2  O   UNL     1      -0.524   8.373  21.621  0.00  0.00    +0.000 OA
ATOM      3  N   UNL     1       1.417   8.402  20.454  0.00  0.00    +0.000 N 
ATOM      4  H   UNL     1       2.003   8.920  19.822  0.00  0.00    +0.000 HD
ENDROOT
BRANCH   1   9
ATOM      5  N   UNL     1      -0.457  12.593  20.861  0.00  0.00    +0.000 N 
ATOM      6  C   UNL     1       0.202  12.489  19.651  0.00  0.00    +0.000 A 
ATOM      7  C   UNL     1       0.470  13.609  18.699  0.00  0.00    +0.000 C 
ATOM      8  C   UNL     1       0.563  11.161  19.503  0.00  0.00    +0.000 A 
ATOM      9  C   UNL     1       0.153  10.433  20.656  0.00  0.00    +0.000 A 
ATOM     10  C   UNL     1      -0.423  11.371  21.512  0.00  0.00    +0.000 A 
ATOM     11  C   UNL     1      -0.946  11.181  22.900  0.00  0.00    +0.000 C 
BRANCH   5  13
ATOM     12  C   UNL     1      -0.168  14.670  22.194  0.00  0.00    +0.000 C 
ATOM     13  C   UNL     1      -1.107  13.787  21.390  0.00  0.00    +0.000 C 
ENDBRANCH   5  13
ENDBRANCH   1   9
BRANCH   3  14
ATOM     14  C   UNL     1       1.637   6.989  20.671  0.00  0.00    +0.000 C 
BRANCH  14  15
ATOM     15  C   UNL     1       2.575   6.392  19.656  0.00  0.00    +0.000 A 
ATOM     16  C   UNL     1       2.954   7.117  18.519  0.00  0.00    +0.000 A 
ATOM     17  C   UNL     1       3.869   6.586  17.604  0.00  0.00    +0.000 A 
ATOM     18  C   UNL     1       4.454   5.330  17.807  0.00  0.00    +0.000 A 
ATOM     19  C   UNL     1       3.992   4.567  18.887  0.00  0.00    +0.000 A 
ATOM     20  C   UNL     1       3.093   5.102  19.815  0.00  0.00    +0.000 A 
BRANCH  18  21
ATOM     21  C   UNL     1       5.497   4.830  16.842  0.00  0.00    +0.000 C 
BRANCH  21  22
ATOM     22  S   UNL     1       7.180   5.310  17.262  0.00  0.00    +0.000 S 
ATOM     23  C   UNL     1       7.162   5.761  18.990  0.00  0.00    +0.000 C 
ATOM     24  O   UNL     1       8.068   4.191  17.090  0.00  0.00    +0.000 OA
ATOM     25  O   UNL     1       7.449   6.558  16.531  0.00  0.00    +0.000 OA
ENDBRANCH  21  22
ENDBRANCH  18  21
ENDBRANCH  14  15
ENDBRANCH   3  14
TORSDOF 6
ENDMDL
MODEL 7
REMARK VINA RESULT:      -6.6      3.997      4.798
REMARK  Name = 
REMARK  10 active torsions:
REMARK  status: ('A' for Active; 'I' for Inactive)
REMARK    1  A    between atoms: C_1  and  C_2
REMARK    2  A    between atoms: C_2  and  N_3
REMARK    3  A    between atoms: C_4  and  C_5
REMARK    4  A    between atoms: C_7  and  C_8
REMARK    5  A    between atoms: N_10  and  C_11
REMARK    6  A    between atoms: C_11  and  C_12
REMARK    7  A    between atoms: C_15  and  C_16
REMARK    8  A    between atoms: C_16  and  S_17
REMARK    9  A    between atoms: S_17  and  C_18
REMARK   10  A    between atoms: C_23  and  C_24
REMARK                            x       y       z     vdW  Elec       q    Type
REMARK                         _______ _______ _______ _____ _____    ______ ____
ROOT
ATOM      1  C   UNL     1       0.528   8.124  21.008  0.00  0.00    +0.000 C 
ATOM      2  O   UNL     1      -0.407   7.436  21.395  0.00  0.00    +0.000 OA
ATOM      3  N   UNL     1       1.730   7.563  20.658  0.00  0.00    +0.000 N 
ATOM      4  H   UNL     1       2.434   8.144  20.233  0.00  0.00    +0.000 HD
ENDROOT
BRANCH   1   9
ATOM      5  N   UNL     1      -0.023  11.735  21.355  0.00  0.00    +0.000 N 
ATOM      6  C   UNL     1       0.574  11.740  20.109  0.00  0.00    +0.000 A 
ATOM      7  C   UNL     1       0.862  12.949  19.280  0.00  0.00    +0.000 C 
ATOM      8  C   UNL     1       0.852  10.422  19.791  0.00  0.00    +0.000 A 
ATOM      9  C   UNL     1       0.454   9.585  20.873  0.00  0.00    +0.000 A 
ATOM     10  C   UNL     1      -0.029  10.445  21.859  0.00  0.00    +0.000 A 
ATOM     11  C   UNL     1      -0.499  10.120  23.241  0.00  0.00    +0.000 C 
BRANCH   5  13
ATOM     12  C   UNL     1      -2.041  13.141  21.715  0.00  0.00    +0.000 C 
ATOM     13  C   UNL     1      -0.580  12.890  22.051  0.00  0.00    +0.000 C 
ENDBRANCH   5  13
ENDBRANCH   1   9
BRANCH   3  14
ATOM     14  C   UNL     1       1.900   6.129  20.722  0.00  0.00    +0.000 C 
BRANCH  14  15
ATOM     15  C   UNL     1       2.713   5.595  19.572  0.00  0.00    +0.000 A 
ATOM     16  C   UNL     1       4.110   5.691  19.578  0.00  0.00    +0.000 A 
ATOM     17  C   UNL     1       4.869   5.146  18.538  0.00  0.00    +0.000 A 
ATOM     18  C   UNL     1       4.263   4.465  17.475  0.00  0.00    +0.000 A 
ATOM     19  C   UNL     1       2.863   4.465  17.420  0.00  0.00    +0.000 A 
ATOM     20  C   UNL     1       2.101   4.991  18.468  0.00  0.00    +0.000 A 
BRANCH  18  21
ATOM     21  C   UNL     1       5.121   3.820  16.418  0.00  0.00    +0.000 C 
BRANCH  21  22
ATOM     22  S   UNL     1       6.132   4.979  15.484  0.00  0.00    +0.000 S 
ATOM     23  C   UNL     1       6.415   4.232  13.886  0.00  0.00    +0.000 C 
ATOM     24  O   UNL     1       5.416   6.213  15.292  0.00  0.00    +0.000 OA
ATOM     25  O   UNL     1       7.445   5.008  16.145  0.00  0.00    +0.000 OA
ENDBRANCH  21  22
ENDBRANCH  18  21
ENDBRANCH  14  15
ENDBRANCH   3  14
TORSDOF 6
ENDMDL
MODEL 8
REMARK VINA RESULT:      -6.6      4.136      4.673
REMARK  Name = 
REMARK  10 active torsions:
REMARK  status: ('A' for Active; 'I' for Inactive)
REMARK    1  A    between atoms: C_1  and  C_2
REMARK    2  A    between atoms: C_2  and  N_3
REMARK    3  A    between atoms: C_4  and  C_5
REMARK    4  A    between atoms: C_7  and  C_8
REMARK    5  A    between atoms: N_10  and  C_11
REMARK    6  A    between atoms: C_11  and  C_12
REMARK    7  A    between atoms: C_15  and  C_16
REMARK    8  A    between atoms: C_16  and  S_17
REMARK    9  A    between atoms: S_17  and  C_18
REMARK   10  A    between atoms: C_23  and  C_24
REMARK                            x       y       z     vdW  Elec       q    Type
REMARK                         _______ _______ _______ _____ _____    ______ ____
ROOT
ATOM      1  C   UNL     1       1.038   9.848  21.449  0.00  0.00    +0.000 C 
ATOM      2  O   UNL     1       1.515   9.630  22.554  0.00  0.00    +0.000 OA
ATOM      3  N   UNL     1       1.036   8.887  20.470  0.00  0.00    +0.000 N 
ATOM      4  H   UNL     1       0.530   9.061  19.617  0.00  0.00    +0.000 HD
ENDROOT
BRANCH   1   9
ATOM      5  N   UNL     1      -1.013  12.865  21.061  0.00  0.00    +0.000 N 
ATOM      6  C   UNL     1      -0.106  13.104  20.046  0.00  0.00    +0.000 A 
ATOM      7  C   UNL     1      -0.087  14.301  19.152  0.00  0.00    +0.000 C 
ATOM      8  C   UNL     1       0.769  12.033  20.028  0.00  0.00    +0.000 A 
ATOM      9  C   UNL     1       0.424  11.128  21.073  0.00  0.00    +0.000 A 
ATOM     10  C   UNL     1      -0.654  11.711  21.738  0.00  0.00    +0.000 A 
ATOM     11  C   UNL     1      -1.365  11.242  22.967  0.00  0.00    +0.000 C 
BRANCH   5  13
ATOM     12  C   UNL     1      -1.866  14.826  22.328  0.00  0.00    +0.000 C 
ATOM     13  C   UNL     1      -2.181  13.676  21.385  0.00  0.00    +0.000 C 
ENDBRANCH   5  13
ENDBRANCH   1   9
BRANCH   3  14
ATOM     14  C   UNL     1       1.587   7.578  20.745  0.00  0.00    +0.000 C 
BRANCH  14  15
ATOM     15  C   UNL     1       2.416   7.053  19.603  0.00  0.00    +0.000 A 
ATOM     16  C   UNL     1       2.597   7.813  18.441  0.00  0.00    +0.000 A 
ATOM     17  C   UNL     1       3.414   7.352  17.404  0.00  0.00    +0.000 A 
ATOM     18  C   UNL     1       4.096   6.133  17.503  0.00  0.00    +0.000 A 
ATOM     19  C   UNL     1       3.827   5.329  18.619  0.00  0.00    +0.000 A 
ATOM     20  C   UNL     1       3.028   5.796  19.667  0.00  0.00    +0.000 A 
BRANCH  18  21
ATOM     21  C   UNL     1       5.030   5.710  16.399  0.00  0.00    +0.000 C 
BRANCH  21  22
ATOM     22  S   UNL     1       6.769   6.007  16.753  0.00  0.00    +0.000 S 
ATOM     23  C   UNL     1       7.314   4.656  17.788  0.00  0.00    +0.000 C 
ATOM     24  O   UNL     1       7.530   5.983  15.532  0.00  0.00    +0.000 OA
ATOM     25  O   UNL     1       6.820   7.204  17.606  0.00  0.00    +0.000 OA
ENDBRANCH  21  22
ENDBRANCH  18  21
ENDBRANCH  14  15
ENDBRANCH   3  14
TORSDOF 6
ENDMDL
MODEL 9
REMARK VINA RESULT:      -6.6      4.727      9.118
REMARK  Name = 
REMARK  10 active torsions:
REMARK  status: ('A' for Active; 'I' for Inactive)
REMARK    1  A    between atoms: C_1  and  C_2
REMARK    2  A    between atoms: C_2  and  N_3
REMARK    3  A    between atoms: C_4  and  C_5
REMARK    4  A    between atoms: C_7  and  C_8
REMARK    5  A    between atoms: N_10  and  C_11
REMARK    6  A    between atoms: C_11  and  C_12
REMARK    7  A    between atoms: C_15  and  C_16
REMARK    8  A    between atoms: C_16  and  S_17
REMARK    9  A    between atoms: S_17  and  C_18
REMARK   10  A    between atoms: C_23  and  C_24
REMARK                            x       y       z     vdW  Elec       q    Type
REMARK                         _______ _______ _______ _____ _____    ______ ____
ROOT
ATOM      1  C   UNL     1       2.231   7.173  19.306  0.00  0.00    +0.000 C 
ATOM      2  O   UNL     1       2.569   7.536  18.187  0.00  0.00    +0.000 OA
ATOM      3  N   UNL     1       1.662   8.045  20.198  0.00  0.00    +0.000 N 
ATOM      4  H   UNL     1       1.289   7.686  21.061  0.00  0.00    +0.000 HD
ENDROOT
BRANCH   1   9
ATOM      5  N   UNL     1       3.254   3.730  20.057  0.00  0.00    +0.000 N 
ATOM      6  C   UNL     1       2.089   3.762  20.799  0.00  0.00    +0.000 A 
ATOM      7  C   UNL     1       1.548   2.644  21.629  0.00  0.00    +0.000 C 
ATOM      8  C   UNL     1       1.535   5.018  20.625  0.00  0.00    +0.000 A 
ATOM      9  C   UNL     1       2.389   5.794  19.789  0.00  0.00    +0.000 A 
ATOM     10  C   UNL     1       3.485   4.980  19.506  0.00  0.00    +0.000 A 
ATOM     11  C   UNL     1       4.728   5.309  18.744  0.00  0.00    +0.000 C 
BRANCH   5  13
ATOM     12  C   UNL     1       3.679   1.690  18.703  0.00  0.00    +0.000 C 
ATOM     13  C   UNL     1       4.120   2.573  19.858  0.00  0.00    +0.000 C 
ENDBRANCH   5  13
ENDBRANCH   1   9
BRANCH   3  14
ATOM     14  C   UNL     1       1.430   9.419  19.812  0.00  0.00    +0.000 C 
BRANCH  14  15
ATOM     15  C   UNL     1       0.603  10.168  20.824  0.00  0.00    +0.000 A 
ATOM     16  C   UNL     1       0.452  11.557  20.736  0.00  0.00    +0.000 A 
ATOM     17  C   UNL     1      -0.362  12.247  21.640  0.00  0.00    +0.000 A 
ATOM     18  C   UNL     1      -1.071  11.571  22.642  0.00  0.00    +0.000 A 
ATOM     19  C   UNL     1      -0.833  10.199  22.790  0.00  0.00    +0.000 A 
ATOM     20  C   UNL     1      -0.036   9.503  21.876  0.00  0.00    +0.000 A 
BRANCH  18  21
ATOM     21  C   UNL     1      -2.002  12.340  23.544  0.00  0.00    +0.000 C 
BRANCH  21  22
ATOM     22  S   UNL     1      -3.266  13.277  22.670  0.00  0.00    +0.000 S 
ATOM     23  C   UNL     1      -4.692  13.329  23.745  0.00  0.00    +0.000 C 
ATOM     24  O   UNL     1      -2.812  14.624  22.445  0.00  0.00    +0.000 OA
ATOM     25  O   UNL     1      -3.669  12.455  21.519  0.00  0.00    +0.000 OA
ENDBRANCH  21  22
ENDBRANCH  18  21
ENDBRANCH  14  15
ENDBRANCH   3  14
TORSDOF 6
ENDMDL
