MODEL 1
REMARK VINA RESULT:      -6.4      0.000      0.000
REMARK  Name = 
REMARK  15 active torsions:
REMARK  status: ('A' for Active; 'I' for Inactive)
REMARK    1  A    between atoms: C_1  and  C_2
REMARK    2  A    between atoms: C_2  and  C_3
REMARK    3  A    between atoms: C_3  and  C_4
REMARK    4  A    between atoms: C_4  and  C_5
REMARK    5  A    between atoms: C_5  and  C_6
REMARK    6  A    between atoms: C_6  and  C_7
REMARK    7  A    between atoms: C_7  and  C_8
REMARK    8  A    between atoms: C_8  and  C_9
REMARK    9  A    between atoms: C_9  and  C_10
REMARK   10  A    between atoms: C_10  and  C_11
REMARK   11  A    between atoms: C_11  and  C_12
REMARK   12  A    between atoms: C_12  and  C_13
REMARK   13  A    between atoms: C_13  and  C_14
REMARK   14  A    between atoms: N_16  and  N_17
REMARK   15  A    between atoms: C_18  and  C_19
REMARK                            x       y       z     vdW  Elec       q    Type
REMARK                         _______ _______ _______ _____ _____    ______ ____
ROOT
ATOM      1  C   UNL     1       7.586   5.822  18.515  0.00  0.00    +0.000 C 
ENDROOT
BRANCH   1   2
ATOM      2  C   UNL     1       7.917   7.238  18.076  0.00  0.00    +0.000 C 
ATOM      3  O   UNL     1       7.591   7.658  16.960  0.00  0.00    +0.000 OA
ATOM      4  N   UNL     1       8.610   8.003  19.005  0.00  0.00    +0.000 N 
ATOM      5  H   UNL     1       8.818   7.675  19.940  0.00  0.00    +0.000 HD
BRANCH   4   6
ATOM      6  N   UNL     1       8.922   9.278  18.646  0.00  0.00    +0.000 NA
ATOM      7  C   UNL     1       9.189  10.149  19.564  0.00  0.00    +0.000 C 
BRANCH   7   8
ATOM      8  C   UNL     1       9.501  11.559  19.177  0.00  0.00    +0.000 A 
ATOM      9  C   UNL     1       9.827  11.835  17.836  0.00  0.00    +0.000 A 
ATOM     10  C   UNL     1      10.091  13.143  17.417  0.00  0.00    +0.000 A 
ATOM     11  C   UNL     1      10.026  14.195  18.327  0.00  0.00    +0.000 A 
ATOM     12  C   UNL     1       9.721  13.934  19.664  0.00  0.00    +0.000 A 
ATOM     13  C   UNL     1       9.471  12.621  20.094  0.00  0.00    +0.000 A 
ATOM     14 CL   UNL     1       9.189  12.401  21.785  0.00  0.00    +0.000 Cl
ENDBRANCH   7   8
ENDBRANCH   4   6
ENDBRANCH   1   2
BRANCH   1  15
ATOM     15  C   UNL     1       6.069   5.660  18.713  0.00  0.00    +0.000 C 
BRANCH  15  16
ATOM     16  C   UNL     1       5.376   4.969  17.542  0.00  0.00    +0.000 C 
BRANCH  16  17
ATOM     17  C   UNL     1       4.399   5.923  16.852  0.00  0.00    +0.000 C 
BRANCH  17  18
ATOM     18  C   UNL     1       4.020   7.073  17.777  0.00  0.00    +0.000 C 
BRANCH  18  19
ATOM     19  C   UNL     1       2.540   7.013  18.133  0.00  0.00    +0.000 C 
BRANCH  19  20
ATOM     20  C   UNL     1       2.365   6.856  19.637  0.00  0.00    +0.000 C 
BRANCH  20  21
ATOM     21  C   UNL     1       2.731   5.443  20.066  0.00  0.00    +0.000 C 
BRANCH  21  22
ATOM     22  C   UNL     1       1.515   4.736  20.643  0.00  0.00    +0.000 C 
BRANCH  22  23
ATOM     23  C   UNL     1       1.022   3.663  19.682  0.00  0.00    +0.000 C 
BRANCH  23  24
ATOM     24  C   UNL     1       1.752   2.352  19.937  0.00  0.00    +0.000 C 
BRANCH  24  26
ATOM     25  C   UNL     1       2.440   2.724  17.561  0.00  0.00    +0.000 C 
ATOM     26  C   UNL     1       2.845   2.133  18.899  0.00  0.00    +0.000 C 
ENDBRANCH  24  26
ENDBRANCH  23  24
ENDBRANCH  22  23
ENDBRANCH  21  22
ENDBRANCH  20  21
ENDBRANCH  19  20
ENDBRANCH  18  19
ENDBRANCH  17  18
ENDBRANCH  16  17
ENDBRANCH  15  16
ENDBRANCH   1  15
TORSDOF 14
ENDMDL
MODEL 2
REMARK VINA RESULT:      -6.2      2.918      9.587
REMARK  Name = 
REMARK  15 active torsions:
REMARK  status: ('A' for Active; 'I' for Inactive)
REMARK    1  A    between atoms: C_1  and  C_2
REMARK    2  A    between atoms: C_2  and  C_3
REMARK    3  A    between atoms: C_3  and  C_4
REMARK    4  A    between atoms: C_4  and  C_5
REMARK    5  A    between atoms: C_5  and  C_6
REMARK    6  A    between atoms: C_6  and  C_7
REMARK    7  A    between atoms: C_7  and  C_8
REMARK    8  A    between atoms: C_8  and  C_9
REMARK    9  A    between atoms: C_9  and  C_10
REMARK   10  A    between atoms: C_10  and  C_11
REMARK   11  A    between atoms: C_11  and  C_12
REMARK   12  A    between atoms: C_12  and  C_13
REMARK   13  A    between atoms: C_13  and  C_14
REMARK   14  A    between atoms: N_16  and  N_17
REMARK   15  A    between atoms: C_18  and  C_19
REMARK                            x       y       z     vdW  Elec       q    Type
REMARK                         _______ _______ _______ _____ _____    ______ ____
ROOT
ATOM      1  C   UNL     1       8.112   7.067  18.597  0.00  0.00    +0.000 C 
ENDROOT
BRANCH   1   2
ATOM      2  C   UNL     1       7.051   5.984  18.698  0.00  0.00    +0.000 C 
ATOM      3  O   UNL     1       7.224   4.978  19.394  0.00  0.00    +0.000 OA
ATOM      4  N   UNL     1       5.901   6.207  17.954  0.00  0.00    +0.000 N 
ATOM      5  H   UNL     1       5.739   7.062  17.437  0.00  0.00    +0.000 HD
BRANCH   4   6
ATOM      6  N   UNL     1       4.927   5.258  18.022  0.00  0.00    +0.000 NA
ATOM      7  C   UNL     1       3.861   5.491  18.715  0.00  0.00    +0.000 C 
BRANCH   7   8
ATOM      8  C   UNL     1       2.802   4.440  18.820  0.00  0.00    +0.000 A 
ATOM      9  C   UNL     1       2.863   3.332  17.954  0.00  0.00    +0.000 A 
ATOM     10  C   UNL     1       1.918   2.304  18.038  0.00  0.00    +0.000 A 
ATOM     11  C   UNL     1       0.904   2.364  18.990  0.00  0.00    +0.000 A 
ATOM     12  C   UNL     1       0.820   3.465  19.843  0.00  0.00    +0.000 A 
ATOM     13  C   UNL     1       1.757   4.507  19.754  0.00  0.00    +0.000 A 
ATOM     14 CL   UNL     1       1.509   5.861  20.799  0.00  0.00    +0.000 Cl
ENDBRANCH   7   8
ENDBRANCH   4   6
ENDBRANCH   1   2
BRANCH   1  15
ATOM     15  C   UNL     1       7.737   8.090  17.510  0.00  0.00    +0.000 C 
BRANCH  15  16
ATOM     16  C   UNL     1       8.070   9.529  17.894  0.00  0.00    +0.000 C 
BRANCH  16  17
ATOM     17  C   UNL     1       9.150   9.565  18.977  0.00  0.00    +0.000 C 
BRANCH  17  18
ATOM     18  C   UNL     1       9.959  10.854  18.894  0.00  0.00    +0.000 C 
BRANCH  18  19
ATOM     19  C   UNL     1       9.257  11.874  18.007  0.00  0.00    +0.000 C 
BRANCH  19  20
ATOM     20  C   UNL     1       9.535  13.285  18.505  0.00  0.00    +0.000 C 
BRANCH  20  21
ATOM     21  C   UNL     1       8.738  13.565  19.770  0.00  0.00    +0.000 C 
BRANCH  21  22
ATOM     22  C   UNL     1       9.650  14.105  20.859  0.00  0.00    +0.000 C 
BRANCH  22  23
ATOM     23  C   UNL     1       9.266  13.517  22.210  0.00  0.00    +0.000 C 
BRANCH  23  24
ATOM     24  C   UNL     1       8.812  12.074  22.047  0.00  0.00    +0.000 C 
BRANCH  24  26
ATOM     25  C   UNL     1       6.672  12.033  23.341  0.00  0.00    +0.000 C 
ATOM     26  C   UNL     1       8.121  11.580  23.312  0.00  0.00    +0.000 C 
ENDBRANCH  24  26
ENDBRANCH  23  24
ENDBRANCH  22  23
ENDBRANCH  21  22
ENDBRANCH  20  21
ENDBRANCH  19  20
ENDBRANCH  18  19
ENDBRANCH  17  18
ENDBRANCH  16  17
ENDBRANCH  15  16
ENDBRANCH   1  15
TORSDOF 14
ENDMDL
MODEL 3
REMARK VINA RESULT:      -6.2      1.370      2.502
REMARK  Name = 
REMARK  15 active torsions:
REMARK  status: ('A' for Active; 'I' for Inactive)
REMARK    1  A    between atoms: C_1  and  C_2
REMARK    2  A    between atoms: C_2  and  C_3
REMARK    3  A    between atoms: C_3  and  C_4
REMARK    4  A    between atoms: C_4  and  C_5
REMARK    5  A    between atoms: C_5  and  C_6
REMARK    6  A    between atoms: C_6  and  C_7
REMARK    7  A    between atoms: C_7  and  C_8
REMARK    8  A    between atoms: C_8  and  C_9
REMARK    9  A    between atoms: C_9  and  C_10
REMARK   10  A    between atoms: C_10  and  C_11
REMARK   11  A    between atoms: C_11  and  C_12
REMARK   12  A    between atoms: C_12  and  C_13
REMARK   13  A    between atoms: C_13  and  C_14
REMARK   14  A    between atoms: N_16  and  N_17
REMARK   15  A    between atoms: C_18  and  C_19
REMARK                            x       y       z     vdW  Elec       q    Type
REMARK                         _______ _______ _______ _____ _____    ______ ____
ROOT
ATOM      1  C   UNL     1       6.546   5.869  17.838  0.00  0.00    +0.000 C 
ENDROOT
BRANCH   1   2
ATOM      2  C   UNL     1       7.662   6.730  18.403  0.00  0.00    +0.000 C 
ATOM      3  O   UNL     1       8.427   6.301  19.273  0.00  0.00    +0.000 OA
ATOM      4  N   UNL     1       7.745   8.014  17.881  0.00  0.00    +0.000 N 
ATOM      5  H   UNL     1       7.156   8.338  17.124  0.00  0.00    +0.000 HD
BRANCH   4   6
ATOM      6  N   UNL     1       8.734   8.814  18.363  0.00  0.00    +0.000 NA
ATOM      7  C   UNL     1       8.675  10.090  18.160  0.00  0.00    +0.000 C 
BRANCH   7   8
ATOM      8  C   UNL     1       9.776  10.971  18.659  0.00  0.00    +0.000 A 
ATOM      9  C   UNL     1      10.716  11.464  17.736  0.00  0.00    +0.000 A 
ATOM     10  C   UNL     1      11.743  12.321  18.148  0.00  0.00    +0.000 A 
ATOM     11  C   UNL     1      11.842  12.702  19.483  0.00  0.00    +0.000 A 
ATOM     12  C   UNL     1      10.927  12.206  20.413  0.00  0.00    +0.000 A 
ATOM     13  C   UNL     1       9.904  11.334  20.009  0.00  0.00    +0.000 A 
ATOM     14 CL   UNL     1       8.880  10.712  21.255  0.00  0.00    +0.000 Cl
ENDBRANCH   7   8
ENDBRANCH   4   6
ENDBRANCH   1   2
BRANCH   1  15
ATOM     15  C   UNL     1       5.573   6.723  17.006  0.00  0.00    +0.000 C 
BRANCH  15  16
ATOM     16  C   UNL     1       5.185   6.079  15.678  0.00  0.00    +0.000 C 
BRANCH  16  17
ATOM     17  C   UNL     1       4.941   4.579  15.855  0.00  0.00    +0.000 C 
BRANCH  17  18
ATOM     18  C   UNL     1       3.725   4.328  16.740  0.00  0.00    +0.000 C 
BRANCH  18  19
ATOM     19  C   UNL     1       3.940   3.101  17.615  0.00  0.00    +0.000 C 
BRANCH  19  20
ATOM     20  C   UNL     1       2.637   2.329  17.770  0.00  0.00    +0.000 C 
BRANCH  20  21
ATOM     21  C   UNL     1       2.649   1.526  19.062  0.00  0.00    +0.000 C 
BRANCH  21  22
ATOM     22  C   UNL     1       2.009   2.325  20.185  0.00  0.00    +0.000 C 
BRANCH  22  23
ATOM     23  C   UNL     1       0.954   3.271  19.627  0.00  0.00    +0.000 C 
BRANCH  23  24
ATOM     24  C   UNL     1       0.925   4.563  20.432  0.00  0.00    +0.000 C 
BRANCH  24  26
ATOM     25  C   UNL     1       2.468   6.282  19.473  0.00  0.00    +0.000 C 
ATOM     26  C   UNL     1       2.314   5.182  20.508  0.00  0.00    +0.000 C 
ENDBRANCH  24  26
ENDBRANCH  23  24
ENDBRANCH  22  23
ENDBRANCH  21  22
ENDBRANCH  20  21
ENDBRANCH  19  20
ENDBRANCH  18  19
ENDBRANCH  17  18
ENDBRANCH  16  17
ENDBRANCH  15  16
ENDBRANCH   1  15
TORSDOF 14
ENDMDL
MODEL 4
REMARK VINA RESULT:      -6.1      4.885      7.130
REMARK  Name = 
REMARK  15 active torsions:
REMARK  status: ('A' for Active; 'I' for Inactive)
REMARK    1  A    between atoms: C_1  and  C_2
REMARK    2  A    between atoms: C_2  and  C_3
REMARK    3  A    between atoms: C_3  and  C_4
REMARK    4  A    between atoms: C_4  and  C_5
REMARK    5  A    between atoms: C_5  and  C_6
REMARK    6  A    between atoms: C_6  and  C_7
REMARK    7  A    between atoms: C_7  and  C_8
REMARK    8  A    between atoms: C_8  and  C_9
REMARK    9  A    between atoms: C_9  and  C_10
REMARK   10  A    between atoms: C_10  and  C_11
REMARK   11  A    between atoms: C_11  and  C_12
REMARK   12  A    between atoms: C_12  and  C_13
REMARK   13  A    between atoms: C_13  and  C_14
REMARK   14  A    between atoms: N_16  and  N_17
REMARK   15  A    between atoms: C_18  and  C_19
REMARK                            x       y       z     vdW  Elec       q    Type
REMARK                         _______ _______ _______ _____ _____    ______ ____
ROOT
ATOM      1  C   UNL     1       1.998   2.465  21.315  0.00  0.00    +0.000 C 
ENDROOT
BRANCH   1   2
ATOM      2  C   UNL     1       1.401   3.753  20.774  0.00  0.00    +0.000 C 
ATOM      3  O   UNL     1       0.375   3.746  20.085  0.00  0.00    +0.000 OA
ATOM      4  N   UNL     1       2.093   4.912  21.099  0.00  0.00    +0.000 N 
ATOM      5  H   UNL     1       2.896   4.917  21.715  0.00  0.00    +0.000 HD
BRANCH   4   6
ATOM      6  N   UNL     1       1.586   6.085  20.631  0.00  0.00    +0.000 NA
ATOM      7  C   UNL     1       2.387   6.966  20.126  0.00  0.00    +0.000 C 
BRANCH   7   8
ATOM      8  C   UNL     1       1.840   8.271  19.641  0.00  0.00    +0.000 A 
ATOM      9  C   UNL     1       2.006   8.610  18.286  0.00  0.00    +0.000 A 
ATOM     10  C   UNL     1       1.481   9.802  17.776  0.00  0.00    +0.000 A 
ATOM     11  C   UNL     1       0.777  10.668  18.608  0.00  0.00    +0.000 A 
ATOM     12  C   UNL     1       0.619  10.353  19.958  0.00  0.00    +0.000 A 
ATOM     13  C   UNL     1       1.158   9.166  20.480  0.00  0.00    +0.000 A 
ATOM     14 CL   UNL     1       0.979   8.917  22.181  0.00  0.00    +0.000 Cl
ENDBRANCH   7   8
ENDBRANCH   4   6
ENDBRANCH   1   2
BRANCH   1  15
ATOM     15  C   UNL     1       2.933   1.824  20.275  0.00  0.00    +0.000 C 
BRANCH  15  16
ATOM     16  C   UNL     1       4.341   2.412  20.284  0.00  0.00    +0.000 C 
BRANCH  16  17
ATOM     17  C   UNL     1       4.679   3.030  18.925  0.00  0.00    +0.000 C 
BRANCH  17  18
ATOM     18  C   UNL     1       3.635   2.648  17.882  0.00  0.00    +0.000 C 
BRANCH  18  19
ATOM     19  C   UNL     1       2.935   3.888  17.341  0.00  0.00    +0.000 C 
BRANCH  19  20
ATOM     20  C   UNL     1       3.878   5.082  17.372  0.00  0.00    +0.000 C 
BRANCH  20  21
ATOM     21  C   UNL     1       4.705   5.135  16.097  0.00  0.00    +0.000 C 
BRANCH  21  22
ATOM     22  C   UNL     1       5.280   6.529  15.899  0.00  0.00    +0.000 C 
BRANCH  22  23
ATOM     23  C   UNL     1       5.697   7.122  17.238  0.00  0.00    +0.000 C 
BRANCH  23  24
ATOM     24  C   UNL     1       7.191   6.927  17.459  0.00  0.00    +0.000 C 
BRANCH  24  26
ATOM     25  C   UNL     1       7.816   4.526  17.779  0.00  0.00    +0.000 C 
ATOM     26  C   UNL     1       7.445   5.823  18.477  0.00  0.00    +0.000 C 
ENDBRANCH  24  26
ENDBRANCH  23  24
ENDBRANCH  22  23
ENDBRANCH  21  22
ENDBRANCH  20  21
ENDBRANCH  19  20
ENDBRANCH  18  19
ENDBRANCH  17  18
ENDBRANCH  16  17
ENDBRANCH  15  16
ENDBRANCH   1  15
TORSDOF 14
ENDMDL
MODEL 5
REMARK VINA RESULT:      -6.1      1.495      2.417
REMARK  Name = 
REMARK  15 active torsions:
REMARK  status: ('A' for Active; 'I' for Inactive)
REMARK    1  A    between atoms: C_1  and  C_2
REMARK    2  A    between atoms: C_2  and  C_3
REMARK    3  A    between atoms: C_3  and  C_4
REMARK    4  A    between atoms: C_4  and  C_5
REMARK    5  A    between atoms: C_5  and  C_6
REMARK    6  A    between atoms: C_6  and  C_7
REMARK    7  A    between atoms: C_7  and  C_8
REMARK    8  A    between atoms: C_8  and  C_9
REMARK    9  A    between atoms: C_9  and  C_10
REMARK   10  A    between atoms: C_10  and  C_11
REMARK   11  A    between atoms: C_11  and  C_12
REMARK   12  A    between atoms: C_12  and  C_13
REMARK   13  A    between atoms: C_13  and  C_14
REMARK   14  A    between atoms: N_16  and  N_17
REMARK   15  A    between atoms: C_18  and  C_19
REMARK                            x       y       z     vdW  Elec       q    Type
REMARK                         _______ _______ _______ _____ _____    ______ ____
ROOT
ATOM      1  C   UNL     1       6.422   6.220  17.166  0.00  0.00    +0.000 C 
ENDROOT
BRANCH   1   2
ATOM      2  C   UNL     1       7.514   6.986  17.893  0.00  0.00    +0.000 C 
ATOM      3  O   UNL     1       8.165   6.467  18.806  0.00  0.00    +0.000 OA
ATOM      4  N   UNL     1       7.711   8.292  17.464  0.00  0.00    +0.000 N 
ATOM      5  H   UNL     1       7.218   8.690  16.675  0.00  0.00    +0.000 HD
BRANCH   4   6
ATOM      6  N   UNL     1       8.683   9.009  18.092  0.00  0.00    +0.000 NA
ATOM      7  C   UNL     1       8.745  10.288  17.912  0.00  0.00    +0.000 C 
BRANCH   7   8
ATOM      8  C   UNL     1       9.830  11.076  18.573  0.00  0.00    +0.000 A 
ATOM      9  C   UNL     1      10.825  11.661  17.769  0.00  0.00    +0.000 A 
ATOM     10  C   UNL     1      11.841  12.438  18.336  0.00  0.00    +0.000 A 
ATOM     11  C   UNL     1      11.875  12.646  19.712  0.00  0.00    +0.000 A 
ATOM     12  C   UNL     1      10.905  12.058  20.525  0.00  0.00    +0.000 A 
ATOM     13  C   UNL     1       9.891  11.265  19.963  0.00  0.00    +0.000 A 
ATOM     14 CL   UNL     1       8.794  10.514  21.067  0.00  0.00    +0.000 Cl
ENDBRANCH   7   8
ENDBRANCH   4   6
ENDBRANCH   1   2
BRANCH   1  15
ATOM     15  C   UNL     1       5.274   7.164  16.768  0.00  0.00    +0.000 C 
BRANCH  15  16
ATOM     16  C   UNL     1       4.264   7.395  17.889  0.00  0.00    +0.000 C 
BRANCH  16  17
ATOM     17  C   UNL     1       3.040   6.495  17.708  0.00  0.00    +0.000 C 
BRANCH  17  18
ATOM     18  C   UNL     1       2.896   5.532  18.880  0.00  0.00    +0.000 C 
BRANCH  18  19
ATOM     19  C   UNL     1       4.262   5.157  19.440  0.00  0.00    +0.000 C 
BRANCH  19  20
ATOM     20  C   UNL     1       4.511   3.665  19.268  0.00  0.00    +0.000 C 
BRANCH  20  21
ATOM     21  C   UNL     1       3.881   3.170  17.975  0.00  0.00    +0.000 C 
BRANCH  21  22
ATOM     22  C   UNL     1       3.395   1.739  18.139  0.00  0.00    +0.000 C 
BRANCH  22  23
ATOM     23  C   UNL     1       2.364   1.657  19.257  0.00  0.00    +0.000 C 
BRANCH  23  24
ATOM     24  C   UNL     1       1.162   2.531  18.931  0.00  0.00    +0.000 C 
BRANCH  24  26
ATOM     25  C   UNL     1       1.548   2.954  21.366  0.00  0.00    +0.000 C 
ATOM     26  C   UNL     1       0.611   3.181  20.194  0.00  0.00    +0.000 C 
ENDBRANCH  24  26
ENDBRANCH  23  24
ENDBRANCH  22  23
ENDBRANCH  21  22
ENDBRANCH  20  21
ENDBRANCH  19  20
ENDBRANCH  18  19
ENDBRANCH  17  18
ENDBRANCH  16  17
ENDBRANCH  15  16
ENDBRANCH   1  15
TORSDOF 14
ENDMDL
MODEL 6
REMARK VINA RESULT:      -6.0      4.942      7.303
REMARK  Name = 
REMARK  15 active torsions:
REMARK  status: ('A' for Active; 'I' for Inactive)
REMARK    1  A    between atoms: C_1  and  C_2
REMARK    2  A    between atoms: C_2  and  C_3
REMARK    3  A    between atoms: C_3  and  C_4
REMARK    4  A    between atoms: C_4  and  C_5
REMARK    5  A    between atoms: C_5  and  C_6
REMARK    6  A    between atoms: C_6  and  C_7
REMARK    7  A    between atoms: C_7  and  C_8
REMARK    8  A    between atoms: C_8  and  C_9
REMARK    9  A    between atoms: C_9  and  C_10
REMARK   10  A    between atoms: C_10  and  C_11
REMARK   11  A    between atoms: C_11  and  C_12
REMARK   12  A    between atoms: C_12  and  C_13
REMARK   13  A    between atoms: C_13  and  C_14
REMARK   14  A    between atoms: N_16  and  N_17
REMARK   15  A    between atoms: C_18  and  C_19
REMARK                            x       y       z     vdW  Elec       q    Type
REMARK                         _______ _______ _______ _____ _____    ______ ____
ROOT
ATOM      1  C   UNL     1       2.707   2.994  21.275  0.00  0.00    +0.000 C 
ENDROOT
BRANCH   1   2
ATOM      2  C   UNL     1       1.785   4.131  20.872  0.00  0.00    +0.000 C 
ATOM      3  O   UNL     1       0.640   3.915  20.461  0.00  0.00    +0.000 OA
ATOM      4  N   UNL     1       2.325   5.405  20.989  0.00  0.00    +0.000 N 
ATOM      5  H   UNL     1       3.240   5.579  21.386  0.00  0.00    +0.000 HD
BRANCH   4   6
ATOM      6  N   UNL     1       1.526   6.449  20.638  0.00  0.00    +0.000 NA
ATOM      7  C   UNL     1       2.028   7.639  20.573  0.00  0.00    +0.000 C 
BRANCH   7   8
ATOM      8  C   UNL     1       1.148   8.796  20.220  0.00  0.00    +0.000 A 
ATOM      9  C   UNL     1       0.309   9.334  21.213  0.00  0.00    +0.000 A 
ATOM     10  C   UNL     1      -0.505  10.438  20.942  0.00  0.00    +0.000 A 
ATOM     11  C   UNL     1      -0.490  11.025  19.679  0.00  0.00    +0.000 A 
ATOM     12  C   UNL     1       0.324  10.491  18.679  0.00  0.00    +0.000 A 
ATOM     13  C   UNL     1       1.133   9.373  18.941  0.00  0.00    +0.000 A 
ATOM     14 CL   UNL     1       2.035   8.741  17.608  0.00  0.00    +0.000 Cl
ENDBRANCH   7   8
ENDBRANCH   4   6
ENDBRANCH   1   2
BRANCH   1  15
ATOM     15  C   UNL     1       4.025   3.060  20.482  0.00  0.00    +0.000 C 
BRANCH  15  16
ATOM     16  C   UNL     1       4.445   1.716  19.894  0.00  0.00    +0.000 C 
BRANCH  16  17
ATOM     17  C   UNL     1       3.567   1.351  18.696  0.00  0.00    +0.000 C 
BRANCH  17  18
ATOM     18  C   UNL     1       3.650   2.424  17.616  0.00  0.00    +0.000 C 
BRANCH  18  19
ATOM     19  C   UNL     1       2.324   3.163  17.488  0.00  0.00    +0.000 C 
BRANCH  19  20
ATOM     20  C   UNL     1       2.556   4.667  17.507  0.00  0.00    +0.000 C 
BRANCH  20  21
ATOM     21  C   UNL     1       3.995   4.985  17.132  0.00  0.00    +0.000 C 
BRANCH  21  22
ATOM     22  C   UNL     1       4.555   6.059  18.051  0.00  0.00    +0.000 C 
BRANCH  22  23
ATOM     23  C   UNL     1       5.301   7.110  17.242  0.00  0.00    +0.000 C 
BRANCH  23  24
ATOM     24  C   UNL     1       6.803   6.876  17.330  0.00  0.00    +0.000 C 
BRANCH  24  26
ATOM     25  C   UNL     1       7.684   4.585  17.814  0.00  0.00    +0.000 C 
ATOM     26  C   UNL     1       7.127   5.861  18.419  0.00  0.00    +0.000 C 
ENDBRANCH  24  26
ENDBRANCH  23  24
ENDBRANCH  22  23
ENDBRANCH  21  22
ENDBRANCH  20  21
ENDBRANCH  19  20
ENDBRANCH  18  19
ENDBRANCH  17  18
ENDBRANCH  16  17
ENDBRANCH  15  16
ENDBRANCH   1  15
TORSDOF 14
ENDMDL
MODEL 7
REMARK VINA RESULT:      -5.9      6.331      9.602
REMARK  Name = 
REMARK  15 active torsions:
REMARK  status: ('A' for Active; 'I' for Inactive)
REMARK    1  A    between atoms: C_1  and  C_2
REMARK    2  A    between atoms: C_2  and  C_3
REMARK    3  A    between atoms: C_3  and  C_4
REMARK    4  A    between atoms: C_4  and  C_5
REMARK    5  A    between atoms: C_5  and  C_6
REMARK    6  A    between atoms: C_6  and  C_7
REMARK    7  A    between atoms: C_7  and  C_8
REMARK    8  A    between atoms: C_8  and  C_9
REMARK    9  A    between atoms: C_9  and  C_10
REMARK   10  A    between atoms: C_10  and  C_11
REMARK   11  A    between atoms: C_11  and  C_12
REMARK   12  A    between atoms: C_12  and  C_13
REMARK   13  A    between atoms: C_13  and  C_14
REMARK   14  A    between atoms: N_16  and  N_17
REMARK   15  A    between atoms: C_18  and  C_19
REMARK                            x       y       z     vdW  Elec       q    Type
REMARK                         _______ _______ _______ _____ _____    ______ ____
ROOT
ATOM      1  C   UNL     1       0.995   9.834  20.625  0.00  0.00    +0.000 C 
ENDROOT
BRANCH   1   2
ATOM      2  C   UNL     1       1.538   8.637  19.864  0.00  0.00    +0.000 C 
ATOM      3  O   UNL     1       1.683   8.667  18.638  0.00  0.00    +0.000 OA
ATOM      4  N   UNL     1       1.840   7.526  20.640  0.00  0.00    +0.000 N 
ATOM      5  H   UNL     1       1.778   7.529  21.651  0.00  0.00    +0.000 HD
BRANCH   4   6
ATOM      6  N   UNL     1       2.330   6.434  19.992  0.00  0.00    +0.000 NA
ATOM      7  C   UNL     1       1.635   5.344  19.969  0.00  0.00    +0.000 C 
BRANCH   7   8
ATOM      8  C   UNL     1       2.183   4.132  19.286  0.00  0.00    +0.000 A 
ATOM      9  C   UNL     1       2.284   4.135  17.883  0.00  0.00    +0.000 A 
ATOM     10  C   UNL     1       2.825   3.040  17.201  0.00  0.00    +0.000 A 
ATOM     11  C   UNL     1       3.277   1.929  17.909  0.00  0.00    +0.000 A 
ATOM     12  C   UNL     1       3.167   1.905  19.300  0.00  0.00    +0.000 A 
ATOM     13  C   UNL     1       2.612   2.995  19.989  0.00  0.00    +0.000 A 
ATOM     14 CL   UNL     1       2.444   2.823  21.701  0.00  0.00    +0.000 Cl
ENDBRANCH   7   8
ENDBRANCH   4   6
ENDBRANCH   1   2
BRANCH   1  15
ATOM     15  C   UNL     1      -0.312   9.466  21.351  0.00  0.00    +0.000 C 
BRANCH  15  16
ATOM     16  C   UNL     1      -0.261   9.719  22.855  0.00  0.00    +0.000 C 
BRANCH  16  17
ATOM     17  C   UNL     1      -1.310  10.754  23.265  0.00  0.00    +0.000 C 
BRANCH  17  18
ATOM     18  C   UNL     1      -1.011  12.109  22.634  0.00  0.00    +0.000 C 
BRANCH  18  19
ATOM     19  C   UNL     1      -2.299  12.798  22.202  0.00  0.00    +0.000 C 
BRANCH  19  20
ATOM     20  C   UNL     1      -2.544  12.573  20.717  0.00  0.00    +0.000 C 
BRANCH  20  21
ATOM     21  C   UNL     1      -1.576  13.406  19.889  0.00  0.00    +0.000 C 
BRANCH  21  22
ATOM     22  C   UNL     1      -0.717  12.505  19.017  0.00  0.00    +0.000 C 
BRANCH  22  23
ATOM     23  C   UNL     1      -1.536  11.955  17.858  0.00  0.00    +0.000 C 
BRANCH  23  24
ATOM     24  C   UNL     1      -1.463  10.435  17.834  0.00  0.00    +0.000 C 
BRANCH  24  26
ATOM     25  C   UNL     1      -2.891   9.942  15.840  0.00  0.00    +0.000 C 
ATOM     26  C   UNL     1      -2.779   9.839  17.351  0.00  0.00    +0.000 C 
ENDBRANCH  24  26
ENDBRANCH  23  24
ENDBRANCH  22  23
ENDBRANCH  21  22
ENDBRANCH  20  21
ENDBRANCH  19  20
ENDBRANCH  18  19
ENDBRANCH  17  18
ENDBRANCH  16  17
ENDBRANCH  15  16
ENDBRANCH   1  15
TORSDOF 14
ENDMDL
MODEL 8
REMARK VINA RESULT:      -5.8      5.189      7.385
REMARK  Name = 
REMARK  15 active torsions:
REMARK  status: ('A' for Active; 'I' for Inactive)
REMARK    1  A    between atoms: C_1  and  C_2
REMARK    2  A    between atoms: C_2  and  C_3
REMARK    3  A    between atoms: C_3  and  C_4
REMARK    4  A    between atoms: C_4  and  C_5
REMARK    5  A    between atoms: C_5  and  C_6
REMARK    6  A    between atoms: C_6  and  C_7
REMARK    7  A    between atoms: C_7  and  C_8
REMARK    8  A    between atoms: C_8  and  C_9
REMARK    9  A    between atoms: C_9  and  C_10
REMARK   10  A    between atoms: C_10  and  C_11
REMARK   11  A    between atoms: C_11  and  C_12
REMARK   12  A    between atoms: C_12  and  C_13
REMARK   13  A    between atoms: C_13  and  C_14
REMARK   14  A    between atoms: N_16  and  N_17
REMARK   15  A    between atoms: C_18  and  C_19
REMARK                            x       y       z     vdW  Elec       q    Type
REMARK                         _______ _______ _______ _____ _____    ______ ____
ROOT
ATOM      1  C   UNL     1       3.010   8.046  17.488  0.00  0.00    +0.000 C 
ENDROOT
BRANCH   1   2
ATOM      2  C   UNL     1       2.032   8.408  18.593  0.00  0.00    +0.000 C 
ATOM      3  O   UNL     1       1.968   7.749  19.636  0.00  0.00    +0.000 OA
ATOM      4  N   UNL     1       1.225   9.508  18.336  0.00  0.00    +0.000 N 
ATOM      5  H   UNL     1       1.325  10.081  17.508  0.00  0.00    +0.000 HD
BRANCH   4   6
ATOM      6  N   UNL     1       0.336   9.862  19.305  0.00  0.00    +0.000 NA
ATOM      7  C   UNL     1       0.539  10.940  19.989  0.00  0.00    +0.000 C 
BRANCH   7   8
ATOM      8  C   UNL     1      -0.416  11.317  21.076  0.00  0.00    +0.000 A 
ATOM      9  C   UNL     1      -1.300  12.389  20.857  0.00  0.00    +0.000 A 
ATOM     10  C   UNL     1      -2.237  12.755  21.829  0.00  0.00    +0.000 A 
ATOM     11  C   UNL     1      -2.309  12.055  23.029  0.00  0.00    +0.000 A 
ATOM     12  C   UNL     1      -1.427  11.001  23.268  0.00  0.00    +0.000 A 
ATOM     13  C   UNL     1      -0.474  10.637  22.303  0.00  0.00    +0.000 A 
ATOM     14 CL   UNL     1       0.626   9.376  22.737  0.00  0.00    +0.000 Cl
ENDBRANCH   7   8
ENDBRANCH   4   6
ENDBRANCH   1   2
BRANCH   1  15
ATOM     15  C   UNL     1       3.897   6.864  17.918  0.00  0.00    +0.000 C 
BRANCH  15  16
ATOM     16  C   UNL     1       5.285   6.888  17.285  0.00  0.00    +0.000 C 
BRANCH  16  17
ATOM     17  C   UNL     1       5.263   6.228  15.905  0.00  0.00    +0.000 C 
BRANCH  17  18
ATOM     18  C   UNL     1       6.428   5.258  15.749  0.00  0.00    +0.000 C 
BRANCH  18  19
ATOM     19  C   UNL     1       5.972   3.825  15.988  0.00  0.00    +0.000 C 
BRANCH  19  20
ATOM     20  C   UNL     1       4.459   3.771  16.139  0.00  0.00    +0.000 C 
BRANCH  20  21
ATOM     21  C   UNL     1       4.083   3.191  17.494  0.00  0.00    +0.000 C 
BRANCH  21  22
ATOM     22  C   UNL     1       2.605   3.415  17.771  0.00  0.00    +0.000 C 
BRANCH  22  23
ATOM     23  C   UNL     1       2.061   2.308  18.664  0.00  0.00    +0.000 C 
BRANCH  23  24
ATOM     24  C   UNL     1       0.793   2.772  19.366  0.00  0.00    +0.000 C 
BRANCH  24  26
ATOM     25  C   UNL     1       2.145   2.826  21.470  0.00  0.00    +0.000 C 
ATOM     26  C   UNL     1       1.131   3.569  20.619  0.00  0.00    +0.000 C 
ENDBRANCH  24  26
ENDBRANCH  23  24
ENDBRANCH  22  23
ENDBRANCH  21  22
ENDBRANCH  20  21
ENDBRANCH  19  20
ENDBRANCH  18  19
ENDBRANCH  17  18
ENDBRANCH  16  17
ENDBRANCH  15  16
ENDBRANCH   1  15
TORSDOF 14
ENDMDL
MODEL 9
REMARK VINA RESULT:      -5.8      5.902      7.627
REMARK  Name = 
REMARK  15 active torsions:
REMARK  status: ('A' for Active; 'I' for Inactive)
REMARK    1  A    between atoms: C_1  and  C_2
REMARK    2  A    between atoms: C_2  and  C_3
REMARK    3  A    between atoms: C_3  and  C_4
REMARK    4  A    between atoms: C_4  and  C_5
REMARK    5  A    between atoms: C_5  and  C_6
REMARK    6  A    between atoms: C_6  and  C_7
REMARK    7  A    between atoms: C_7  and  C_8
REMARK    8  A    between atoms: C_8  and  C_9
REMARK    9  A    between atoms: C_9  and  C_10
REMARK   10  A    between atoms: C_10  and  C_11
REMARK   11  A    between atoms: C_11  and  C_12
REMARK   12  A    between atoms: C_12  and  C_13
REMARK   13  A    between atoms: C_13  and  C_14
REMARK   14  A    between atoms: N_16  and  N_17
REMARK   15  A    between atoms: C_18  and  C_19
REMARK                            x       y       z     vdW  Elec       q    Type
REMARK                         _______ _______ _______ _____ _____    ______ ____
ROOT
ATOM      1  C   UNL     1       2.560   5.836  19.891  0.00  0.00    +0.000 C 
ENDROOT
BRANCH   1   2
ATOM      2  C   UNL     1       2.179   7.295  19.709  0.00  0.00    +0.000 C 
ATOM      3  O   UNL     1       2.478   7.914  18.682  0.00  0.00    +0.000 OA
ATOM      4  N   UNL     1       1.494   7.869  20.771  0.00  0.00    +0.000 N 
ATOM      5  H   UNL     1       1.197   7.340  21.582  0.00  0.00    +0.000 HD
BRANCH   4   6
ATOM      6  N   UNL     1       1.135   9.175  20.642  0.00  0.00    +0.000 NA
ATOM      7  C   UNL     1      -0.095   9.519  20.845  0.00  0.00    +0.000 C 
BRANCH   7   8
ATOM      8  C   UNL     1      -0.501  10.948  20.673  0.00  0.00    +0.000 A 
ATOM      9  C   UNL     1      -0.209  11.591  19.456  0.00  0.00    +0.000 A 
ATOM     10  C   UNL     1      -0.600  12.915  19.232  0.00  0.00    +0.000 A 
ATOM     11  C   UNL     1      -1.294  13.614  20.216  0.00  0.00    +0.000 A 
ATOM     12  C   UNL     1      -1.576  12.995  21.435  0.00  0.00    +0.000 A 
ATOM     13  C   UNL     1      -1.172  11.672  21.671  0.00  0.00    +0.000 A 
ATOM     14 CL   UNL     1      -1.495  11.033  23.245  0.00  0.00    +0.000 Cl
ENDBRANCH   7   8
ENDBRANCH   4   6
ENDBRANCH   1   2
BRANCH   1  15
ATOM     15  C   UNL     1       1.506   5.106  20.743  0.00  0.00    +0.000 C 
BRANCH  15  16
ATOM     16  C   UNL     1       1.768   3.609  20.878  0.00  0.00    +0.000 C 
BRANCH  16  17
ATOM     17  C   UNL     1       0.805   2.809  19.998  0.00  0.00    +0.000 C 
BRANCH  17  18
ATOM     18  C   UNL     1       1.427   2.517  18.638  0.00  0.00    +0.000 C 
BRANCH  18  19
ATOM     19  C   UNL     1       2.781   1.838  18.800  0.00  0.00    +0.000 C 
BRANCH  19  20
ATOM     20  C   UNL     1       3.884   2.717  18.227  0.00  0.00    +0.000 C 
BRANCH  20  21
ATOM     21  C   UNL     1       3.323   3.632  17.149  0.00  0.00    +0.000 C 
BRANCH  21  22
ATOM     22  C   UNL     1       4.284   4.779  16.879  0.00  0.00    +0.000 C 
BRANCH  22  23
ATOM     23  C   UNL     1       5.662   4.455  17.438  0.00  0.00    +0.000 C 
BRANCH  23  24
ATOM     24  C   UNL     1       6.677   4.345  16.310  0.00  0.00    +0.000 C 
BRANCH  24  26
ATOM     25  C   UNL     1       7.030   4.830  13.881  0.00  0.00    +0.000 C 
ATOM     26  C   UNL     1       6.002   4.529  14.957  0.00  0.00    +0.000 C 
ENDBRANCH  24  26
ENDBRANCH  23  24
ENDBRANCH  22  23
ENDBRANCH  21  22
ENDBRANCH  20  21
ENDBRANCH  19  20
ENDBRANCH  18  19
ENDBRANCH  17  18
ENDBRANCH  16  17
ENDBRANCH  15  16
ENDBRANCH   1  15
TORSDOF 14
ENDMDL
