MODEL 1
REMARK VINA RESULT:      -7.9      0.000      0.000
REMARK  Name = 
REMARK  7 active torsions:
REMARK  status: ('A' for Active; 'I' for Inactive)
REMARK    1  A    between atoms: C_1  and  C_2
REMARK    2  A    between atoms: C_2  and  C_3
REMARK    3  A    between atoms: C_3  and  C_4
REMARK    4  A    between atoms: C_4  and  C_5
REMARK    5  A    between atoms: C_5  and  C_6
REMARK    6  A    between atoms: N_11  and  S_12
REMARK    7  A    between atoms: S_12  and  C_15
REMARK                            x       y       z     vdW  Elec       q    Type
REMARK                         _______ _______ _______ _____ _____    ______ ____
ROOT
ATOM      1  C   UNL     1       6.990   6.275  17.028  0.00  0.00    +0.000 C 
ATOM      2  O   UNL     1       7.424   6.219  15.878  0.00  0.00    +0.000 OA
ATOM      3  N   UNL     1       5.906   5.522  17.445  0.00  0.00    +0.000 N 
ATOM      4  C   UNL     1       5.317   4.557  16.511  0.00  0.00    +0.000 C 
ATOM      5  C   UNL     1       5.030   3.214  17.205  0.00  0.00    +0.000 C 
ATOM      6  N   UNL     1       4.219   3.388  18.457  0.00  0.00    +0.000 NA
ATOM      7  C   UNL     1       4.928   4.339  19.385  0.00  0.00    +0.000 C 
ATOM      8  C   UNL     1       5.178   5.697  18.714  0.00  0.00    +0.000 C 
ENDROOT
BRANCH   6   9
ATOM      9  S   UNL     1       2.547   3.702  18.241  0.00  0.00    +0.000 S 
ATOM     10  O   UNL     1       2.282   3.709  16.817  0.00  0.00    +0.000 OA
ATOM     11  O   UNL     1       1.799   2.833  19.116  0.00  0.00    +0.000 OA
BRANCH   9  12
ATOM     12  C   UNL     1       2.336   5.372  18.826  0.00  0.00    +0.000 A 
ATOM     13  C   UNL     1       2.083   5.621  20.180  0.00  0.00    +0.000 A 
ATOM     14  C   UNL     1       1.800   6.924  20.603  0.00  0.00    +0.000 A 
ATOM     15  C   UNL     1       1.782   7.968  19.680  0.00  0.00    +0.000 A 
ATOM     16  C   UNL     1       2.073   7.718  18.330  0.00  0.00    +0.000 A 
ATOM     17  C   UNL     1       2.318   6.417  17.891  0.00  0.00    +0.000 A 
ATOM     18  O   UNL     1       2.114   8.710  17.383  0.00  0.00    +0.000 OA
ATOM     19  C   UNL     1       2.188  10.005  17.990  0.00  0.00    +0.000 C 
ATOM     20  C   UNL     1       1.162  10.129  19.105  0.00  0.00    +0.000 C 
ATOM     21  O   UNL     1       1.468   9.214  20.164  0.00  0.00    +0.000 OA
ENDBRANCH   9  12
ENDBRANCH   6   9
BRANCH   1  22
ATOM     22  C   UNL     1       7.663   7.124  18.091  0.00  0.00    +0.000 C 
BRANCH  22  23
ATOM     23  C   UNL     1       7.879   8.557  17.623  0.00  0.00    +0.000 C 
BRANCH  23  24
ATOM     24  C   UNL     1       8.757   9.325  18.608  0.00  0.00    +0.000 C 
BRANCH  24  26
ATOM     25  C   UNL     1      10.214  11.262  17.938  0.00  0.00    +0.000 C 
ATOM     26  C   UNL     1       8.799  10.809  18.253  0.00  0.00    +0.000 C 
ENDBRANCH  24  26
ENDBRANCH  23  24
ENDBRANCH  22  23
ENDBRANCH   1  22
TORSDOF 6
ENDMDL
MODEL 2
REMARK VINA RESULT:      -7.8      5.210      8.303
REMARK  Name = 
REMARK  7 active torsions:
REMARK  status: ('A' for Active; 'I' for Inactive)
REMARK    1  A    between atoms: C_1  and  C_2
REMARK    2  A    between atoms: C_2  and  C_3
REMARK    3  A    between atoms: C_3  and  C_4
REMARK    4  A    between atoms: C_4  and  C_5
REMARK    5  A    between atoms: C_5  and  C_6
REMARK    6  A    between atoms: N_11  and  S_12
REMARK    7  A    between atoms: S_12  and  C_15
REMARK                            x       y       z     vdW  Elec       q    Type
REMARK                         _______ _______ _______ _____ _____    ______ ____
ROOT
ATOM      1  C   UNL     1       2.372   7.931  18.403  0.00  0.00    +0.000 C 
ATOM      2  O   UNL     1       2.591   8.422  17.297  0.00  0.00    +0.000 OA
ATOM      3  N   UNL     1       1.636   8.594  19.371  0.00  0.00    +0.000 N 
ATOM      4  C   UNL     1       1.020   9.880  19.030  0.00  0.00    +0.000 C 
ATOM      5  C   UNL     1      -0.429   9.956  19.542  0.00  0.00    +0.000 C 
ATOM      6  N   UNL     1      -0.529   9.627  21.004  0.00  0.00    +0.000 NA
ATOM      7  C   UNL     1       0.064   8.265  21.252  0.00  0.00    +0.000 C 
ATOM      8  C   UNL     1       1.525   8.195  20.785  0.00  0.00    +0.000 C 
ENDROOT
BRANCH   6   9
ATOM      9  S   UNL     1      -0.017  10.848  22.094  0.00  0.00    +0.000 S 
ATOM     10  O   UNL     1       0.124  10.239  23.401  0.00  0.00    +0.000 OA
ATOM     11  O   UNL     1       1.086  11.562  21.499  0.00  0.00    +0.000 OA
BRANCH   9  12
ATOM     12  C   UNL     1      -1.403  11.966  22.179  0.00  0.00    +0.000 A 
ATOM     13  C   UNL     1      -1.410  13.143  21.423  0.00  0.00    +0.000 A 
ATOM     14  C   UNL     1      -2.446  14.068  21.592  0.00  0.00    +0.000 A 
ATOM     15  C   UNL     1      -3.470  13.810  22.501  0.00  0.00    +0.000 A 
ATOM     16  C   UNL     1      -3.477  12.610  23.229  0.00  0.00    +0.000 A 
ATOM     17  C   UNL     1      -2.429  11.699  23.097  0.00  0.00    +0.000 A 
ATOM     18  O   UNL     1      -4.480  12.279  24.106  0.00  0.00    +0.000 OA
ATOM     19  C   UNL     1      -5.636  13.099  23.906  0.00  0.00    +0.000 C 
ATOM     20  C   UNL     1      -5.239  14.563  23.801  0.00  0.00    +0.000 C 
ATOM     21  O   UNL     1      -4.436  14.776  22.634  0.00  0.00    +0.000 OA
ENDBRANCH   9  12
ENDBRANCH   6   9
BRANCH   1  22
ATOM     22  C   UNL     1       2.835   6.530  18.757  0.00  0.00    +0.000 C 
BRANCH  22  23
ATOM     23  C   UNL     1       1.943   5.462  18.137  0.00  0.00    +0.000 C 
BRANCH  23  24
ATOM     24  C   UNL     1       1.994   4.171  18.950  0.00  0.00    +0.000 C 
BRANCH  24  26
ATOM     25  C   UNL     1       1.613   3.251  21.260  0.00  0.00    +0.000 C 
ATOM     26  C   UNL     1       1.225   4.326  20.260  0.00  0.00    +0.000 C 
ENDBRANCH  24  26
ENDBRANCH  23  24
ENDBRANCH  22  23
ENDBRANCH   1  22
TORSDOF 6
ENDMDL
MODEL 3
REMARK VINA RESULT:      -7.7      3.732      6.381
REMARK  Name = 
REMARK  7 active torsions:
REMARK  status: ('A' for Active; 'I' for Inactive)
REMARK    1  A    between atoms: C_1  and  C_2
REMARK    2  A    between atoms: C_2  and  C_3
REMARK    3  A    between atoms: C_3  and  C_4
REMARK    4  A    between atoms: C_4  and  C_5
REMARK    5  A    between atoms: C_5  and  C_6
REMARK    6  A    between atoms: N_11  and  S_12
REMARK    7  A    between atoms: S_12  and  C_15
REMARK                            x       y       z     vdW  Elec       q    Type
REMARK                         _______ _______ _______ _____ _____    ______ ____
ROOT
ATOM      1  C   UNL     1       6.044   3.576  12.739  0.00  0.00    +0.000 C 
ATOM      2  O   UNL     1       6.959   3.469  11.924  0.00  0.00    +0.000 OA
ATOM      3  N   UNL     1       6.229   4.157  13.982  0.00  0.00    +0.000 N 
ATOM      4  C   UNL     1       7.534   4.747  14.297  0.00  0.00    +0.000 C 
ATOM      5  C   UNL     1       7.375   6.118  14.977  0.00  0.00    +0.000 C 
ATOM      6  N   UNL     1       6.458   6.056  16.165  0.00  0.00    +0.000 NA
ATOM      7  C   UNL     1       5.124   5.504  15.738  0.00  0.00    +0.000 C 
ATOM      8  C   UNL     1       5.269   4.115  15.099  0.00  0.00    +0.000 C 
ENDROOT
BRANCH   6   9
ATOM      9  S   UNL     1       7.107   5.358  17.590  0.00  0.00    +0.000 S 
ATOM     10  O   UNL     1       7.857   4.181  17.201  0.00  0.00    +0.000 OA
ATOM     11  O   UNL     1       7.735   6.398  18.367  0.00  0.00    +0.000 OA
BRANCH   9  12
ATOM     12  C   UNL     1       5.676   4.797  18.492  0.00  0.00    +0.000 A 
ATOM     13  C   UNL     1       5.483   3.432  18.735  0.00  0.00    +0.000 A 
ATOM     14  C   UNL     1       4.298   2.997  19.337  0.00  0.00    +0.000 A 
ATOM     15  C   UNL     1       3.321   3.922  19.702  0.00  0.00    +0.000 A 
ATOM     16  C   UNL     1       3.537   5.292  19.490  0.00  0.00    +0.000 A 
ATOM     17  C   UNL     1       4.697   5.733  18.855  0.00  0.00    +0.000 A 
ATOM     18  O   UNL     1       2.632   6.253  19.867  0.00  0.00    +0.000 OA
ATOM     19  C   UNL     1       1.672   5.729  20.790  0.00  0.00    +0.000 C 
ATOM     20  C   UNL     1       1.128   4.398  20.294  0.00  0.00    +0.000 C 
ATOM     21  O   UNL     1       2.172   3.418  20.261  0.00  0.00    +0.000 OA
ENDBRANCH   9  12
ENDBRANCH   6   9
BRANCH   1  22
ATOM     22  C   UNL     1       4.628   3.142  12.408  0.00  0.00    +0.000 C 
BRANCH  22  23
ATOM     23  C   UNL     1       4.364   3.159  10.908  0.00  0.00    +0.000 C 
BRANCH  23  24
ATOM     24  C   UNL     1       3.252   4.146  10.562  0.00  0.00    +0.000 C 
BRANCH  24  26
ATOM     25  C   UNL     1       2.126   5.281   8.619  0.00  0.00    +0.000 C 
ATOM     26  C   UNL     1       2.878   4.046   9.085  0.00  0.00    +0.000 C 
ENDBRANCH  24  26
ENDBRANCH  23  24
ENDBRANCH  22  23
ENDBRANCH   1  22
TORSDOF 6
ENDMDL
MODEL 4
REMARK VINA RESULT:      -7.6      2.747      6.720
REMARK  Name = 
REMARK  7 active torsions:
REMARK  status: ('A' for Active; 'I' for Inactive)
REMARK    1  A    between atoms: C_1  and  C_2
REMARK    2  A    between atoms: C_2  and  C_3
REMARK    3  A    between atoms: C_3  and  C_4
REMARK    4  A    between atoms: C_4  and  C_5
REMARK    5  A    between atoms: C_5  and  C_6
REMARK    6  A    between atoms: N_11  and  S_12
REMARK    7  A    between atoms: S_12  and  C_15
REMARK                            x       y       z     vdW  Elec       q    Type
REMARK                         _______ _______ _______ _____ _____    ______ ____
ROOT
ATOM      1  C   UNL     1       1.346   8.158  20.268  0.00  0.00    +0.000 C 
ATOM      2  O   UNL     1       0.651   8.184  21.283  0.00  0.00    +0.000 OA
ATOM      3  N   UNL     1       2.007   7.014  19.856  0.00  0.00    +0.000 N 
ATOM      4  C   UNL     1       1.794   5.769  20.602  0.00  0.00    +0.000 C 
ATOM      5  C   UNL     1       1.578   4.580  19.651  0.00  0.00    +0.000 C 
ATOM      6  N   UNL     1       2.673   4.470  18.628  0.00  0.00    +0.000 NA
ATOM      7  C   UNL     1       2.777   5.764  17.865  0.00  0.00    +0.000 C 
ATOM      8  C   UNL     1       3.037   6.950  18.804  0.00  0.00    +0.000 C 
ENDROOT
BRANCH   6   9
ATOM      9  S   UNL     1       4.167   3.835  19.181  0.00  0.00    +0.000 S 
ATOM     10  O   UNL     1       4.592   4.632  20.313  0.00  0.00    +0.000 OA
ATOM     11  O   UNL     1       4.041   2.403  19.305  0.00  0.00    +0.000 OA
BRANCH   9  12
ATOM     12  C   UNL     1       5.302   4.165  17.847  0.00  0.00    +0.000 A 
ATOM     13  C   UNL     1       6.499   4.850  18.089  0.00  0.00    +0.000 A 
ATOM     14  C   UNL     1       7.321   5.208  17.015  0.00  0.00    +0.000 A 
ATOM     15  C   UNL     1       6.952   4.873  15.713  0.00  0.00    +0.000 A 
ATOM     16  C   UNL     1       5.771   4.154  15.481  0.00  0.00    +0.000 A 
ATOM     17  C   UNL     1       4.924   3.826  16.540  0.00  0.00    +0.000 A 
ATOM     18  O   UNL     1       5.377   3.758  14.227  0.00  0.00    +0.000 OA
ATOM     19  C   UNL     1       6.458   3.842  13.292  0.00  0.00    +0.000 C 
ATOM     20  C   UNL     1       7.172   5.178  13.423  0.00  0.00    +0.000 C 
ATOM     21  O   UNL     1       7.794   5.283  14.709  0.00  0.00    +0.000 OA
ENDBRANCH   9  12
ENDBRANCH   6   9
BRANCH   1  22
ATOM     22  C   UNL     1       1.467   9.365  19.356  0.00  0.00    +0.000 C 
BRANCH  22  23
ATOM     23  C   UNL     1       0.701  10.567  19.896  0.00  0.00    +0.000 C 
BRANCH  23  24
ATOM     24  C   UNL     1      -0.241  11.131  18.837  0.00  0.00    +0.000 C 
BRANCH  24  26
ATOM     25  C   UNL     1      -1.885  10.110  17.230  0.00  0.00    +0.000 C 
ATOM     26  C   UNL     1      -1.478  10.248  18.687  0.00  0.00    +0.000 C 
ENDBRANCH  24  26
ENDBRANCH  23  24
ENDBRANCH  22  23
ENDBRANCH   1  22
TORSDOF 6
ENDMDL
MODEL 5
REMARK VINA RESULT:      -7.6      5.386      8.409
REMARK  Name = 
REMARK  7 active torsions:
REMARK  status: ('A' for Active; 'I' for Inactive)
REMARK    1  A    between atoms: C_1  and  C_2
REMARK    2  A    between atoms: C_2  and  C_3
REMARK    3  A    between atoms: C_3  and  C_4
REMARK    4  A    between atoms: C_4  and  C_5
REMARK    5  A    between atoms: C_5  and  C_6
REMARK    6  A    between atoms: N_11  and  S_12
REMARK    7  A    between atoms: S_12  and  C_15
REMARK                            x       y       z     vdW  Elec       q    Type
REMARK                         _______ _______ _______ _____ _____    ______ ____
ROOT
ATOM      1  C   UNL     1       2.277   8.125  18.524  0.00  0.00    +0.000 C 
ATOM      2  O   UNL     1       2.494   8.593  17.408  0.00  0.00    +0.000 OA
ATOM      3  N   UNL     1       1.512   8.790  19.467  0.00  0.00    +0.000 N 
ATOM      4  C   UNL     1       0.861  10.048  19.086  0.00  0.00    +0.000 C 
ATOM      5  C   UNL     1      -0.595  10.093  19.582  0.00  0.00    +0.000 C 
ATOM      6  N   UNL     1      -0.700   9.800  21.051  0.00  0.00    +0.000 NA
ATOM      7  C   UNL     1      -0.070   8.463  21.341  0.00  0.00    +0.000 C 
ATOM      8  C   UNL     1       1.397   8.425  20.890  0.00  0.00    +0.000 C 
ENDROOT
BRANCH   6   9
ATOM      9  S   UNL     1      -0.236  11.063  22.114  0.00  0.00    +0.000 S 
ATOM     10  O   UNL     1      -0.081  10.491  23.436  0.00  0.00    +0.000 OA
ATOM     11  O   UNL     1       0.845  11.800  21.508  0.00  0.00    +0.000 OA
BRANCH   9  12
ATOM     12  C   UNL     1      -1.659  12.135  22.166  0.00  0.00    +0.000 A 
ATOM     13  C   UNL     1      -1.708  13.287  21.373  0.00  0.00    +0.000 A 
ATOM     14  C   UNL     1      -2.775  14.180  21.514  0.00  0.00    +0.000 A 
ATOM     15  C   UNL     1      -3.789  13.915  22.433  0.00  0.00    +0.000 A 
ATOM     16  C   UNL     1      -3.754  12.740  23.198  0.00  0.00    +0.000 A 
ATOM     17  C   UNL     1      -2.675  11.862  23.094  0.00  0.00    +0.000 A 
ATOM     18  O   UNL     1      -4.744  12.403  24.087  0.00  0.00    +0.000 OA
ATOM     19  C   UNL     1      -5.928  13.175  23.862  0.00  0.00    +0.000 C 
ATOM     20  C   UNL     1      -5.582  14.648  23.710  0.00  0.00    +0.000 C 
ATOM     21  O   UNL     1      -4.788  14.852  22.536  0.00  0.00    +0.000 OA
ENDBRANCH   9  12
ENDBRANCH   6   9
BRANCH   1  22
ATOM     22  C   UNL     1       2.777   6.747  18.919  0.00  0.00    +0.000 C 
BRANCH  22  23
ATOM     23  C   UNL     1       2.209   5.656  18.021  0.00  0.00    +0.000 C 
BRANCH  23  24
ATOM     24  C   UNL     1       1.853   4.414  18.834  0.00  0.00    +0.000 C 
BRANCH  24  26
ATOM     25  C   UNL     1       3.372   2.912  17.505  0.00  0.00    +0.000 C 
ATOM     26  C   UNL     1       1.947   3.158  17.971  0.00  0.00    +0.000 C 
ENDBRANCH  24  26
ENDBRANCH  23  24
ENDBRANCH  22  23
ENDBRANCH   1  22
TORSDOF 6
ENDMDL
MODEL 6
REMARK VINA RESULT:      -7.5      2.720      4.843
REMARK  Name = 
REMARK  7 active torsions:
REMARK  status: ('A' for Active; 'I' for Inactive)
REMARK    1  A    between atoms: C_1  and  C_2
REMARK    2  A    between atoms: C_2  and  C_3
REMARK    3  A    between atoms: C_3  and  C_4
REMARK    4  A    between atoms: C_4  and  C_5
REMARK    5  A    between atoms: C_5  and  C_6
REMARK    6  A    between atoms: N_11  and  S_12
REMARK    7  A    between atoms: S_12  and  C_15
REMARK                            x       y       z     vdW  Elec       q    Type
REMARK                         _______ _______ _______ _____ _____    ______ ____
ROOT
ATOM      1  C   UNL     1       7.117   4.543  16.033  0.00  0.00    +0.000 C 
ATOM      2  O   UNL     1       8.021   3.914  16.581  0.00  0.00    +0.000 OA
ATOM      3  N   UNL     1       6.080   5.118  16.749  0.00  0.00    +0.000 N 
ATOM      4  C   UNL     1       6.114   5.054  18.213  0.00  0.00    +0.000 C 
ATOM      5  C   UNL     1       5.742   6.410  18.838  0.00  0.00    +0.000 C 
ATOM      6  N   UNL     1       4.442   6.940  18.304  0.00  0.00    +0.000 NA
ATOM      7  C   UNL     1       4.520   7.037  16.804  0.00  0.00    +0.000 C 
ATOM      8  C   UNL     1       4.846   5.678  16.169  0.00  0.00    +0.000 C 
ENDROOT
BRANCH   6   9
ATOM      9  S   UNL     1       3.016   6.203  18.908  0.00  0.00    +0.000 S 
ATOM     10  O   UNL     1       2.352   5.555  17.796  0.00  0.00    +0.000 OA
ATOM     11  O   UNL     1       3.353   5.453  20.093  0.00  0.00    +0.000 OA
BRANCH   9  12
ATOM     12  C   UNL     1       1.994   7.575  19.408  0.00  0.00    +0.000 A 
ATOM     13  C   UNL     1       1.648   8.572  18.489  0.00  0.00    +0.000 A 
ATOM     14  C   UNL     1       0.948   9.702  18.923  0.00  0.00    +0.000 A 
ATOM     15  C   UNL     1       0.589   9.826  20.264  0.00  0.00    +0.000 A 
ATOM     16  C   UNL     1       0.905   8.806  21.174  0.00  0.00    +0.000 A 
ATOM     17  C   UNL     1       1.637   7.693  20.759  0.00  0.00    +0.000 A 
ATOM     18  O   UNL     1       0.541   8.851  22.496  0.00  0.00    +0.000 OA
ATOM     19  C   UNL     1      -0.472   9.837  22.723  0.00  0.00    +0.000 C 
ATOM     20  C   UNL     1      -0.100  11.146  22.044  0.00  0.00    +0.000 C 
ATOM     21  O   UNL     1      -0.071  10.976  20.622  0.00  0.00    +0.000 OA
ENDBRANCH   9  12
ENDBRANCH   6   9
BRANCH   1  22
ATOM     22  C   UNL     1       7.117   4.794  14.537  0.00  0.00    +0.000 C 
BRANCH  22  23
ATOM     23  C   UNL     1       6.113   3.909  13.810  0.00  0.00    +0.000 C 
BRANCH  23  24
ATOM     24  C   UNL     1       6.543   3.671  12.365  0.00  0.00    +0.000 C 
BRANCH  24  26
ATOM     25  C   UNL     1       4.305   3.170  11.331  0.00  0.00    +0.000 C 
ATOM     26  C   UNL     1       5.665   2.609  11.708  0.00  0.00    +0.000 C 
ENDBRANCH  24  26
ENDBRANCH  23  24
ENDBRANCH  22  23
ENDBRANCH   1  22
TORSDOF 6
ENDMDL
MODEL 7
REMARK VINA RESULT:      -7.5      5.329      7.992
REMARK  Name = 
REMARK  7 active torsions:
REMARK  status: ('A' for Active; 'I' for Inactive)
REMARK    1  A    between atoms: C_1  and  C_2
REMARK    2  A    between atoms: C_2  and  C_3
REMARK    3  A    between atoms: C_3  and  C_4
REMARK    4  A    between atoms: C_4  and  C_5
REMARK    5  A    between atoms: C_5  and  C_6
REMARK    6  A    between atoms: N_11  and  S_12
REMARK    7  A    between atoms: S_12  and  C_15
REMARK                            x       y       z     vdW  Elec       q    Type
REMARK                         _______ _______ _______ _____ _____    ______ ____
ROOT
ATOM      1  C   UNL     1       2.176   8.337  18.247  0.00  0.00    +0.000 C 
ATOM      2  O   UNL     1       2.341   8.909  17.171  0.00  0.00    +0.000 OA
ATOM      3  N   UNL     1       1.461   8.911  19.284  0.00  0.00    +0.000 N 
ATOM      4  C   UNL     1       0.799  10.200  19.057  0.00  0.00    +0.000 C 
ATOM      5  C   UNL     1      -0.631  10.199  19.625  0.00  0.00    +0.000 C 
ATOM      6  N   UNL     1      -0.667   9.767  21.063  0.00  0.00    +0.000 NA
ATOM      7  C   UNL     1      -0.031   8.409  21.194  0.00  0.00    +0.000 C 
ATOM      8  C   UNL     1       1.413   8.412  20.671  0.00  0.00    +0.000 C 
ENDROOT
BRANCH   6   9
ATOM      9  S   UNL     1      -0.145  10.924  22.217  0.00  0.00    +0.000 S 
ATOM     10  O   UNL     1      -0.080  10.262  23.504  0.00  0.00    +0.000 OA
ATOM     11  O   UNL     1       1.009  11.610  21.691  0.00  0.00    +0.000 OA
BRANCH   9  12
ATOM     12  C   UNL     1      -1.484  12.097  22.295  0.00  0.00    +0.000 A 
ATOM     13  C   UNL     1      -1.389  13.326  21.631  0.00  0.00    +0.000 A 
ATOM     14  C   UNL     1      -2.393  14.285  21.799  0.00  0.00    +0.000 A 
ATOM     15  C   UNL     1      -3.487  14.010  22.618  0.00  0.00    +0.000 A 
ATOM     16  C   UNL     1      -3.597  12.763  23.251  0.00  0.00    +0.000 A 
ATOM     17  C   UNL     1      -2.582  11.815  23.121  0.00  0.00    +0.000 A 
ATOM     18  O   UNL     1      -4.671  12.418  24.033  0.00  0.00    +0.000 OA
ATOM     19  C   UNL     1      -5.774  13.305  23.819  0.00  0.00    +0.000 C 
ATOM     20  C   UNL     1      -5.308  14.752  23.851  0.00  0.00    +0.000 C 
ATOM     21  O   UNL     1      -4.418  15.010  22.759  0.00  0.00    +0.000 OA
ENDBRANCH   9  12
ENDBRANCH   6   9
BRANCH   1  22
ATOM     22  C   UNL     1       2.687   6.928  18.485  0.00  0.00    +0.000 C 
BRANCH  22  23
ATOM     23  C   UNL     1       3.960   6.643  17.698  0.00  0.00    +0.000 C 
BRANCH  23  24
ATOM     24  C   UNL     1       4.063   5.160  17.350  0.00  0.00    +0.000 C 
BRANCH  24  26
ATOM     25  C   UNL     1       5.467   5.593  15.308  0.00  0.00    +0.000 C 
ATOM     26  C   UNL     1       5.380   4.863  16.637  0.00  0.00    +0.000 C 
ENDBRANCH  24  26
ENDBRANCH  23  24
ENDBRANCH  22  23
ENDBRANCH   1  22
TORSDOF 6
ENDMDL
MODEL 8
REMARK VINA RESULT:      -7.4      4.855      7.868
REMARK  Name = 
REMARK  7 active torsions:
REMARK  status: ('A' for Active; 'I' for Inactive)
REMARK    1  A    between atoms: C_1  and  C_2
REMARK    2  A    between atoms: C_2  and  C_3
REMARK    3  A    between atoms: C_3  and  C_4
REMARK    4  A    between atoms: C_4  and  C_5
REMARK    5  A    between atoms: C_5  and  C_6
REMARK    6  A    between atoms: N_11  and  S_12
REMARK    7  A    between atoms: S_12  and  C_15
REMARK                            x       y       z     vdW  Elec       q    Type
REMARK                         _______ _______ _______ _____ _____    ______ ____
ROOT
ATOM      1  C   UNL     1       2.888   7.129  18.680  0.00  0.00    +0.000 C 
ATOM      2  O   UNL     1       3.453   7.246  17.593  0.00  0.00    +0.000 OA
ATOM      3  N   UNL     1       2.092   8.130  19.209  0.00  0.00    +0.000 N 
ATOM      4  C   UNL     1       1.840   9.330  18.405  0.00  0.00    +0.000 C 
ATOM      5  C   UNL     1       0.356   9.732  18.456  0.00  0.00    +0.000 C 
ATOM      6  N   UNL     1      -0.146   9.856  19.867  0.00  0.00    +0.000 NA
ATOM      7  C   UNL     1       0.090   8.561  20.598  0.00  0.00    +0.000 C 
ATOM      8  C   UNL     1       1.576   8.175  20.589  0.00  0.00    +0.000 C 
ENDROOT
BRANCH   6   9
ATOM      9  S   UNL     1       0.328  11.266  20.721  0.00  0.00    +0.000 S 
ATOM     10  O   UNL     1       1.244  10.859  21.766  0.00  0.00    +0.000 OA
ATOM     11  O   UNL     1       0.715  12.275  19.765  0.00  0.00    +0.000 OA
BRANCH   9  12
ATOM     12  C   UNL     1      -1.168  11.819  21.516  0.00  0.00    +0.000 A 
ATOM     13  C   UNL     1      -1.377  11.576  22.879  0.00  0.00    +0.000 A 
ATOM     14  C   UNL     1      -2.605  11.906  23.461  0.00  0.00    +0.000 A 
ATOM     15  C   UNL     1      -3.609  12.485  22.688  0.00  0.00    +0.000 A 
ATOM     16  C   UNL     1      -3.381  12.761  21.331  0.00  0.00    +0.000 A 
ATOM     17  C   UNL     1      -2.175  12.399  20.731  0.00  0.00    +0.000 A 
ATOM     18  O   UNL     1      -4.315  13.369  20.530  0.00  0.00    +0.000 OA
ATOM     19  C   UNL     1      -5.343  13.989  21.308  0.00  0.00    +0.000 C 
ATOM     20  C   UNL     1      -5.843  13.037  22.384  0.00  0.00    +0.000 C 
ATOM     21  O   UNL     1      -4.797  12.756  23.321  0.00  0.00    +0.000 OA
ENDBRANCH   9  12
ENDBRANCH   6   9
BRANCH   1  22
ATOM     22  C   UNL     1       2.968   5.843  19.482  0.00  0.00    +0.000 C 
BRANCH  22  23
ATOM     23  C   UNL     1       1.975   4.799  18.987  0.00  0.00    +0.000 C 
BRANCH  23  24
ATOM     24  C   UNL     1       1.063   4.335  20.120  0.00  0.00    +0.000 C 
BRANCH  24  26
ATOM     25  C   UNL     1       2.231   2.824  21.757  0.00  0.00    +0.000 C 
ATOM     26  C   UNL     1       1.372   2.891  20.506  0.00  0.00    +0.000 C 
ENDBRANCH  24  26
ENDBRANCH  23  24
ENDBRANCH  22  23
ENDBRANCH   1  22
TORSDOF 6
ENDMDL
MODEL 9
REMARK VINA RESULT:      -7.4      5.060      8.078
REMARK  Name = 
REMARK  7 active torsions:
REMARK  status: ('A' for Active; 'I' for Inactive)
REMARK    1  A    between atoms: C_1  and  C_2
REMARK    2  A    between atoms: C_2  and  C_3
REMARK    3  A    between atoms: C_3  and  C_4
REMARK    4  A    between atoms: C_4  and  C_5
REMARK    5  A    between atoms: C_5  and  C_6
REMARK    6  A    between atoms: N_11  and  S_12
REMARK    7  A    between atoms: S_12  and  C_15
REMARK                            x       y       z     vdW  Elec       q    Type
REMARK                         _______ _______ _______ _____ _____    ______ ____
ROOT
ATOM      1  C   UNL     1       2.425   7.703  18.650  0.00  0.00    +0.000 C 
ATOM      2  O   UNL     1       2.814   8.172  17.581  0.00  0.00    +0.000 OA
ATOM      3  N   UNL     1       1.675   8.442  19.550  0.00  0.00    +0.000 N 
ATOM      4  C   UNL     1       1.252   9.794  19.172  0.00  0.00    +0.000 C 
ATOM      5  C   UNL     1      -0.223  10.038  19.535  0.00  0.00    +0.000 C 
ATOM      6  N   UNL     1      -0.512   9.713  20.972  0.00  0.00    +0.000 NA
ATOM      7  C   UNL     1      -0.112   8.289  21.254  0.00  0.00    +0.000 C 
ATOM      8  C   UNL     1       1.371   8.049  20.937  0.00  0.00    +0.000 C 
ENDROOT
BRANCH   6   9
ATOM      9  S   UNL     1       0.023  10.857  22.132  0.00  0.00    +0.000 S 
ATOM     10  O   UNL     1       0.192  10.160  23.391  0.00  0.00    +0.000 OA
ATOM     11  O   UNL     1       1.114  11.611  21.565  0.00  0.00    +0.000 OA
BRANCH   9  12
ATOM     12  C   UNL     1      -1.359  11.965  22.323  0.00  0.00    +0.000 A 
ATOM     13  C   UNL     1      -2.328  11.725  23.305  0.00  0.00    +0.000 A 
ATOM     14  C   UNL     1      -3.469  12.532  23.364  0.00  0.00    +0.000 A 
ATOM     15  C   UNL     1      -3.631  13.576  22.455  0.00  0.00    +0.000 A 
ATOM     16  C   UNL     1      -2.639  13.836  21.498  0.00  0.00    +0.000 A 
ATOM     17  C   UNL     1      -1.516  13.012  21.405  0.00  0.00    +0.000 A 
ATOM     18  O   UNL     1      -2.721  14.875  20.605  0.00  0.00    +0.000 OA
ATOM     19  C   UNL     1      -3.711  15.828  21.007  0.00  0.00    +0.000 C 
ATOM     20  C   UNL     1      -5.001  15.123  21.397  0.00  0.00    +0.000 C 
ATOM     21  O   UNL     1      -4.789  14.308  22.555  0.00  0.00    +0.000 OA
ENDBRANCH   9  12
ENDBRANCH   6   9
BRANCH   1  22
ATOM     22  C   UNL     1       2.680   6.255  19.022  0.00  0.00    +0.000 C 
BRANCH  22  23
ATOM     23  C   UNL     1       2.125   5.292  17.980  0.00  0.00    +0.000 C 
BRANCH  23  24
ATOM     24  C   UNL     1       1.819   3.933  18.604  0.00  0.00    +0.000 C 
BRANCH  24  26
ATOM     25  C   UNL     1       1.215   3.110  20.904  0.00  0.00    +0.000 C 
ATOM     26  C   UNL     1       2.206   3.916  20.081  0.00  0.00    +0.000 C 
ENDBRANCH  24  26
ENDBRANCH  23  24
ENDBRANCH  22  23
ENDBRANCH   1  22
TORSDOF 6
ENDMDL
