MODEL 1
REMARK VINA RESULT:      -9.6      0.000      0.000
REMARK  Name = 
REMARK  7 active torsions:
REMARK  status: ('A' for Active; 'I' for Inactive)
REMARK    1  A    between atoms: C_1  and  O_2
REMARK    2  A    between atoms: O_2  and  C_3
REMARK    3  A    between atoms: C_9  and  C_10
REMARK    4  A    between atoms: C_11  and  C_12
REMARK    5  A    between atoms: C_17  and  N_18
REMARK    6  A    between atoms: N_18  and  S_19
REMARK    7  A    between atoms: S_19  and  C_22
REMARK                            x       y       z     vdW  Elec       q    Type
REMARK                         _______ _______ _______ _____ _____    ______ ____
ROOT
ATOM      1  C   UNL     1       2.864   5.593  19.518  0.00  0.00    +0.000 A 
ATOM      2  C   UNL     1       2.866   4.361  20.171  0.00  0.00    +0.000 A 
ATOM      3  F   UNL     1       2.242   4.211  21.349  0.00  0.00    +0.000 F 
ATOM      4  C   UNL     1       3.487   3.246  19.606  0.00  0.00    +0.000 A 
ATOM      5  C   UNL     1       4.121   3.358  18.372  0.00  0.00    +0.000 A 
ATOM      6  C   UNL     1       4.166   4.590  17.722  0.00  0.00    +0.000 A 
ATOM      7  C   UNL     1       3.532   5.702  18.292  0.00  0.00    +0.000 A 
ATOM      8  F   UNL     1       3.526   6.872  17.632  0.00  0.00    +0.000 F 
ENDROOT
BRANCH   1  10
ATOM      9  C   UNL     1       1.574   7.665  20.514  0.00  0.00    +0.000 C 
ATOM     10  C   UNL     1       2.152   6.710  20.068  0.00  0.00    +0.000 C 
BRANCH   9  17
ATOM     11  C   UNL     1      -1.309  11.823  20.458  0.00  0.00    +0.000 A 
ATOM     12  N   UNL     1      -1.662  12.606  21.483  0.00  0.00    +0.000 NA
ATOM     13  N   UNL     1      -1.044  12.025  22.532  0.00  0.00    +0.000 N 
ATOM     14  C   UNL     1      -0.322  10.914  22.203  0.00  0.00    +0.000 A 
ATOM     15  N   UNL     1       0.389  10.148  23.051  0.00  0.00    +0.000 NA
ATOM     16  C   UNL     1       0.990   9.103  22.422  0.00  0.00    +0.000 A 
ATOM     17  C   UNL     1       0.913   8.811  21.060  0.00  0.00    +0.000 A 
ATOM     18  C   UNL     1       0.163   9.651  20.233  0.00  0.00    +0.000 A 
ATOM     19  C   UNL     1      -0.481  10.744  20.839  0.00  0.00    +0.000 A 
ATOM     20  H   UNL     1      -1.148  12.430  23.455  0.00  0.00    +0.000 HD
BRANCH  11  22
ATOM     21  C   UNL     1      -0.787  12.739  18.379  0.00  0.00    +0.000 C 
ATOM     22  O   UNL     1      -1.747  12.085  19.204  0.00  0.00    +0.000 OA
ENDBRANCH  11  22
ENDBRANCH   9  17
ENDBRANCH   1  10
BRANCH   6  23
ATOM     23  N   UNL     1       4.777   4.660  16.444  0.00  0.00    +0.000 N 
ATOM     24  H   UNL     1       4.269   4.393  15.603  0.00  0.00    +0.000 HD
BRANCH  23  25
ATOM     25  S   UNL     1       6.342   5.220  16.250  0.00  0.00    +0.000 S 
ATOM     26  O   UNL     1       6.284   6.661  16.365  0.00  0.00    +0.000 OA
ATOM     27  O   UNL     1       7.237   4.422  17.058  0.00  0.00    +0.000 OA
BRANCH  25  28
ATOM     28  C   UNL     1       6.673   4.864  14.541  0.00  0.00    +0.000 A 
ATOM     29  C   UNL     1       7.707   5.524  13.870  0.00  0.00    +0.000 A 
ATOM     30  C   UNL     1       7.967   5.208  12.535  0.00  0.00    +0.000 A 
ATOM     31  C   UNL     1       7.201   4.239  11.883  0.00  0.00    +0.000 A 
ATOM     32  C   UNL     1       6.161   3.601  12.559  0.00  0.00    +0.000 A 
ATOM     33 CL   UNL     1       5.222   2.408  11.753  0.00  0.00    +0.000 Cl
ATOM     34  C   UNL     1       5.884   3.913  13.887  0.00  0.00    +0.000 A 
ENDBRANCH  25  28
ENDBRANCH  23  25
ENDBRANCH   6  23
TORSDOF 6
ENDMDL
MODEL 2
REMARK VINA RESULT:      -9.3      2.583      3.154
REMARK  Name = 
REMARK  7 active torsions:
REMARK  status: ('A' for Active; 'I' for Inactive)
REMARK    1  A    between atoms: C_1  and  O_2
REMARK    2  A    between atoms: O_2  and  C_3
REMARK    3  A    between atoms: C_9  and  C_10
REMARK    4  A    between atoms: C_11  and  C_12
REMARK    5  A    between atoms: C_17  and  N_18
REMARK    6  A    between atoms: N_18  and  S_19
REMARK    7  A    between atoms: S_19  and  C_22
REMARK                            x       y       z     vdW  Elec       q    Type
REMARK                         _______ _______ _______ _____ _____    ______ ____
ROOT
ATOM      1  C   UNL     1       2.873   5.882  19.355  0.00  0.00    +0.000 A 
ATOM      2  C   UNL     1       3.029   4.647  19.981  0.00  0.00    +0.000 A 
ATOM      3  F   UNL     1       2.545   4.439  21.215  0.00  0.00    +0.000 F 
ATOM      4  C   UNL     1       3.663   3.584  19.334  0.00  0.00    +0.000 A 
ATOM      5  C   UNL     1       4.155   3.755  18.044  0.00  0.00    +0.000 A 
ATOM      6  C   UNL     1       4.046   4.995  17.415  0.00  0.00    +0.000 A 
ATOM      7  C   UNL     1       3.400   6.052  18.068  0.00  0.00    +0.000 A 
ATOM      8  F   UNL     1       3.243   7.226  17.434  0.00  0.00    +0.000 F 
ENDROOT
BRANCH   1  10
ATOM      9  C   UNL     1       1.544   7.844  20.510  0.00  0.00    +0.000 C 
ATOM     10  C   UNL     1       2.148   6.940  19.996  0.00  0.00    +0.000 C 
BRANCH   9  17
ATOM     11  C   UNL     1      -1.382  11.968  20.682  0.00  0.00    +0.000 A 
ATOM     12  N   UNL     1      -1.777  12.666  21.753  0.00  0.00    +0.000 NA
ATOM     13  N   UNL     1      -1.187  12.010  22.773  0.00  0.00    +0.000 N 
ATOM     14  C   UNL     1      -0.442  10.934  22.383  0.00  0.00    +0.000 A 
ATOM     15  N   UNL     1       0.250  10.111  23.192  0.00  0.00    +0.000 NA
ATOM     16  C   UNL     1       0.882   9.123  22.504  0.00  0.00    +0.000 A 
ATOM     17  C   UNL     1       0.853   8.938  21.122  0.00  0.00    +0.000 A 
ATOM     18  C   UNL     1       0.120   9.833  20.338  0.00  0.00    +0.000 A 
ATOM     19  C   UNL     1      -0.555  10.870  21.005  0.00  0.00    +0.000 A 
ATOM     20  H   UNL     1      -1.325  12.341  23.721  0.00  0.00    +0.000 HD
BRANCH  11  22
ATOM     21  C   UNL     1      -0.796  13.032  18.692  0.00  0.00    +0.000 C 
ATOM     22  O   UNL     1      -1.782  12.324  19.438  0.00  0.00    +0.000 OA
ENDBRANCH  11  22
ENDBRANCH   9  17
ENDBRANCH   1  10
BRANCH   6  23
ATOM     23  N   UNL     1       4.512   5.122  16.081  0.00  0.00    +0.000 N 
ATOM     24  H   UNL     1       3.882   5.387  15.327  0.00  0.00    +0.000 HD
BRANCH  23  25
ATOM     25  S   UNL     1       6.121   4.880  15.690  0.00  0.00    +0.000 S 
ATOM     26  O   UNL     1       6.373   3.463  15.828  0.00  0.00    +0.000 OA
ATOM     27  O   UNL     1       6.429   5.600  14.474  0.00  0.00    +0.000 OA
BRANCH  25  28
ATOM     28  C   UNL     1       6.971   5.676  17.033  0.00  0.00    +0.000 A 
ATOM     29  C   UNL     1       7.435   4.926  18.117  0.00  0.00    +0.000 A 
ATOM     30  C   UNL     1       8.125   5.568  19.148  0.00  0.00    +0.000 A 
ATOM     31  C   UNL     1       8.348   6.946  19.088  0.00  0.00    +0.000 A 
ATOM     32  C   UNL     1       7.864   7.685  18.009  0.00  0.00    +0.000 A 
ATOM     33 CL   UNL     1       8.142   9.380  17.940  0.00  0.00    +0.000 Cl
ATOM     34  C   UNL     1       7.165   7.060  16.980  0.00  0.00    +0.000 A 
ENDBRANCH  25  28
ENDBRANCH  23  25
ENDBRANCH   6  23
TORSDOF 6
ENDMDL
MODEL 3
REMARK VINA RESULT:      -9.0      3.619      5.099
REMARK  Name = 
REMARK  7 active torsions:
REMARK  status: ('A' for Active; 'I' for Inactive)
REMARK    1  A    between atoms: C_1  and  O_2
REMARK    2  A    between atoms: O_2  and  C_3
REMARK    3  A    between atoms: C_9  and  C_10
REMARK    4  A    between atoms: C_11  and  C_12
REMARK    5  A    between atoms: C_17  and  N_18
REMARK    6  A    between atoms: N_18  and  S_19
REMARK    7  A    between atoms: S_19  and  C_22
REMARK                            x       y       z     vdW  Elec       q    Type
REMARK                         _______ _______ _______ _____ _____    ______ ____
ROOT
ATOM      1  C   UNL     1       1.117   9.226  19.868  0.00  0.00    +0.000 A 
ATOM      2  C   UNL     1       1.407   9.468  18.526  0.00  0.00    +0.000 A 
ATOM      3  F   UNL     1       0.999  10.599  17.932  0.00  0.00    +0.000 F 
ATOM      4  C   UNL     1       2.153   8.559  17.773  0.00  0.00    +0.000 A 
ATOM      5  C   UNL     1       2.615   7.387  18.364  0.00  0.00    +0.000 A 
ATOM      6  C   UNL     1       2.301   7.106  19.693  0.00  0.00    +0.000 A 
ATOM      7  C   UNL     1       1.560   8.028  20.443  0.00  0.00    +0.000 A 
ATOM      8  F   UNL     1       1.313   7.782  21.740  0.00  0.00    +0.000 F 
ENDROOT
BRANCH   1  10
ATOM      9  C   UNL     1      -0.155  11.044  21.290  0.00  0.00    +0.000 C 
ATOM     10  C   UNL     1       0.421  10.204  20.653  0.00  0.00    +0.000 C 
BRANCH   9  17
ATOM     11  C   UNL     1      -3.761  13.033  24.231  0.00  0.00    +0.000 A 
ATOM     12  N   UNL     1      -3.827  14.263  24.753  0.00  0.00    +0.000 NA
ATOM     13  N   UNL     1      -2.704  14.847  24.287  0.00  0.00    +0.000 N 
ATOM     14  C   UNL     1      -1.943  14.034  23.497  0.00  0.00    +0.000 A 
ATOM     15  N   UNL     1      -0.780  14.363  22.905  0.00  0.00    +0.000 NA
ATOM     16  C   UNL     1      -0.255  13.331  22.191  0.00  0.00    +0.000 A 
ATOM     17  C   UNL     1      -0.814  12.060  22.054  0.00  0.00    +0.000 A 
ATOM     18  C   UNL     1      -2.028  11.786  22.690  0.00  0.00    +0.000 A 
ATOM     19  C   UNL     1      -2.608  12.821  23.444  0.00  0.00    +0.000 A 
ATOM     20  H   UNL     1      -2.505  15.808  24.539  0.00  0.00    +0.000 HD
BRANCH  11  22
ATOM     21  C   UNL     1      -6.050  12.591  24.206  0.00  0.00    +0.000 C 
ATOM     22  O   UNL     1      -4.732  12.123  24.480  0.00  0.00    +0.000 OA
ENDBRANCH  11  22
ENDBRANCH   9  17
ENDBRANCH   1  10
BRANCH   6  23
ATOM     23  N   UNL     1       2.829   5.927  20.280  0.00  0.00    +0.000 N 
ATOM     24  H   UNL     1       3.233   5.940  21.214  0.00  0.00    +0.000 HD
BRANCH  23  25
ATOM     25  S   UNL     1       2.779   4.456  19.485  0.00  0.00    +0.000 S 
ATOM     26  O   UNL     1       2.972   3.435  20.492  0.00  0.00    +0.000 OA
ATOM     27  O   UNL     1       1.649   4.440  18.582  0.00  0.00    +0.000 OA
BRANCH  25  28
ATOM     28  C   UNL     1       4.265   4.490  18.511  0.00  0.00    +0.000 A 
ATOM     29  C   UNL     1       4.258   4.015  17.196  0.00  0.00    +0.000 A 
ATOM     30  C   UNL     1       5.430   4.077  16.440  0.00  0.00    +0.000 A 
ATOM     31  C   UNL     1       6.594   4.612  16.997  0.00  0.00    +0.000 A 
ATOM     32  C   UNL     1       6.592   5.066  18.316  0.00  0.00    +0.000 A 
ATOM     33 CL   UNL     1       8.027   5.725  18.995  0.00  0.00    +0.000 Cl
ATOM     34  C   UNL     1       5.433   5.001  19.084  0.00  0.00    +0.000 A 
ENDBRANCH  25  28
ENDBRANCH  23  25
ENDBRANCH   6  23
TORSDOF 6
ENDMDL
MODEL 4
REMARK VINA RESULT:      -8.9      2.043      2.519
REMARK  Name = 
REMARK  7 active torsions:
REMARK  status: ('A' for Active; 'I' for Inactive)
REMARK    1  A    between atoms: C_1  and  O_2
REMARK    2  A    between atoms: O_2  and  C_3
REMARK    3  A    between atoms: C_9  and  C_10
REMARK    4  A    between atoms: C_11  and  C_12
REMARK    5  A    between atoms: C_17  and  N_18
REMARK    6  A    between atoms: N_18  and  S_19
REMARK    7  A    between atoms: S_19  and  C_22
REMARK                            x       y       z     vdW  Elec       q    Type
REMARK                         _______ _______ _______ _____ _____    ______ ____
ROOT
ATOM      1  C   UNL     1       2.756   6.771  18.740  0.00  0.00    +0.000 A 
ATOM      2  C   UNL     1       2.588   5.850  19.773  0.00  0.00    +0.000 A 
ATOM      3  F   UNL     1       1.831   6.150  20.839  0.00  0.00    +0.000 F 
ATOM      4  C   UNL     1       3.172   4.584  19.714  0.00  0.00    +0.000 A 
ATOM      5  C   UNL     1       3.942   4.228  18.611  0.00  0.00    +0.000 A 
ATOM      6  C   UNL     1       4.158   5.149  17.586  0.00  0.00    +0.000 A 
ATOM      7  C   UNL     1       3.559   6.413  17.650  0.00  0.00    +0.000 A 
ATOM      8  F   UNL     1       3.720   7.274  16.631  0.00  0.00    +0.000 F 
ENDROOT
BRANCH   1  10
ATOM      9  C   UNL     1       1.514   9.095  18.771  0.00  0.00    +0.000 C 
ATOM     10  C   UNL     1       2.084   8.037  18.773  0.00  0.00    +0.000 C 
BRANCH   9  17
ATOM     11  C   UNL     1       1.177  14.144  18.776  0.00  0.00    +0.000 A 
ATOM     12  N   UNL     1       0.082  14.907  18.690  0.00  0.00    +0.000 NA
ATOM     13  N   UNL     1      -0.912  13.997  18.619  0.00  0.00    +0.000 N 
ATOM     14  C   UNL     1      -0.482  12.702  18.659  0.00  0.00    +0.000 A 
ATOM     15  N   UNL     1      -1.259  11.604  18.608  0.00  0.00    +0.000 NA
ATOM     16  C   UNL     1      -0.532  10.456  18.656  0.00  0.00    +0.000 A 
ATOM     17  C   UNL     1       0.857  10.367  18.749  0.00  0.00    +0.000 A 
ATOM     18  C   UNL     1       1.605  11.546  18.805  0.00  0.00    +0.000 A 
ATOM     19  C   UNL     1       0.898  12.760  18.754  0.00  0.00    +0.000 A 
ATOM     20  H   UNL     1      -1.871  14.316  18.547  0.00  0.00    +0.000 HD
BRANCH  11  22
ATOM     21  C   UNL     1       2.388  16.126  18.975  0.00  0.00    +0.000 C 
ATOM     22  O   UNL     1       2.406  14.706  18.862  0.00  0.00    +0.000 OA
ENDBRANCH  11  22
ENDBRANCH   9  17
ENDBRANCH   1  10
BRANCH   6  23
ATOM     23  N   UNL     1       4.906   4.738  16.453  0.00  0.00    +0.000 N 
ATOM     24  H   UNL     1       4.480   4.179  15.716  0.00  0.00    +0.000 HD
BRANCH  23  25
ATOM     25  S   UNL     1       6.506   5.184  16.252  0.00  0.00    +0.000 S 
ATOM     26  O   UNL     1       6.559   6.621  16.409  0.00  0.00    +0.000 OA
ATOM     27  O   UNL     1       7.349   4.296  17.022  0.00  0.00    +0.000 OA
BRANCH  25  28
ATOM     28  C   UNL     1       6.787   4.855  14.528  0.00  0.00    +0.000 A 
ATOM     29  C   UNL     1       7.767   5.563  13.825  0.00  0.00    +0.000 A 
ATOM     30  C   UNL     1       7.989   5.269  12.479  0.00  0.00    +0.000 A 
ATOM     31  C   UNL     1       7.239   4.275  11.846  0.00  0.00    +0.000 A 
ATOM     32  C   UNL     1       6.253   3.588  12.554  0.00  0.00    +0.000 A 
ATOM     33 CL   UNL     1       5.333   2.364  11.772  0.00  0.00    +0.000 Cl
ATOM     34  C   UNL     1       6.013   3.878  13.894  0.00  0.00    +0.000 A 
ENDBRANCH  25  28
ENDBRANCH  23  25
ENDBRANCH   6  23
TORSDOF 6
ENDMDL
MODEL 5
REMARK VINA RESULT:      -8.8      3.328      4.835
REMARK  Name = 
REMARK  7 active torsions:
REMARK  status: ('A' for Active; 'I' for Inactive)
REMARK    1  A    between atoms: C_1  and  O_2
REMARK    2  A    between atoms: O_2  and  C_3
REMARK    3  A    between atoms: C_9  and  C_10
REMARK    4  A    between atoms: C_11  and  C_12
REMARK    5  A    between atoms: C_17  and  N_18
REMARK    6  A    between atoms: N_18  and  S_19
REMARK    7  A    between atoms: S_19  and  C_22
REMARK                            x       y       z     vdW  Elec       q    Type
REMARK                         _______ _______ _______ _____ _____    ______ ____
ROOT
ATOM      1  C   UNL     1       1.199   9.249  19.843  0.00  0.00    +0.000 A 
ATOM      2  C   UNL     1       1.446   9.475  18.489  0.00  0.00    +0.000 A 
ATOM      3  F   UNL     1       1.033  10.606  17.899  0.00  0.00    +0.000 F 
ATOM      4  C   UNL     1       2.154   8.550  17.720  0.00  0.00    +0.000 A 
ATOM      5  C   UNL     1       2.621   7.378  18.306  0.00  0.00    +0.000 A 
ATOM      6  C   UNL     1       2.350   7.112  19.647  0.00  0.00    +0.000 A 
ATOM      7  C   UNL     1       1.647   8.050  20.413  0.00  0.00    +0.000 A 
ATOM      8  F   UNL     1       1.441   7.818  21.721  0.00  0.00    +0.000 F 
ENDROOT
BRANCH   1  10
ATOM      9  C   UNL     1      -0.032  11.067  21.301  0.00  0.00    +0.000 C 
ATOM     10  C   UNL     1       0.543  10.242  20.642  0.00  0.00    +0.000 C 
BRANCH   9  17
ATOM     11  C   UNL     1      -3.723  12.954  24.203  0.00  0.00    +0.000 A 
ATOM     12  N   UNL     1      -3.828  14.181  24.725  0.00  0.00    +0.000 NA
ATOM     13  N   UNL     1      -2.717  14.796  24.271  0.00  0.00    +0.000 N 
ATOM     14  C   UNL     1      -1.925  14.005  23.489  0.00  0.00    +0.000 A 
ATOM     15  N   UNL     1      -0.766  14.366  22.909  0.00  0.00    +0.000 NA
ATOM     16  C   UNL     1      -0.205  13.350  22.201  0.00  0.00    +0.000 A 
ATOM     17  C   UNL     1      -0.727  12.064  22.058  0.00  0.00    +0.000 A 
ATOM     18  C   UNL     1      -1.939  11.756  22.681  0.00  0.00    +0.000 A 
ATOM     19  C   UNL     1      -2.556  12.774  23.429  0.00  0.00    +0.000 A 
ATOM     20  H   UNL     1      -2.547  15.762  24.525  0.00  0.00    +0.000 HD
BRANCH  11  22
ATOM     21  C   UNL     1      -6.004  12.476  24.237  0.00  0.00    +0.000 C 
ATOM     22  O   UNL     1      -4.671  12.017  24.442  0.00  0.00    +0.000 OA
ENDBRANCH  11  22
ENDBRANCH   9  17
ENDBRANCH   1  10
BRANCH   6  23
ATOM     23  N   UNL     1       2.882   5.932  20.226  0.00  0.00    +0.000 N 
ATOM     24  H   UNL     1       3.198   5.917  21.194  0.00  0.00    +0.000 HD
BRANCH  23  25
ATOM     25  S   UNL     1       2.982   4.501  19.364  0.00  0.00    +0.000 S 
ATOM     26  O   UNL     1       3.129   3.441  20.336  0.00  0.00    +0.000 OA
ATOM     27  O   UNL     1       1.946   4.479  18.355  0.00  0.00    +0.000 OA
BRANCH  25  28
ATOM     28  C   UNL     1       4.550   4.652  18.541  0.00  0.00    +0.000 A 
ATOM     29  C   UNL     1       5.657   5.168  19.222  0.00  0.00    +0.000 A 
ATOM     30  C   UNL     1       6.886   5.251  18.565  0.00  0.00    +0.000 A 
ATOM     31  C   UNL     1       7.003   4.819  17.241  0.00  0.00    +0.000 A 
ATOM     32  C   UNL     1       5.886   4.323  16.568  0.00  0.00    +0.000 A 
ATOM     33 CL   UNL     1       6.035   3.792  14.940  0.00  0.00    +0.000 Cl
ATOM     34  C   UNL     1       4.652   4.244  17.208  0.00  0.00    +0.000 A 
ENDBRANCH  25  28
ENDBRANCH  23  25
ENDBRANCH   6  23
TORSDOF 6
ENDMDL
MODEL 6
REMARK VINA RESULT:      -8.7      5.050     10.949
REMARK  Name = 
REMARK  7 active torsions:
REMARK  status: ('A' for Active; 'I' for Inactive)
REMARK    1  A    between atoms: C_1  and  O_2
REMARK    2  A    between atoms: O_2  and  C_3
REMARK    3  A    between atoms: C_9  and  C_10
REMARK    4  A    between atoms: C_11  and  C_12
REMARK    5  A    between atoms: C_17  and  N_18
REMARK    6  A    between atoms: N_18  and  S_19
REMARK    7  A    between atoms: S_19  and  C_22
REMARK                            x       y       z     vdW  Elec       q    Type
REMARK                         _______ _______ _______ _____ _____    ______ ____
ROOT
ATOM      1  C   UNL     1       0.339   9.891  19.086  0.00  0.00    +0.000 A 
ATOM      2  C   UNL     1       0.475  10.540  20.313  0.00  0.00    +0.000 A 
ATOM      3  F   UNL     1       1.415  10.155  21.189  0.00  0.00    +0.000 F 
ATOM      4  C   UNL     1      -0.338  11.623  20.651  0.00  0.00    +0.000 A 
ATOM      5  C   UNL     1      -1.306  12.067  19.755  0.00  0.00    +0.000 A 
ATOM      6  C   UNL     1      -1.487  11.406  18.541  0.00  0.00    +0.000 A 
ATOM      7  C   UNL     1      -0.660  10.326  18.207  0.00  0.00    +0.000 A 
ATOM      8  F   UNL     1      -0.798   9.732  17.009  0.00  0.00    +0.000 F 
ENDROOT
BRANCH   1  10
ATOM      9  C   UNL     1       2.002   7.956  18.427  0.00  0.00    +0.000 C 
ATOM     10  C   UNL     1       1.233   8.833  18.716  0.00  0.00    +0.000 C 
BRANCH   9  17
ATOM     11  C   UNL     1       6.415   6.054  16.843  0.00  0.00    +0.000 A 
ATOM     12  N   UNL     1       6.777   4.771  16.726  0.00  0.00    +0.000 NA
ATOM     13  N   UNL     1       5.668   4.110  17.118  0.00  0.00    +0.000 N 
ATOM     14  C   UNL     1       4.632   4.927  17.473  0.00  0.00    +0.000 A 
ATOM     15  N   UNL     1       3.418   4.532  17.897  0.00  0.00    +0.000 NA
ATOM     16  C   UNL     1       2.605   5.583  18.185  0.00  0.00    +0.000 A 
ATOM     17  C   UNL     1       2.939   6.933  18.072  0.00  0.00    +0.000 A 
ATOM     18  C   UNL     1       4.215   7.276  17.618  0.00  0.00    +0.000 A 
ATOM     19  C   UNL     1       5.094   6.222  17.311  0.00  0.00    +0.000 A 
ATOM     20  H   UNL     1       5.671   3.097  17.123  0.00  0.00    +0.000 HD
BRANCH  11  22
ATOM     21  C   UNL     1       7.796   7.739  17.673  0.00  0.00    +0.000 C 
ATOM     22  O   UNL     1       7.283   7.048  16.537  0.00  0.00    +0.000 OA
ENDBRANCH  11  22
ENDBRANCH   9  17
ENDBRANCH   1  10
BRANCH   6  23
ATOM     23  N   UNL     1      -2.448  11.914  17.630  0.00  0.00    +0.000 N 
ATOM     24  H   UNL     1      -2.338  12.833  17.206  0.00  0.00    +0.000 HD
BRANCH  23  25
ATOM     25  S   UNL     1      -3.786  11.016  17.178  0.00  0.00    +0.000 S 
ATOM     26  O   UNL     1      -3.912  11.154  15.743  0.00  0.00    +0.000 OA
ATOM     27  O   UNL     1      -3.732   9.723  17.823  0.00  0.00    +0.000 OA
BRANCH  25  28
ATOM     28  C   UNL     1      -5.129  11.935  17.892  0.00  0.00    +0.000 A 
ATOM     29  C   UNL     1      -6.051  12.591  17.070  0.00  0.00    +0.000 A 
ATOM     30  C   UNL     1      -7.115  13.283  17.653  0.00  0.00    +0.000 A 
ATOM     31  C   UNL     1      -7.252  13.314  19.042  0.00  0.00    +0.000 A 
ATOM     32  C   UNL     1      -6.316  12.670  19.851  0.00  0.00    +0.000 A 
ATOM     33 CL   UNL     1      -6.490  12.710  21.561  0.00  0.00    +0.000 Cl
ATOM     34  C   UNL     1      -5.244  11.985  19.285  0.00  0.00    +0.000 A 
ENDBRANCH  25  28
ENDBRANCH  23  25
ENDBRANCH   6  23
TORSDOF 6
ENDMDL
MODEL 7
REMARK VINA RESULT:      -8.7      2.611      3.128
REMARK  Name = 
REMARK  7 active torsions:
REMARK  status: ('A' for Active; 'I' for Inactive)
REMARK    1  A    between atoms: C_1  and  O_2
REMARK    2  A    between atoms: O_2  and  C_3
REMARK    3  A    between atoms: C_9  and  C_10
REMARK    4  A    between atoms: C_11  and  C_12
REMARK    5  A    between atoms: C_17  and  N_18
REMARK    6  A    between atoms: N_18  and  S_19
REMARK    7  A    between atoms: S_19  and  C_22
REMARK                            x       y       z     vdW  Elec       q    Type
REMARK                         _______ _______ _______ _____ _____    ______ ____
ROOT
ATOM      1  C   UNL     1       2.966   5.928  19.143  0.00  0.00    +0.000 A 
ATOM      2  C   UNL     1       3.010   4.661  19.723  0.00  0.00    +0.000 A 
ATOM      3  F   UNL     1       2.455   4.439  20.924  0.00  0.00    +0.000 F 
ATOM      4  C   UNL     1       3.601   3.584  19.060  0.00  0.00    +0.000 A 
ATOM      5  C   UNL     1       4.162   3.771  17.801  0.00  0.00    +0.000 A 
ATOM      6  C   UNL     1       4.166   5.038  17.221  0.00  0.00    +0.000 A 
ATOM      7  C   UNL     1       3.562   6.111  17.889  0.00  0.00    +0.000 A 
ATOM      8  F   UNL     1       3.514   7.317  17.299  0.00  0.00    +0.000 F 
ENDROOT
BRANCH   1  10
ATOM      9  C   UNL     1       1.693   7.892  20.355  0.00  0.00    +0.000 C 
ATOM     10  C   UNL     1       2.283   7.007  19.796  0.00  0.00    +0.000 C 
BRANCH   9  17
ATOM     11  C   UNL     1      -1.315  11.949  20.665  0.00  0.00    +0.000 A 
ATOM     12  N   UNL     1      -1.753  12.580  21.760  0.00  0.00    +0.000 NA
ATOM     13  N   UNL     1      -1.179  11.880  22.760  0.00  0.00    +0.000 N 
ATOM     14  C   UNL     1      -0.404  10.840  22.334  0.00  0.00    +0.000 A 
ATOM     15  N   UNL     1       0.281   9.986  23.118  0.00  0.00    +0.000 NA
ATOM     16  C   UNL     1       0.951   9.049  22.396  0.00  0.00    +0.000 A 
ATOM     17  C   UNL     1       0.964   8.939  21.005  0.00  0.00    +0.000 A 
ATOM     18  C   UNL     1       0.237   9.862  20.250  0.00  0.00    +0.000 A 
ATOM     19  C   UNL     1      -0.477  10.849  20.952  0.00  0.00    +0.000 A 
ATOM     20  H   UNL     1      -1.350  12.157  23.720  0.00  0.00    +0.000 HD
BRANCH  11  22
ATOM     21  C   UNL     1      -2.972  11.901  19.026  0.00  0.00    +0.000 C 
ATOM     22  O   UNL     1      -1.687  12.365  19.431  0.00  0.00    +0.000 OA
ENDBRANCH  11  22
ENDBRANCH   9  17
ENDBRANCH   1  10
BRANCH   6  23
ATOM     23  N   UNL     1       4.702   5.185  15.915  0.00  0.00    +0.000 N 
ATOM     24  H   UNL     1       4.113   5.467  15.134  0.00  0.00    +0.000 HD
BRANCH  23  25
ATOM     25  S   UNL     1       6.328   4.942  15.604  0.00  0.00    +0.000 S 
ATOM     26  O   UNL     1       6.603   3.553  15.899  0.00  0.00    +0.000 OA
ATOM     27  O   UNL     1       6.663   5.537  14.330  0.00  0.00    +0.000 OA
BRANCH  25  28
ATOM     28  C   UNL     1       7.114   5.893  16.882  0.00  0.00    +0.000 A 
ATOM     29  C   UNL     1       7.304   7.269  16.723  0.00  0.00    +0.000 A 
ATOM     30  C   UNL     1       7.899   8.002  17.752  0.00  0.00    +0.000 A 
ATOM     31  C   UNL     1       8.297   7.360  18.928  0.00  0.00    +0.000 A 
ATOM     32  C   UNL     1       8.118   5.984  19.066  0.00  0.00    +0.000 A 
ATOM     33 CL   UNL     1       8.608   5.200  20.516  0.00  0.00    +0.000 Cl
ATOM     34  C   UNL     1       7.536   5.240  18.045  0.00  0.00    +0.000 A 
ENDBRANCH  25  28
ENDBRANCH  23  25
ENDBRANCH   6  23
TORSDOF 6
ENDMDL
MODEL 8
REMARK VINA RESULT:      -8.6      1.569      1.852
REMARK  Name = 
REMARK  7 active torsions:
REMARK  status: ('A' for Active; 'I' for Inactive)
REMARK    1  A    between atoms: C_1  and  O_2
REMARK    2  A    between atoms: O_2  and  C_3
REMARK    3  A    between atoms: C_9  and  C_10
REMARK    4  A    between atoms: C_11  and  C_12
REMARK    5  A    between atoms: C_17  and  N_18
REMARK    6  A    between atoms: N_18  and  S_19
REMARK    7  A    between atoms: S_19  and  C_22
REMARK                            x       y       z     vdW  Elec       q    Type
REMARK                         _______ _______ _______ _____ _____    ______ ____
ROOT
ATOM      1  C   UNL     1       2.874   5.410  19.142  0.00  0.00    +0.000 A 
ATOM      2  C   UNL     1       2.144   4.590  18.282  0.00  0.00    +0.000 A 
ATOM      3  F   UNL     1       0.840   4.817  18.064  0.00  0.00    +0.000 F 
ATOM      4  C   UNL     1       2.753   3.533  17.603  0.00  0.00    +0.000 A 
ATOM      5  C   UNL     1       4.110   3.285  17.785  0.00  0.00    +0.000 A 
ATOM      6  C   UNL     1       4.849   4.067  18.672  0.00  0.00    +0.000 A 
ATOM      7  C   UNL     1       4.231   5.131  19.342  0.00  0.00    +0.000 A 
ATOM      8  F   UNL     1       4.962   5.919  20.148  0.00  0.00    +0.000 F 
ENDROOT
BRANCH   1  10
ATOM      9  C   UNL     1       1.715   7.484  20.284  0.00  0.00    +0.000 C 
ATOM     10  C   UNL     1       2.257   6.542  19.771  0.00  0.00    +0.000 C 
BRANCH   9  17
ATOM     11  C   UNL     1      -1.267  11.571  20.395  0.00  0.00    +0.000 A 
ATOM     12  N   UNL     1      -1.568  12.355  21.436  0.00  0.00    +0.000 NA
ATOM     13  N   UNL     1      -0.867  11.798  22.445  0.00  0.00    +0.000 N 
ATOM     14  C   UNL     1      -0.142  10.701  22.075  0.00  0.00    +0.000 A 
ATOM     15  N   UNL     1       0.644   9.960  22.878  0.00  0.00    +0.000 NA
ATOM     16  C   UNL     1       1.226   8.924  22.218  0.00  0.00    +0.000 A 
ATOM     17  C   UNL     1       1.064   8.618  20.866  0.00  0.00    +0.000 A 
ATOM     18  C   UNL     1       0.239   9.433  20.086  0.00  0.00    +0.000 A 
ATOM     19  C   UNL     1      -0.389  10.515  20.726  0.00  0.00    +0.000 A 
ATOM     20  H   UNL     1      -0.917  12.208  23.370  0.00  0.00    +0.000 HD
BRANCH  11  22
ATOM     21  C   UNL     1      -0.913  12.491  18.283  0.00  0.00    +0.000 C 
ATOM     22  O   UNL     1      -1.795  11.811  19.172  0.00  0.00    +0.000 OA
ENDBRANCH  11  22
ENDBRANCH   9  17
ENDBRANCH   1  10
BRANCH   6  23
ATOM     23  N   UNL     1       6.240   3.819  18.797  0.00  0.00    +0.000 N 
ATOM     24  H   UNL     1       6.588   3.044  19.358  0.00  0.00    +0.000 HD
BRANCH  23  25
ATOM     25  S   UNL     1       7.372   4.760  18.002  0.00  0.00    +0.000 S 
ATOM     26  O   UNL     1       7.463   6.005  18.733  0.00  0.00    +0.000 OA
ATOM     27  O   UNL     1       8.537   3.957  17.707  0.00  0.00    +0.000 OA
BRANCH  25  28
ATOM     28  C   UNL     1       6.557   5.136  16.468  0.00  0.00    +0.000 A 
ATOM     29  C   UNL     1       5.797   6.302  16.340  0.00  0.00    +0.000 A 
ATOM     30  C   UNL     1       5.188   6.591  15.117  0.00  0.00    +0.000 A 
ATOM     31  C   UNL     1       5.343   5.720  14.036  0.00  0.00    +0.000 A 
ATOM     32  C   UNL     1       6.089   4.551  14.182  0.00  0.00    +0.000 A 
ATOM     33 CL   UNL     1       6.278   3.484  12.848  0.00  0.00    +0.000 Cl
ATOM     34  C   UNL     1       6.693   4.245  15.398  0.00  0.00    +0.000 A 
ENDBRANCH  25  28
ENDBRANCH  23  25
ENDBRANCH   6  23
TORSDOF 6
ENDMDL
MODEL 9
REMARK VINA RESULT:      -8.6      4.847     10.769
REMARK  Name = 
REMARK  7 active torsions:
REMARK  status: ('A' for Active; 'I' for Inactive)
REMARK    1  A    between atoms: C_1  and  O_2
REMARK    2  A    between atoms: O_2  and  C_3
REMARK    3  A    between atoms: C_9  and  C_10
REMARK    4  A    between atoms: C_11  and  C_12
REMARK    5  A    between atoms: C_17  and  N_18
REMARK    6  A    between atoms: N_18  and  S_19
REMARK    7  A    between atoms: S_19  and  C_22
REMARK                            x       y       z     vdW  Elec       q    Type
REMARK                         _______ _______ _______ _____ _____    ______ ____
ROOT
ATOM      1  C   UNL     1       0.496   9.898  19.273  0.00  0.00    +0.000 A 
ATOM      2  C   UNL     1       0.517  10.668  20.436  0.00  0.00    +0.000 A 
ATOM      3  F   UNL     1       1.356  10.367  21.439  0.00  0.00    +0.000 F 
ATOM      4  C   UNL     1      -0.306  11.786  20.577  0.00  0.00    +0.000 A 
ATOM      5  C   UNL     1      -1.169  12.143  19.545  0.00  0.00    +0.000 A 
ATOM      6  C   UNL     1      -1.236  11.364  18.392  0.00  0.00    +0.000 A 
ATOM      7  C   UNL     1      -0.399  10.249  18.255  0.00  0.00    +0.000 A 
ATOM      8  F   UNL     1      -0.424   9.537  17.116  0.00  0.00    +0.000 F 
ENDROOT
BRANCH   1  10
ATOM      9  C   UNL     1       2.185   7.900  18.954  0.00  0.00    +0.000 C 
ATOM     10  C   UNL     1       1.404   8.801  19.106  0.00  0.00    +0.000 C 
BRANCH   9  17
ATOM     11  C   UNL     1       5.751   5.270  16.511  0.00  0.00    +0.000 A 
ATOM     12  N   UNL     1       6.376   4.152  16.899  0.00  0.00    +0.000 NA
ATOM     13  N   UNL     1       5.808   3.890  18.094  0.00  0.00    +0.000 N 
ATOM     14  C   UNL     1       4.856   4.796  18.465  0.00  0.00    +0.000 A 
ATOM     15  N   UNL     1       4.136   4.772  19.602  0.00  0.00    +0.000 NA
ATOM     16  C   UNL     1       3.275   5.820  19.689  0.00  0.00    +0.000 A 
ATOM     17  C   UNL     1       3.114   6.831  18.741  0.00  0.00    +0.000 A 
ATOM     18  C   UNL     1       3.888   6.794  17.579  0.00  0.00    +0.000 A 
ATOM     19  C   UNL     1       4.797   5.730  17.445  0.00  0.00    +0.000 A 
ATOM     20  H   UNL     1       6.107   3.075  18.616  0.00  0.00    +0.000 HD
BRANCH  11  22
ATOM     21  C   UNL     1       6.838   5.045  14.460  0.00  0.00    +0.000 C 
ATOM     22  O   UNL     1       6.058   5.860  15.331  0.00  0.00    +0.000 OA
ENDBRANCH  11  22
ENDBRANCH   9  17
ENDBRANCH   1  10
BRANCH   6  23
ATOM     23  N   UNL     1      -2.090  11.783  17.339  0.00  0.00    +0.000 N 
ATOM     24  H   UNL     1      -1.875  12.610  16.786  0.00  0.00    +0.000 HD
BRANCH  23  25
ATOM     25  S   UNL     1      -3.465  10.922  16.931  0.00  0.00    +0.000 S 
ATOM     26  O   UNL     1      -3.650  11.088  15.506  0.00  0.00    +0.000 OA
ATOM     27  O   UNL     1      -3.411   9.616  17.551  0.00  0.00    +0.000 OA
BRANCH  25  28
ATOM     28  C   UNL     1      -4.756  11.855  17.719  0.00  0.00    +0.000 A 
ATOM     29  C   UNL     1      -5.757  12.461  16.954  0.00  0.00    +0.000 A 
ATOM     30  C   UNL     1      -6.777  13.165  17.596  0.00  0.00    +0.000 A 
ATOM     31  C   UNL     1      -6.792  13.259  18.990  0.00  0.00    +0.000 A 
ATOM     32  C   UNL     1      -5.778  12.665  19.740  0.00  0.00    +0.000 A 
ATOM     33 CL   UNL     1      -5.802  12.782  21.455  0.00  0.00    +0.000 Cl
ATOM     34  C   UNL     1      -4.749  11.968  19.113  0.00  0.00    +0.000 A 
ENDBRANCH  25  28
ENDBRANCH  23  25
ENDBRANCH   6  23
TORSDOF 6
ENDMDL
