MODEL 1
REMARK VINA RESULT:      -8.1      0.000      0.000
REMARK  Name = 
REMARK  8 active torsions:
REMARK  status: ('A' for Active; 'I' for Inactive)
REMARK    1  A    between atoms: C_1  and  C_2
REMARK    2  A    between atoms: C_2  and  O_3
REMARK    3  A    between atoms: O_3  and  C_4
REMARK    4  A    between atoms: C_4  and  C_6
REMARK    5  A    between atoms: C_9  and  C_10
REMARK    6  A    between atoms: C_14  and  C_15
REMARK    7  A    between atoms: C_17  and  N_18
REMARK    8  A    between atoms: N_18  and  C_19
REMARK                            x       y       z     vdW  Elec       q    Type
REMARK                         _______ _______ _______ _____ _____    ______ ____
ROOT
ATOM      1  C   UNL     1       2.776   6.940  19.030  0.00  0.00    +0.000 A 
ATOM      2  C   UNL     1       2.057   8.127  18.870  0.00  0.00    +0.000 A 
ATOM      3 CL   UNL     1       1.957   9.012  17.382  0.00  0.00    +0.000 Cl
ATOM      4  N   UNL     1       1.277   8.721  19.792  0.00  0.00    +0.000 NA
ATOM      5  C   UNL     1       1.152   8.073  20.944  0.00  0.00    +0.000 A 
ATOM      6  C   UNL     1       0.340   8.723  22.019  0.00  0.00    +0.000 C 
ATOM      7  N   UNL     1       1.696   6.875  21.195  0.00  0.00    +0.000 NA
ATOM      8  C   UNL     1       2.497   6.313  20.261  0.00  0.00    +0.000 A 
ENDROOT
BRANCH   1  12
ATOM      9  C   UNL     1       5.493   5.424  15.977  0.00  0.00    +0.000 A 
ATOM     10  C   UNL     1       4.458   4.633  16.469  0.00  0.00    +0.000 A 
ATOM     11  C   UNL     1       3.580   5.140  17.437  0.00  0.00    +0.000 A 
ATOM     12  C   UNL     1       3.738   6.423  18.006  0.00  0.00    +0.000 A 
ATOM     13  C   UNL     1       4.828   7.175  17.532  0.00  0.00    +0.000 A 
ATOM     14  C   UNL     1       5.678   6.700  16.516  0.00  0.00    +0.000 A 
BRANCH   9  15
ATOM     15  C   UNL     1       6.354   4.864  14.897  0.00  0.00    +0.000 C 
ATOM     16  O   UNL     1       7.523   5.166  14.753  0.00  0.00    +0.000 OA
BRANCH  15  17
ATOM     17  O   UNL     1       5.651   4.000  14.133  0.00  0.00    +0.000 OA
BRANCH  17  19
ATOM     18  C   UNL     1       5.155   3.194  11.907  0.00  0.00    +0.000 C 
ATOM     19  C   UNL     1       6.239   3.613  12.881  0.00  0.00    +0.000 C 
ENDBRANCH  17  19
ENDBRANCH  15  17
ENDBRANCH   9  15
ENDBRANCH   1  12
BRANCH   8  20
ATOM     20  N   UNL     1       3.009   5.049  20.557  0.00  0.00    +0.000 N 
ATOM     21  H   UNL     1       3.767   5.072  21.230  0.00  0.00    +0.000 HD
BRANCH  20  22
ATOM     22  C   UNL     1       2.145   3.867  20.589  0.00  0.00    +0.000 C 
ATOM     23  C   UNL     1       1.009   4.070  19.583  0.00  0.00    +0.000 C 
ATOM     24  C   UNL     1       0.686   2.701  19.013  0.00  0.00    +0.000 C 
ATOM     25  C   UNL     1       1.950   1.870  19.152  0.00  0.00    +0.000 C 
ATOM     26  C   UNL     1       2.883   2.614  20.104  0.00  0.00    +0.000 C 
ENDBRANCH  20  22
ENDBRANCH   8  20
TORSDOF 6
ENDMDL
MODEL 2
REMARK VINA RESULT:      -8.1      0.397      1.040
REMARK  Name = 
REMARK  8 active torsions:
REMARK  status: ('A' for Active; 'I' for Inactive)
REMARK    1  A    between atoms: C_1  and  C_2
REMARK    2  A    between atoms: C_2  and  O_3
REMARK    3  A    between atoms: O_3  and  C_4
REMARK    4  A    between atoms: C_4  and  C_6
REMARK    5  A    between atoms: C_9  and  C_10
REMARK    6  A    between atoms: C_14  and  C_15
REMARK    7  A    between atoms: C_17  and  N_18
REMARK    8  A    between atoms: N_18  and  C_19
REMARK                            x       y       z     vdW  Elec       q    Type
REMARK                         _______ _______ _______ _____ _____    ______ ____
ROOT
ATOM      1  C   UNL     1       2.760   6.958  18.992  0.00  0.00    +0.000 A 
ATOM      2  C   UNL     1       2.065   8.154  18.801  0.00  0.00    +0.000 A 
ATOM      3 CL   UNL     1       1.967   8.992  17.286  0.00  0.00    +0.000 Cl
ATOM      4  N   UNL     1       1.311   8.796  19.711  0.00  0.00    +0.000 NA
ATOM      5  C   UNL     1       1.186   8.189  20.886  0.00  0.00    +0.000 A 
ATOM      6  C   UNL     1       0.401   8.892  21.948  0.00  0.00    +0.000 C 
ATOM      7  N   UNL     1       1.706   6.988  21.170  0.00  0.00    +0.000 NA
ATOM      8  C   UNL     1       2.482   6.378  20.246  0.00  0.00    +0.000 A 
ENDROOT
BRANCH   1  12
ATOM      9  C   UNL     1       5.572   5.307  16.098  0.00  0.00    +0.000 A 
ATOM     10  C   UNL     1       5.663   6.636  16.505  0.00  0.00    +0.000 A 
ATOM     11  C   UNL     1       4.764   7.148  17.451  0.00  0.00    +0.000 A 
ATOM     12  C   UNL     1       3.697   6.385  17.974  0.00  0.00    +0.000 A 
ATOM     13  C   UNL     1       3.595   5.064  17.500  0.00  0.00    +0.000 A 
ATOM     14  C   UNL     1       4.529   4.521  16.598  0.00  0.00    +0.000 A 
BRANCH   9  15
ATOM     15  C   UNL     1       6.596   4.790  15.146  0.00  0.00    +0.000 C 
ATOM     16  O   UNL     1       7.663   5.340  14.954  0.00  0.00    +0.000 OA
BRANCH  15  17
ATOM     17  O   UNL     1       6.161   3.657  14.554  0.00  0.00    +0.000 OA
BRANCH  17  19
ATOM     18  C   UNL     1       6.682   3.545  12.194  0.00  0.00    +0.000 C 
ATOM     19  C   UNL     1       5.606   3.786  13.235  0.00  0.00    +0.000 C 
ENDBRANCH  17  19
ENDBRANCH  15  17
ENDBRANCH   9  15
ENDBRANCH   1  12
BRANCH   8  20
ATOM     20  N   UNL     1       2.969   5.113  20.577  0.00  0.00    +0.000 N 
ATOM     21  H   UNL     1       3.729   5.140  21.249  0.00  0.00    +0.000 HD
BRANCH  20  22
ATOM     22  C   UNL     1       2.083   3.949  20.644  0.00  0.00    +0.000 C 
ATOM     23  C   UNL     1       1.005   4.099  19.567  0.00  0.00    +0.000 C 
ATOM     24  C   UNL     1       0.686   2.699  19.076  0.00  0.00    +0.000 C 
ATOM     25  C   UNL     1       1.925   1.861  19.340  0.00  0.00    +0.000 C 
ATOM     26  C   UNL     1       2.820   2.654  20.288  0.00  0.00    +0.000 C 
ENDBRANCH  20  22
ENDBRANCH   8  20
TORSDOF 6
ENDMDL
MODEL 3
REMARK VINA RESULT:      -7.9      3.651      6.790
REMARK  Name = 
REMARK  8 active torsions:
REMARK  status: ('A' for Active; 'I' for Inactive)
REMARK    1  A    between atoms: C_1  and  C_2
REMARK    2  A    between atoms: C_2  and  O_3
REMARK    3  A    between atoms: O_3  and  C_4
REMARK    4  A    between atoms: C_4  and  C_6
REMARK    5  A    between atoms: C_9  and  C_10
REMARK    6  A    between atoms: C_14  and  C_15
REMARK    7  A    between atoms: C_17  and  N_18
REMARK    8  A    between atoms: N_18  and  C_19
REMARK                            x       y       z     vdW  Elec       q    Type
REMARK                         _______ _______ _______ _____ _____    ______ ____
ROOT
ATOM      1  C   UNL     1       3.795   6.098  17.614  0.00  0.00    +0.000 A 
ATOM      2  C   UNL     1       5.087   6.360  17.151  0.00  0.00    +0.000 A 
ATOM      3 CL   UNL     1       5.994   7.783  17.550  0.00  0.00    +0.000 Cl
ATOM      4  N   UNL     1       5.852   5.541  16.406  0.00  0.00    +0.000 NA
ATOM      5  C   UNL     1       5.329   4.350  16.139  0.00  0.00    +0.000 A 
ATOM      6  C   UNL     1       6.121   3.426  15.269  0.00  0.00    +0.000 C 
ATOM      7  N   UNL     1       4.149   3.925  16.611  0.00  0.00    +0.000 NA
ATOM      8  C   UNL     1       3.389   4.778  17.333  0.00  0.00    +0.000 A 
ENDROOT
BRANCH   1  12
ATOM      9  C   UNL     1       1.264   9.056  19.574  0.00  0.00    +0.000 A 
ATOM     10  C   UNL     1       1.671   9.227  18.253  0.00  0.00    +0.000 A 
ATOM     11  C   UNL     1       2.469   8.258  17.629  0.00  0.00    +0.000 A 
ATOM     12  C   UNL     1       2.953   7.121  18.312  0.00  0.00    +0.000 A 
ATOM     13  C   UNL     1       2.574   7.006  19.662  0.00  0.00    +0.000 A 
ATOM     14  C   UNL     1       1.722   7.940  20.280  0.00  0.00    +0.000 A 
BRANCH   9  15
ATOM     15  C   UNL     1       0.356  10.079  20.168  0.00  0.00    +0.000 C 
ATOM     16  O   UNL     1       0.372  11.251  19.846  0.00  0.00    +0.000 OA
BRANCH  15  17
ATOM     17  O   UNL     1      -0.455   9.513  21.088  0.00  0.00    +0.000 OA
BRANCH  17  19
ATOM     18  C   UNL     1       0.125   9.454  23.436  0.00  0.00    +0.000 C 
ATOM     19  C   UNL     1      -0.602  10.205  22.338  0.00  0.00    +0.000 C 
ENDBRANCH  17  19
ENDBRANCH  15  17
ENDBRANCH   9  15
ENDBRANCH   1  12
BRANCH   8  20
ATOM     20  N   UNL     1       2.187   4.274  17.831  0.00  0.00    +0.000 N 
ATOM     21  H   UNL     1       1.437   4.281  17.148  0.00  0.00    +0.000 HD
BRANCH  20  22
ATOM     22  C   UNL     1       2.165   3.186  18.810  0.00  0.00    +0.000 C 
ATOM     23  C   UNL     1       3.259   3.447  19.848  0.00  0.00    +0.000 C 
ATOM     24  C   UNL     1       2.734   2.923  21.173  0.00  0.00    +0.000 C 
ATOM     25  C   UNL     1       1.218   2.965  21.078  0.00  0.00    +0.000 C 
ATOM     26  C   UNL     1       0.857   3.170  19.610  0.00  0.00    +0.000 C 
ENDBRANCH  20  22
ENDBRANCH   8  20
TORSDOF 6
ENDMDL
MODEL 4
REMARK VINA RESULT:      -7.9      3.782      6.504
REMARK  Name = 
REMARK  8 active torsions:
REMARK  status: ('A' for Active; 'I' for Inactive)
REMARK    1  A    between atoms: C_1  and  C_2
REMARK    2  A    between atoms: C_2  and  O_3
REMARK    3  A    between atoms: O_3  and  C_4
REMARK    4  A    between atoms: C_4  and  C_6
REMARK    5  A    between atoms: C_9  and  C_10
REMARK    6  A    between atoms: C_14  and  C_15
REMARK    7  A    between atoms: C_17  and  N_18
REMARK    8  A    between atoms: N_18  and  C_19
REMARK                            x       y       z     vdW  Elec       q    Type
REMARK                         _______ _______ _______ _____ _____    ______ ____
ROOT
ATOM      1  C   UNL     1       3.721   6.092  17.649  0.00  0.00    +0.000 A 
ATOM      2  C   UNL     1       5.002   6.371  17.169  0.00  0.00    +0.000 A 
ATOM      3 CL   UNL     1       5.890   7.812  17.545  0.00  0.00    +0.000 Cl
ATOM      4  N   UNL     1       5.772   5.559  16.422  0.00  0.00    +0.000 NA
ATOM      5  C   UNL     1       5.265   4.357  16.170  0.00  0.00    +0.000 A 
ATOM      6  C   UNL     1       6.062   3.439  15.298  0.00  0.00    +0.000 C 
ATOM      7  N   UNL     1       4.099   3.917  16.659  0.00  0.00    +0.000 NA
ATOM      8  C   UNL     1       3.333   4.764  17.384  0.00  0.00    +0.000 A 
ENDROOT
BRANCH   1  12
ATOM      9  C   UNL     1       1.326   9.063  19.758  0.00  0.00    +0.000 A 
ATOM     10  C   UNL     1       1.715   7.881  20.386  0.00  0.00    +0.000 A 
ATOM     11  C   UNL     1       2.501   6.944  19.702  0.00  0.00    +0.000 A 
ATOM     12  C   UNL     1       2.871   7.107  18.349  0.00  0.00    +0.000 A 
ATOM     13  C   UNL     1       2.413   8.282  17.724  0.00  0.00    +0.000 A 
ATOM     14  C   UNL     1       1.677   9.259  18.420  0.00  0.00    +0.000 A 
BRANCH   9  15
ATOM     15  C   UNL     1       0.553  10.060  20.553  0.00  0.00    +0.000 C 
ATOM     16  O   UNL     1       1.065  10.803  21.366  0.00  0.00    +0.000 OA
BRANCH  15  17
ATOM     17  O   UNL     1      -0.758  10.003  20.233  0.00  0.00    +0.000 OA
BRANCH  17  19
ATOM     18  C   UNL     1      -1.922  10.322  18.137  0.00  0.00    +0.000 C 
ATOM     19  C   UNL     1      -1.246  10.994  19.316  0.00  0.00    +0.000 C 
ENDBRANCH  17  19
ENDBRANCH  15  17
ENDBRANCH   9  15
ENDBRANCH   1  12
BRANCH   8  20
ATOM     20  N   UNL     1       2.145   4.244  17.900  0.00  0.00    +0.000 N 
ATOM     21  H   UNL     1       1.381   4.255  17.233  0.00  0.00    +0.000 HD
BRANCH  20  22
ATOM     22  C   UNL     1       2.152   3.143  18.865  0.00  0.00    +0.000 C 
ATOM     23  C   UNL     1       3.256   3.407  19.893  0.00  0.00    +0.000 C 
ATOM     24  C   UNL     1       2.756   2.857  21.216  0.00  0.00    +0.000 C 
ATOM     25  C   UNL     1       1.239   2.879  21.142  0.00  0.00    +0.000 C 
ATOM     26  C   UNL     1       0.855   3.098  19.681  0.00  0.00    +0.000 C 
ENDBRANCH  20  22
ENDBRANCH   8  20
TORSDOF 6
ENDMDL
MODEL 5
REMARK VINA RESULT:      -7.8      3.679      6.865
REMARK  Name = 
REMARK  8 active torsions:
REMARK  status: ('A' for Active; 'I' for Inactive)
REMARK    1  A    between atoms: C_1  and  C_2
REMARK    2  A    between atoms: C_2  and  O_3
REMARK    3  A    between atoms: O_3  and  C_4
REMARK    4  A    between atoms: C_4  and  C_6
REMARK    5  A    between atoms: C_9  and  C_10
REMARK    6  A    between atoms: C_14  and  C_15
REMARK    7  A    between atoms: C_17  and  N_18
REMARK    8  A    between atoms: N_18  and  C_19
REMARK                            x       y       z     vdW  Elec       q    Type
REMARK                         _______ _______ _______ _____ _____    ______ ____
ROOT
ATOM      1  C   UNL     1       3.639   6.064  17.675  0.00  0.00    +0.000 A 
ATOM      2  C   UNL     1       4.914   6.355  17.184  0.00  0.00    +0.000 A 
ATOM      3 CL   UNL     1       5.802   7.793  17.571  0.00  0.00    +0.000 Cl
ATOM      4  N   UNL     1       5.678   5.556  16.417  0.00  0.00    +0.000 NA
ATOM      5  C   UNL     1       5.172   4.356  16.154  0.00  0.00    +0.000 A 
ATOM      6  C   UNL     1       5.961   3.454  15.260  0.00  0.00    +0.000 C 
ATOM      7  N   UNL     1       4.013   3.905  16.650  0.00  0.00    +0.000 NA
ATOM      8  C   UNL     1       3.253   4.739  17.396  0.00  0.00    +0.000 A 
ENDROOT
BRANCH   1  12
ATOM      9  C   UNL     1       1.260   8.997  19.853  0.00  0.00    +0.000 A 
ATOM     10  C   UNL     1       1.679   7.819  20.467  0.00  0.00    +0.000 A 
ATOM     11  C   UNL     1       2.460   6.894  19.760  0.00  0.00    +0.000 A 
ATOM     12  C   UNL     1       2.793   7.066  18.399  0.00  0.00    +0.000 A 
ATOM     13  C   UNL     1       2.306   8.237  17.790  0.00  0.00    +0.000 A 
ATOM     14  C   UNL     1       1.574   9.202  18.507  0.00  0.00    +0.000 A 
BRANCH   9  15
ATOM     15  C   UNL     1       0.494   9.982  20.669  0.00  0.00    +0.000 C 
ATOM     16  O   UNL     1       0.642  11.185  20.574  0.00  0.00    +0.000 OA
BRANCH  15  17
ATOM     17  O   UNL     1      -0.358   9.344  21.501  0.00  0.00    +0.000 OA
BRANCH  17  19
ATOM     18  C   UNL     1      -1.268  10.862  23.149  0.00  0.00    +0.000 C 
ATOM     19  C   UNL     1      -0.311   9.716  22.887  0.00  0.00    +0.000 C 
ENDBRANCH  17  19
ENDBRANCH  15  17
ENDBRANCH   9  15
ENDBRANCH   1  12
BRANCH   8  20
ATOM     20  N   UNL     1       2.072   4.207  17.918  0.00  0.00    +0.000 N 
ATOM     21  H   UNL     1       1.308   4.202  17.252  0.00  0.00    +0.000 HD
BRANCH  20  22
ATOM     22  C   UNL     1       2.095   3.115  18.892  0.00  0.00    +0.000 C 
ATOM     23  C   UNL     1       3.251   3.359  19.865  0.00  0.00    +0.000 C 
ATOM     24  C   UNL     1       2.799   2.834  21.216  0.00  0.00    +0.000 C 
ATOM     25  C   UNL     1       1.281   2.895  21.211  0.00  0.00    +0.000 C 
ATOM     26  C   UNL     1       0.837   3.111  19.767  0.00  0.00    +0.000 C 
ENDBRANCH  20  22
ENDBRANCH   8  20
TORSDOF 6
ENDMDL
MODEL 6
REMARK VINA RESULT:      -7.8      3.633      6.622
REMARK  Name = 
REMARK  8 active torsions:
REMARK  status: ('A' for Active; 'I' for Inactive)
REMARK    1  A    between atoms: C_1  and  C_2
REMARK    2  A    between atoms: C_2  and  O_3
REMARK    3  A    between atoms: O_3  and  C_4
REMARK    4  A    between atoms: C_4  and  C_6
REMARK    5  A    between atoms: C_9  and  C_10
REMARK    6  A    between atoms: C_14  and  C_15
REMARK    7  A    between atoms: C_17  and  N_18
REMARK    8  A    between atoms: N_18  and  C_19
REMARK                            x       y       z     vdW  Elec       q    Type
REMARK                         _______ _______ _______ _____ _____    ______ ____
ROOT
ATOM      1  C   UNL     1       3.175   5.199  19.458  0.00  0.00    +0.000 A 
ATOM      2  C   UNL     1       2.482   4.089  19.947  0.00  0.00    +0.000 A 
ATOM      3 CL   UNL     1       0.762   4.029  20.152  0.00  0.00    +0.000 Cl
ATOM      4  N   UNL     1       3.007   2.890  20.255  0.00  0.00    +0.000 NA
ATOM      5  C   UNL     1       4.306   2.751  20.015  0.00  0.00    +0.000 A 
ATOM      6  C   UNL     1       4.946   1.453  20.393  0.00  0.00    +0.000 C 
ATOM      7  N   UNL     1       5.070   3.694  19.447  0.00  0.00    +0.000 NA
ATOM      8  C   UNL     1       4.522   4.900  19.173  0.00  0.00    +0.000 A 
ENDROOT
BRANCH   1  12
ATOM      9  C   UNL     1       1.410   9.159  19.007  0.00  0.00    +0.000 A 
ATOM     10  C   UNL     1       1.441   8.528  20.248  0.00  0.00    +0.000 A 
ATOM     11  C   UNL     1       2.029   7.263  20.382  0.00  0.00    +0.000 A 
ATOM     12  C   UNL     1       2.543   6.545  19.280  0.00  0.00    +0.000 A 
ATOM     13  C   UNL     1       2.444   7.183  18.030  0.00  0.00    +0.000 A 
ATOM     14  C   UNL     1       1.912   8.479  17.894  0.00  0.00    +0.000 A 
BRANCH   9  15
ATOM     15  C   UNL     1       0.839  10.535  18.931  0.00  0.00    +0.000 C 
ATOM     16  O   UNL     1       1.505  11.519  18.678  0.00  0.00    +0.000 OA
BRANCH  15  17
ATOM     17  O   UNL     1      -0.488  10.509  19.181  0.00  0.00    +0.000 OA
BRANCH  17  19
ATOM     18  C   UNL     1      -1.808   9.968  17.227  0.00  0.00    +0.000 C 
ATOM     19  C   UNL     1      -1.349  11.061  18.173  0.00  0.00    +0.000 C 
ENDBRANCH  17  19
ENDBRANCH  15  17
ENDBRANCH   9  15
ENDBRANCH   1  12
BRANCH   8  20
ATOM     20  N   UNL     1       5.351   5.833  18.548  0.00  0.00    +0.000 N 
ATOM     21  H   UNL     1       6.146   6.105  19.116  0.00  0.00    +0.000 HD
BRANCH  20  22
ATOM     22  C   UNL     1       5.560   5.816  17.100  0.00  0.00    +0.000 C 
ATOM     23  C   UNL     1       7.029   5.483  16.827  0.00  0.00    +0.000 C 
ATOM     24  C   UNL     1       7.058   4.673  15.544  0.00  0.00    +0.000 C 
ATOM     25  C   UNL     1       5.698   4.007  15.428  0.00  0.00    +0.000 C 
ATOM     26  C   UNL     1       4.768   4.690  16.426  0.00  0.00    +0.000 C 
ENDBRANCH  20  22
ENDBRANCH   8  20
TORSDOF 6
ENDMDL
MODEL 7
REMARK VINA RESULT:      -7.7      3.635      6.646
REMARK  Name = 
REMARK  8 active torsions:
REMARK  status: ('A' for Active; 'I' for Inactive)
REMARK    1  A    between atoms: C_1  and  C_2
REMARK    2  A    between atoms: C_2  and  O_3
REMARK    3  A    between atoms: O_3  and  C_4
REMARK    4  A    between atoms: C_4  and  C_6
REMARK    5  A    between atoms: C_9  and  C_10
REMARK    6  A    between atoms: C_14  and  C_15
REMARK    7  A    between atoms: C_17  and  N_18
REMARK    8  A    between atoms: N_18  and  C_19
REMARK                            x       y       z     vdW  Elec       q    Type
REMARK                         _______ _______ _______ _____ _____    ______ ____
ROOT
ATOM      1  C   UNL     1       3.193   5.249  19.491  0.00  0.00    +0.000 A 
ATOM      2  C   UNL     1       2.486   4.138  19.956  0.00  0.00    +0.000 A 
ATOM      3 CL   UNL     1       0.764   4.094  20.155  0.00  0.00    +0.000 Cl
ATOM      4  N   UNL     1       2.996   2.927  20.243  0.00  0.00    +0.000 NA
ATOM      5  C   UNL     1       4.294   2.778  20.003  0.00  0.00    +0.000 A 
ATOM      6  C   UNL     1       4.917   1.465  20.358  0.00  0.00    +0.000 C 
ATOM      7  N   UNL     1       5.070   3.723  19.455  0.00  0.00    +0.000 NA
ATOM      8  C   UNL     1       4.537   4.940  19.203  0.00  0.00    +0.000 A 
ENDROOT
BRANCH   1  12
ATOM      9  C   UNL     1       1.324   9.154  18.977  0.00  0.00    +0.000 A 
ATOM     10  C   UNL     1       1.896   8.488  17.895  0.00  0.00    +0.000 A 
ATOM     11  C   UNL     1       2.477   7.224  18.072  0.00  0.00    +0.000 A 
ATOM     12  C   UNL     1       2.577   6.605  19.337  0.00  0.00    +0.000 A 
ATOM     13  C   UNL     1       2.043   7.329  20.419  0.00  0.00    +0.000 A 
ATOM     14  C   UNL     1       1.402   8.570  20.244  0.00  0.00    +0.000 A 
BRANCH   9  15
ATOM     15  C   UNL     1       0.655  10.462  18.723  0.00  0.00    +0.000 C 
ATOM     16  O   UNL     1       1.044  11.511  19.196  0.00  0.00    +0.000 OA
BRANCH  15  17
ATOM     17  O   UNL     1      -0.414  10.296  17.914  0.00  0.00    +0.000 OA
BRANCH  17  19
ATOM     18  C   UNL     1      -2.761   9.818  17.577  0.00  0.00    +0.000 C 
ATOM     19  C   UNL     1      -1.710  10.350  18.531  0.00  0.00    +0.000 C 
ENDBRANCH  17  19
ENDBRANCH  15  17
ENDBRANCH   9  15
ENDBRANCH   1  12
BRANCH   8  20
ATOM     20  N   UNL     1       5.378   5.875  18.599  0.00  0.00    +0.000 N 
ATOM     21  H   UNL     1       6.142   6.171  19.197  0.00  0.00    +0.000 HD
BRANCH  20  22
ATOM     22  C   UNL     1       5.655   5.834  17.162  0.00  0.00    +0.000 C 
ATOM     23  C   UNL     1       7.081   5.316  16.958  0.00  0.00    +0.000 C 
ATOM     24  C   UNL     1       7.069   4.511  15.671  0.00  0.00    +0.000 C 
ATOM     25  C   UNL     1       5.642   4.025  15.484  0.00  0.00    +0.000 C 
ATOM     26  C   UNL     1       4.759   4.820  16.442  0.00  0.00    +0.000 C 
ENDBRANCH  20  22
ENDBRANCH   8  20
TORSDOF 6
ENDMDL
MODEL 8
REMARK VINA RESULT:      -7.7      1.115      1.441
REMARK  Name = 
REMARK  8 active torsions:
REMARK  status: ('A' for Active; 'I' for Inactive)
REMARK    1  A    between atoms: C_1  and  C_2
REMARK    2  A    between atoms: C_2  and  O_3
REMARK    3  A    between atoms: O_3  and  C_4
REMARK    4  A    between atoms: C_4  and  C_6
REMARK    5  A    between atoms: C_9  and  C_10
REMARK    6  A    between atoms: C_14  and  C_15
REMARK    7  A    between atoms: C_17  and  N_18
REMARK    8  A    between atoms: N_18  and  C_19
REMARK                            x       y       z     vdW  Elec       q    Type
REMARK                         _______ _______ _______ _____ _____    ______ ____
ROOT
ATOM      1  C   UNL     1       2.590   7.116  19.496  0.00  0.00    +0.000 A 
ATOM      2  C   UNL     1       1.998   8.337  19.165  0.00  0.00    +0.000 A 
ATOM      3 CL   UNL     1       2.300   9.198  17.691  0.00  0.00    +0.000 Cl
ATOM      4  N   UNL     1       1.061   8.991  19.876  0.00  0.00    +0.000 NA
ATOM      5  C   UNL     1       0.634   8.373  20.971  0.00  0.00    +0.000 A 
ATOM      6  C   UNL     1      -0.368   9.086  21.822  0.00  0.00    +0.000 C 
ATOM      7  N   UNL     1       1.033   7.151  21.348  0.00  0.00    +0.000 NA
ATOM      8  C   UNL     1       1.996   6.529  20.630  0.00  0.00    +0.000 A 
ENDROOT
BRANCH   1  12
ATOM      9  C   UNL     1       5.961   5.499  17.255  0.00  0.00    +0.000 A 
ATOM     10  C   UNL     1       5.118   6.452  16.688  0.00  0.00    +0.000 A 
ATOM     11  C   UNL     1       4.049   6.977  17.427  0.00  0.00    +0.000 A 
ATOM     12  C   UNL     1       3.732   6.527  18.727  0.00  0.00    +0.000 A 
ATOM     13  C   UNL     1       4.567   5.522  19.250  0.00  0.00    +0.000 A 
ATOM     14  C   UNL     1       5.680   5.032  18.541  0.00  0.00    +0.000 A 
BRANCH   9  15
ATOM     15  C   UNL     1       7.127   5.026  16.454  0.00  0.00    +0.000 C 
ATOM     16  O   UNL     1       7.938   4.222  16.870  0.00  0.00    +0.000 OA
BRANCH  15  17
ATOM     17  O   UNL     1       7.133   5.614  15.238  0.00  0.00    +0.000 OA
BRANCH  17  19
ATOM     18  C   UNL     1       5.876   4.020  13.923  0.00  0.00    +0.000 C 
ATOM     19  C   UNL     1       7.196   4.744  14.097  0.00  0.00    +0.000 C 
ENDBRANCH  17  19
ENDBRANCH  15  17
ENDBRANCH   9  15
ENDBRANCH   1  12
BRANCH   8  20
ATOM     20  N   UNL     1       2.350   5.244  21.044  0.00  0.00    +0.000 N 
ATOM     21  H   UNL     1       2.854   5.232  21.924  0.00  0.00    +0.000 HD
BRANCH  20  22
ATOM     22  C   UNL     1       1.488   4.092  20.773  0.00  0.00    +0.000 C 
ATOM     23  C   UNL     1       1.127   4.097  19.285  0.00  0.00    +0.000 C 
ATOM     24  C   UNL     1       1.023   2.644  18.860  0.00  0.00    +0.000 C 
ATOM     25  C   UNL     1       1.899   1.854  19.818  0.00  0.00    +0.000 C 
ATOM     26  C   UNL     1       2.226   2.767  20.996  0.00  0.00    +0.000 C 
ENDBRANCH  20  22
ENDBRANCH   8  20
TORSDOF 6
ENDMDL
MODEL 9
REMARK VINA RESULT:      -7.6      2.356      4.114
REMARK  Name = 
REMARK  8 active torsions:
REMARK  status: ('A' for Active; 'I' for Inactive)
REMARK    1  A    between atoms: C_1  and  C_2
REMARK    2  A    between atoms: C_2  and  O_3
REMARK    3  A    between atoms: O_3  and  C_4
REMARK    4  A    between atoms: C_4  and  C_6
REMARK    5  A    between atoms: C_9  and  C_10
REMARK    6  A    between atoms: C_14  and  C_15
REMARK    7  A    between atoms: C_17  and  N_18
REMARK    8  A    between atoms: N_18  and  C_19
REMARK                            x       y       z     vdW  Elec       q    Type
REMARK                         _______ _______ _______ _____ _____    ______ ____
ROOT
ATOM      1  C   UNL     1       3.803   3.704  19.212  0.00  0.00    +0.000 A 
ATOM      2  C   UNL     1       3.599   2.411  19.700  0.00  0.00    +0.000 A 
ATOM      3 CL   UNL     1       4.484   1.018  19.166  0.00  0.00    +0.000 Cl
ATOM      4  N   UNL     1       2.765   2.052  20.692  0.00  0.00    +0.000 NA
ATOM      5  C   UNL     1       2.119   3.047  21.289  0.00  0.00    +0.000 A 
ATOM      6  C   UNL     1       1.139   2.692  22.362  0.00  0.00    +0.000 C 
ATOM      7  N   UNL     1       2.301   4.342  20.998  0.00  0.00    +0.000 NA
ATOM      8  C   UNL     1       3.124   4.672  19.977  0.00  0.00    +0.000 A 
ENDROOT
BRANCH   1  12
ATOM      9  C   UNL     1       6.167   4.647  15.672  0.00  0.00    +0.000 A 
ATOM     10  C   UNL     1       4.852   4.203  15.556  0.00  0.00    +0.000 A 
ATOM     11  C   UNL     1       4.097   3.922  16.704  0.00  0.00    +0.000 A 
ATOM     12  C   UNL     1       4.639   4.000  18.005  0.00  0.00    +0.000 A 
ATOM     13  C   UNL     1       5.987   4.394  18.087  0.00  0.00    +0.000 A 
ATOM     14  C   UNL     1       6.735   4.739  16.946  0.00  0.00    +0.000 A 
BRANCH   9  15
ATOM     15  C   UNL     1       6.903   5.002  14.425  0.00  0.00    +0.000 C 
ATOM     16  O   UNL     1       8.004   5.515  14.425  0.00  0.00    +0.000 OA
BRANCH  15  17
ATOM     17  O   UNL     1       6.172   4.674  13.337  0.00  0.00    +0.000 OA
BRANCH  17  19
ATOM     18  C   UNL     1       5.528   2.897  11.828  0.00  0.00    +0.000 C 
ATOM     19  C   UNL     1       6.677   3.611  12.514  0.00  0.00    +0.000 C 
ENDBRANCH  17  19
ENDBRANCH  15  17
ENDBRANCH   9  15
ENDBRANCH   1  12
BRANCH   8  20
ATOM     20  N   UNL     1       3.307   6.035  19.739  0.00  0.00    +0.000 N 
ATOM     21  H   UNL     1       4.278   6.289  19.592  0.00  0.00    +0.000 HD
BRANCH  20  22
ATOM     22  C   UNL     1       2.311   6.820  19.007  0.00  0.00    +0.000 C 
ATOM     23  C   UNL     1       1.782   7.917  19.935  0.00  0.00    +0.000 C 
ATOM     24  C   UNL     1       1.487   9.121  19.058  0.00  0.00    +0.000 C 
ATOM     25  C   UNL     1       2.388   8.994  17.842  0.00  0.00    +0.000 C 
ATOM     26  C   UNL     1       2.938   7.570  17.826  0.00  0.00    +0.000 C 
ENDBRANCH  20  22
ENDBRANCH   8  20
TORSDOF 6
ENDMDL
