MODEL 1
REMARK VINA RESULT:      -7.9      0.000      0.000
REMARK  Name = 
REMARK  3 active torsions:
REMARK  status: ('A' for Active; 'I' for Inactive)
REMARK    1  A    between atoms: C_1  and  O_2
REMARK    2  A    between atoms: O_2  and  C_3
REMARK    3  A    between atoms: C_6  and  C_7
REMARK                            x       y       z     vdW  Elec       q    Type
REMARK                         _______ _______ _______ _____ _____    ______ ____
ROOT
ATOM      1  C   UNL     1       8.366   8.549  18.199  0.00  0.00    +0.000 A 
ATOM      2  N   UNL     1       7.661   8.087  17.106  0.00  0.00    +0.000 NA
ATOM      3  C   UNL     1       7.336   6.857  17.443  0.00  0.00    +0.000 A 
ATOM      4  C   UNL     1       6.517   5.863  16.792  0.00  0.00    +0.000 A 
ATOM      5  C   UNL     1       6.152   5.895  15.449  0.00  0.00    +0.000 A 
ATOM      6  C   UNL     1       5.306   4.901  14.940  0.00  0.00    +0.000 A 
ATOM      7  C   UNL     1       4.789   3.906  15.777  0.00  0.00    +0.000 A 
ATOM      8  C   UNL     1       5.166   3.856  17.117  0.00  0.00    +0.000 A 
ATOM      9  C   UNL     1       6.058   4.812  17.590  0.00  0.00    +0.000 A 
ATOM     10  O   UNL     1       6.541   4.648  18.912  0.00  0.00    +0.000 OA
ATOM     11  C   UNL     1       7.541   5.457  19.472  0.00  0.00    +0.000 A 
ATOM     12  O   UNL     1       8.085   5.249  20.548  0.00  0.00    +0.000 OA
ATOM     13  N   UNL     1       7.822   6.586  18.695  0.00  0.00    +0.000 N 
ATOM     14  N   UNL     1       8.574   7.616  19.143  0.00  0.00    +0.000 NA
ENDROOT
BRANCH   1  18
ATOM     15  C   UNL     1       9.388  12.646  18.934  0.00  0.00    +0.000 A 
ATOM     16  C   UNL     1       8.669  12.294  17.789  0.00  0.00    +0.000 A 
ATOM     17  C   UNL     1       8.350  10.949  17.523  0.00  0.00    +0.000 A 
ATOM     18  C   UNL     1       8.761   9.942  18.396  0.00  0.00    +0.000 A 
ATOM     19  C   UNL     1       9.510  10.305  19.525  0.00  0.00    +0.000 A 
ATOM     20  C   UNL     1       9.825  11.642  19.794  0.00  0.00    +0.000 A 
BRANCH  15  22
ATOM     21  C   UNL     1      10.009  14.689  17.915  0.00  0.00    +0.000 C 
ATOM     22  O   UNL     1       9.637  13.980  19.092  0.00  0.00    +0.000 OA
ENDBRANCH  15  22
ENDBRANCH   1  18
TORSDOF 2
ENDMDL
MODEL 2
REMARK VINA RESULT:      -7.9      0.306      1.065
REMARK  Name = 
REMARK  3 active torsions:
REMARK  status: ('A' for Active; 'I' for Inactive)
REMARK    1  A    between atoms: C_1  and  O_2
REMARK    2  A    between atoms: O_2  and  C_3
REMARK    3  A    between atoms: C_6  and  C_7
REMARK                            x       y       z     vdW  Elec       q    Type
REMARK                         _______ _______ _______ _____ _____    ______ ____
ROOT
ATOM      1  C   UNL     1       8.352   8.590  18.196  0.00  0.00    +0.000 A 
ATOM      2  N   UNL     1       7.668   8.123  17.092  0.00  0.00    +0.000 NA
ATOM      3  C   UNL     1       7.355   6.887  17.421  0.00  0.00    +0.000 A 
ATOM      4  C   UNL     1       6.557   5.885  16.755  0.00  0.00    +0.000 A 
ATOM      5  C   UNL     1       6.209   5.917  15.408  0.00  0.00    +0.000 A 
ATOM      6  C   UNL     1       5.383   4.914  14.885  0.00  0.00    +0.000 A 
ATOM      7  C   UNL     1       4.869   3.909  15.712  0.00  0.00    +0.000 A 
ATOM      8  C   UNL     1       5.229   3.859  17.056  0.00  0.00    +0.000 A 
ATOM      9  C   UNL     1       6.102   4.825  17.544  0.00  0.00    +0.000 A 
ATOM     10  O   UNL     1       6.570   4.663  18.872  0.00  0.00    +0.000 OA
ATOM     11  C   UNL     1       7.553   5.483  19.447  0.00  0.00    +0.000 A 
ATOM     12  O   UNL     1       8.085   5.278  20.529  0.00  0.00    +0.000 OA
ATOM     13  N   UNL     1       7.828   6.619  18.678  0.00  0.00    +0.000 N 
ATOM     14  N   UNL     1       8.561   7.657  19.139  0.00  0.00    +0.000 NA
ENDROOT
BRANCH   1  18
ATOM     15  C   UNL     1       9.565  12.678  18.629  0.00  0.00    +0.000 A 
ATOM     16  C   UNL     1      10.064  11.700  19.494  0.00  0.00    +0.000 A 
ATOM     17  C   UNL     1       9.653  10.359  19.378  0.00  0.00    +0.000 A 
ATOM     18  C   UNL     1       8.727   9.987  18.403  0.00  0.00    +0.000 A 
ATOM     19  C   UNL     1       8.210  10.984  17.563  0.00  0.00    +0.000 A 
ATOM     20  C   UNL     1       8.620  12.317  17.673  0.00  0.00    +0.000 A 
BRANCH  15  22
ATOM     21  C   UNL     1      11.141  14.335  18.022  0.00  0.00    +0.000 C 
ATOM     22  O   UNL     1      10.037  13.945  18.830  0.00  0.00    +0.000 OA
ENDBRANCH  15  22
ENDBRANCH   1  18
TORSDOF 2
ENDMDL
MODEL 3
REMARK VINA RESULT:      -7.8      4.640      7.563
REMARK  Name = 
REMARK  3 active torsions:
REMARK  status: ('A' for Active; 'I' for Inactive)
REMARK    1  A    between atoms: C_1  and  O_2
REMARK    2  A    between atoms: O_2  and  C_3
REMARK    3  A    between atoms: C_6  and  C_7
REMARK                            x       y       z     vdW  Elec       q    Type
REMARK                         _______ _______ _______ _____ _____    ______ ____
ROOT
ATOM      1  C   UNL     1       4.487   4.685  17.566  0.00  0.00    +0.000 A 
ATOM      2  N   UNL     1       4.356   4.062  16.341  0.00  0.00    +0.000 NA
ATOM      3  C   UNL     1       5.313   4.600  15.616  0.00  0.00    +0.000 A 
ATOM      4  C   UNL     1       5.784   4.321  14.280  0.00  0.00    +0.000 A 
ATOM      5  C   UNL     1       5.067   3.609  13.322  0.00  0.00    +0.000 A 
ATOM      6  C   UNL     1       5.650   3.353  12.074  0.00  0.00    +0.000 A 
ATOM      7  C   UNL     1       6.959   3.766  11.799  0.00  0.00    +0.000 A 
ATOM      8  C   UNL     1       7.673   4.496  12.745  0.00  0.00    +0.000 A 
ATOM      9  C   UNL     1       7.056   4.798  13.954  0.00  0.00    +0.000 A 
ATOM     10  O   UNL     1       7.746   5.668  14.834  0.00  0.00    +0.000 OA
ATOM     11  C   UNL     1       7.188   6.162  16.022  0.00  0.00    +0.000 A 
ATOM     12  O   UNL     1       7.694   7.028  16.723  0.00  0.00    +0.000 OA
ATOM     13  N   UNL     1       6.001   5.510  16.375  0.00  0.00    +0.000 N 
ATOM     14  N   UNL     1       5.415   5.655  17.584  0.00  0.00    +0.000 NA
ENDROOT
BRANCH   1  18
ATOM     15  C   UNL     1       2.549   3.603  21.233  0.00  0.00    +0.000 A 
ATOM     16  C   UNL     1       3.338   2.672  20.551  0.00  0.00    +0.000 A 
ATOM     17  C   UNL     1       3.958   3.007  19.333  0.00  0.00    +0.000 A 
ATOM     18  C   UNL     1       3.782   4.275  18.779  0.00  0.00    +0.000 A 
ATOM     19  C   UNL     1       2.963   5.189  19.456  0.00  0.00    +0.000 A 
ATOM     20  C   UNL     1       2.348   4.860  20.670  0.00  0.00    +0.000 A 
BRANCH  15  22
ATOM     21  C   UNL     1       1.029   2.135  22.298  0.00  0.00    +0.000 C 
ATOM     22  O   UNL     1       2.000   3.170  22.407  0.00  0.00    +0.000 OA
ENDBRANCH  15  22
ENDBRANCH   1  18
TORSDOF 2
ENDMDL
MODEL 4
REMARK VINA RESULT:      -7.8      5.600      6.647
REMARK  Name = 
REMARK  3 active torsions:
REMARK  status: ('A' for Active; 'I' for Inactive)
REMARK    1  A    between atoms: C_1  and  O_2
REMARK    2  A    between atoms: O_2  and  C_3
REMARK    3  A    between atoms: C_6  and  C_7
REMARK                            x       y       z     vdW  Elec       q    Type
REMARK                         _______ _______ _______ _____ _____    ______ ____
ROOT
ATOM      1  C   UNL     1       2.552   7.108  19.408  0.00  0.00    +0.000 A 
ATOM      2  N   UNL     1       3.244   7.238  18.220  0.00  0.00    +0.000 NA
ATOM      3  C   UNL     1       3.794   6.054  18.052  0.00  0.00    +0.000 A 
ATOM      4  C   UNL     1       4.561   5.493  16.964  0.00  0.00    +0.000 A 
ATOM      5  C   UNL     1       5.180   6.240  15.966  0.00  0.00    +0.000 A 
ATOM      6  C   UNL     1       5.854   5.580  14.929  0.00  0.00    +0.000 A 
ATOM      7  C   UNL     1       5.870   4.183  14.864  0.00  0.00    +0.000 A 
ATOM      8  C   UNL     1       5.270   3.430  15.870  0.00  0.00    +0.000 A 
ATOM      9  C   UNL     1       4.663   4.100  16.926  0.00  0.00    +0.000 A 
ATOM     10  O   UNL     1       4.195   3.314  18.008  0.00  0.00    +0.000 OA
ATOM     11  C   UNL     1       3.685   3.863  19.194  0.00  0.00    +0.000 A 
ATOM     12  O   UNL     1       3.416   3.221  20.200  0.00  0.00    +0.000 OA
ATOM     13  N   UNL     1       3.445   5.238  19.095  0.00  0.00    +0.000 N 
ATOM     14  N   UNL     1       2.745   5.929  20.022  0.00  0.00    +0.000 NA
ENDROOT
BRANCH   1  18
ATOM     15  C   UNL     1      -0.077  10.130  20.933  0.00  0.00    +0.000 A 
ATOM     16  C   UNL     1       0.223   9.003  21.703  0.00  0.00    +0.000 A 
ATOM     17  C   UNL     1       1.064   7.992  21.203  0.00  0.00    +0.000 A 
ATOM     18  C   UNL     1       1.601   8.093  19.919  0.00  0.00    +0.000 A 
ATOM     19  C   UNL     1       1.267   9.213  19.145  0.00  0.00    +0.000 A 
ATOM     20  C   UNL     1       0.434  10.222  19.641  0.00  0.00    +0.000 A 
BRANCH  15  22
ATOM     21  C   UNL     1      -1.059  10.934  22.929  0.00  0.00    +0.000 C 
ATOM     22  O   UNL     1      -0.900  11.050  21.520  0.00  0.00    +0.000 OA
ENDBRANCH  15  22
ENDBRANCH   1  18
TORSDOF 2
ENDMDL
MODEL 5
REMARK VINA RESULT:      -7.8      5.691      6.554
REMARK  Name = 
REMARK  3 active torsions:
REMARK  status: ('A' for Active; 'I' for Inactive)
REMARK    1  A    between atoms: C_1  and  O_2
REMARK    2  A    between atoms: O_2  and  C_3
REMARK    3  A    between atoms: C_6  and  C_7
REMARK                            x       y       z     vdW  Elec       q    Type
REMARK                         _______ _______ _______ _____ _____    ______ ____
ROOT
ATOM      1  C   UNL     1       2.449   7.614  18.870  0.00  0.00    +0.000 A 
ATOM      2  N   UNL     1       3.223   7.558  17.728  0.00  0.00    +0.000 NA
ATOM      3  C   UNL     1       3.759   6.357  17.776  0.00  0.00    +0.000 A 
ATOM      4  C   UNL     1       4.586   5.633  16.840  0.00  0.00    +0.000 A 
ATOM      5  C   UNL     1       5.288   6.215  15.789  0.00  0.00    +0.000 A 
ATOM      6  C   UNL     1       6.017   5.402  14.911  0.00  0.00    +0.000 A 
ATOM      7  C   UNL     1       6.008   4.010  15.054  0.00  0.00    +0.000 A 
ATOM      8  C   UNL     1       5.325   3.422  16.116  0.00  0.00    +0.000 A 
ATOM      9  C   UNL     1       4.661   4.248  17.016  0.00  0.00    +0.000 A 
ATOM     10  O   UNL     1       4.105   3.637  18.167  0.00  0.00    +0.000 OA
ATOM     11  C   UNL     1       3.526   4.362  19.219  0.00  0.00    +0.000 A 
ATOM     12  O   UNL     1       3.176   3.879  20.288  0.00  0.00    +0.000 OA
ATOM     13  N   UNL     1       3.322   5.709  18.901  0.00  0.00    +0.000 N 
ATOM     14  N   UNL     1       2.575   6.538  19.664  0.00  0.00    +0.000 NA
ENDROOT
BRANCH   1  18
ATOM     15  C   UNL     1      -0.521  10.576  19.753  0.00  0.00    +0.000 A 
ATOM     16  C   UNL     1      -0.041  10.426  18.449  0.00  0.00    +0.000 A 
ATOM     17  C   UNL     1       0.952   9.474  18.152  0.00  0.00    +0.000 A 
ATOM     18  C   UNL     1       1.487   8.674  19.162  0.00  0.00    +0.000 A 
ATOM     19  C   UNL     1       1.020   8.857  20.472  0.00  0.00    +0.000 A 
ATOM     20  C   UNL     1       0.029   9.799  20.770  0.00  0.00    +0.000 A 
BRANCH  15  22
ATOM     21  C   UNL     1      -2.058  12.057  18.735  0.00  0.00    +0.000 C 
ATOM     22  O   UNL     1      -1.487  11.526  19.925  0.00  0.00    +0.000 OA
ENDBRANCH  15  22
ENDBRANCH   1  18
TORSDOF 2
ENDMDL
MODEL 6
REMARK VINA RESULT:      -7.7      6.808      7.491
REMARK  Name = 
REMARK  3 active torsions:
REMARK  status: ('A' for Active; 'I' for Inactive)
REMARK    1  A    between atoms: C_1  and  O_2
REMARK    2  A    between atoms: O_2  and  C_3
REMARK    3  A    between atoms: C_6  and  C_7
REMARK                            x       y       z     vdW  Elec       q    Type
REMARK                         _______ _______ _______ _____ _____    ______ ____
ROOT
ATOM      1  C   UNL     1       1.486   7.770  20.500  0.00  0.00    +0.000 A 
ATOM      2  N   UNL     1       2.337   7.808  19.413  0.00  0.00    +0.000 NA
ATOM      3  C   UNL     1       2.668   6.546  19.235  0.00  0.00    +0.000 A 
ATOM      4  C   UNL     1       3.446   5.889  18.212  0.00  0.00    +0.000 A 
ATOM      5  C   UNL     1       4.320   6.537  17.344  0.00  0.00    +0.000 A 
ATOM      6  C   UNL     1       4.983   5.801  16.353  0.00  0.00    +0.000 A 
ATOM      7  C   UNL     1       4.740   4.431  16.200  0.00  0.00    +0.000 A 
ATOM      8  C   UNL     1       3.883   3.772  17.078  0.00  0.00    +0.000 A 
ATOM      9  C   UNL     1       3.284   4.506  18.096  0.00  0.00    +0.000 A 
ATOM     10  O   UNL     1       2.540   3.785  19.063  0.00  0.00    +0.000 OA
ATOM     11  C   UNL     1       1.996   4.376  20.212  0.00  0.00    +0.000 A 
ATOM     12  O   UNL     1       1.482   3.759  21.136  0.00  0.00    +0.000 OA
ATOM     13  N   UNL     1       2.038   5.774  20.174  0.00  0.00    +0.000 N 
ATOM     14  N   UNL     1       1.370   6.552  21.055  0.00  0.00    +0.000 NA
ENDROOT
BRANCH   1  18
ATOM     15  C   UNL     1      -0.692  11.199  21.866  0.00  0.00    +0.000 A 
ATOM     16  C   UNL     1      -0.572  10.070  22.680  0.00  0.00    +0.000 A 
ATOM     17  C   UNL     1       0.118   8.928  22.233  0.00  0.00    +0.000 A 
ATOM     18  C   UNL     1       0.683   8.902  20.958  0.00  0.00    +0.000 A 
ATOM     19  C   UNL     1       0.529  10.029  20.138  0.00  0.00    +0.000 A 
ATOM     20  C   UNL     1      -0.153  11.167  20.582  0.00  0.00    +0.000 A 
BRANCH  15  22
ATOM     21  C   UNL     1      -2.473  11.913  23.249  0.00  0.00    +0.000 C 
ATOM     22  O   UNL     1      -1.379  12.251  22.404  0.00  0.00    +0.000 OA
ENDBRANCH  15  22
ENDBRANCH   1  18
TORSDOF 2
ENDMDL
MODEL 7
REMARK VINA RESULT:      -7.7      6.659      7.311
REMARK  Name = 
REMARK  3 active torsions:
REMARK  status: ('A' for Active; 'I' for Inactive)
REMARK    1  A    between atoms: C_1  and  O_2
REMARK    2  A    between atoms: O_2  and  C_3
REMARK    3  A    between atoms: C_6  and  C_7
REMARK                            x       y       z     vdW  Elec       q    Type
REMARK                         _______ _______ _______ _____ _____    ______ ____
ROOT
ATOM      1  C   UNL     1       1.701   7.774  20.295  0.00  0.00    +0.000 A 
ATOM      2  N   UNL     1       2.525   7.795  19.187  0.00  0.00    +0.000 NA
ATOM      3  C   UNL     1       2.882   6.536  19.043  0.00  0.00    +0.000 A 
ATOM      4  C   UNL     1       3.652   5.863  18.023  0.00  0.00    +0.000 A 
ATOM      5  C   UNL     1       4.490   6.503  17.114  0.00  0.00    +0.000 A 
ATOM      6  C   UNL     1       5.146   5.749  16.132  0.00  0.00    +0.000 A 
ATOM      7  C   UNL     1       4.932   4.370  16.030  0.00  0.00    +0.000 A 
ATOM      8  C   UNL     1       4.111   3.721  16.949  0.00  0.00    +0.000 A 
ATOM      9  C   UNL     1       3.519   4.474  17.956  0.00  0.00    +0.000 A 
ATOM     10  O   UNL     1       2.815   3.769  18.964  0.00  0.00    +0.000 OA
ATOM     11  C   UNL     1       2.284   4.385  20.106  0.00  0.00    +0.000 A 
ATOM     12  O   UNL     1       1.807   3.788  21.062  0.00  0.00    +0.000 OA
ATOM     13  N   UNL     1       2.292   5.781  20.022  0.00  0.00    +0.000 N 
ATOM     14  N   UNL     1       1.627   6.573  20.892  0.00  0.00    +0.000 NA
ENDROOT
BRANCH   1  18
ATOM     15  C   UNL     1      -0.859  10.950  21.610  0.00  0.00    +0.000 A 
ATOM     16  C   UNL     1      -0.474  10.864  20.269  0.00  0.00    +0.000 A 
ATOM     17  C   UNL     1       0.387   9.841  19.831  0.00  0.00    +0.000 A 
ATOM     18  C   UNL     1       0.883   8.902  20.735  0.00  0.00    +0.000 A 
ATOM     19  C   UNL     1       0.515   9.017  22.083  0.00  0.00    +0.000 A 
ATOM     20  C   UNL     1      -0.344  10.031  22.522  0.00  0.00    +0.000 A 
BRANCH  15  22
ATOM     21  C   UNL     1      -2.317  11.915  23.203  0.00  0.00    +0.000 C 
ATOM     22  O   UNL     1      -1.700  11.980  21.922  0.00  0.00    +0.000 OA
ENDBRANCH  15  22
ENDBRANCH   1  18
TORSDOF 2
ENDMDL
MODEL 8
REMARK VINA RESULT:      -7.6      5.552      6.461
REMARK  Name = 
REMARK  3 active torsions:
REMARK  status: ('A' for Active; 'I' for Inactive)
REMARK    1  A    between atoms: C_1  and  O_2
REMARK    2  A    between atoms: O_2  and  C_3
REMARK    3  A    between atoms: C_6  and  C_7
REMARK                            x       y       z     vdW  Elec       q    Type
REMARK                         _______ _______ _______ _____ _____    ______ ____
ROOT
ATOM      1  C   UNL     1       2.564   7.451  18.922  0.00  0.00    +0.000 A 
ATOM      2  N   UNL     1       3.313   7.439  17.762  0.00  0.00    +0.000 NA
ATOM      3  C   UNL     1       3.857   6.239  17.758  0.00  0.00    +0.000 A 
ATOM      4  C   UNL     1       4.667   5.552  16.781  0.00  0.00    +0.000 A 
ATOM      5  C   UNL     1       5.342   6.174  15.735  0.00  0.00    +0.000 A 
ATOM      6  C   UNL     1       6.056   5.396  14.814  0.00  0.00    +0.000 A 
ATOM      7  C   UNL     1       6.058   4.000  14.911  0.00  0.00    +0.000 A 
ATOM      8  C   UNL     1       5.403   3.372  15.967  0.00  0.00    +0.000 A 
ATOM      9  C   UNL     1       4.754   4.163  16.908  0.00  0.00    +0.000 A 
ATOM     10  O   UNL     1       4.226   3.511  18.050  0.00  0.00    +0.000 OA
ATOM     11  C   UNL     1       3.667   4.196  19.138  0.00  0.00    +0.000 A 
ATOM     12  O   UNL     1       3.343   3.676  20.198  0.00  0.00    +0.000 OA
ATOM     13  N   UNL     1       3.448   5.552  18.870  0.00  0.00    +0.000 N 
ATOM     14  N   UNL     1       2.714   6.350  19.677  0.00  0.00    +0.000 NA
ENDROOT
BRANCH   1  18
ATOM     15  C   UNL     1      -0.104  10.652  19.927  0.00  0.00    +0.000 A 
ATOM     16  C   UNL     1       0.290   9.730  20.902  0.00  0.00    +0.000 A 
ATOM     17  C   UNL     1       1.145   8.660  20.578  0.00  0.00    +0.000 A 
ATOM     18  C   UNL     1       1.602   8.495  19.270  0.00  0.00    +0.000 A 
ATOM     19  C   UNL     1       1.174   9.407  18.296  0.00  0.00    +0.000 A 
ATOM     20  C   UNL     1       0.328  10.475  18.615  0.00  0.00    +0.000 A 
BRANCH  15  22
ATOM     21  C   UNL     1      -1.796  12.209  19.372  0.00  0.00    +0.000 C 
ATOM     22  O   UNL     1      -0.931  11.652  20.355  0.00  0.00    +0.000 OA
ENDBRANCH  15  22
ENDBRANCH   1  18
TORSDOF 2
ENDMDL
MODEL 9
REMARK VINA RESULT:      -7.6      5.572      6.553
REMARK  Name = 
REMARK  3 active torsions:
REMARK  status: ('A' for Active; 'I' for Inactive)
REMARK    1  A    between atoms: C_1  and  O_2
REMARK    2  A    between atoms: O_2  and  C_3
REMARK    3  A    between atoms: C_6  and  C_7
REMARK                            x       y       z     vdW  Elec       q    Type
REMARK                         _______ _______ _______ _____ _____    ______ ____
ROOT
ATOM      1  C   UNL     1       2.654   7.158  19.317  0.00  0.00    +0.000 A 
ATOM      2  N   UNL     1       3.362   7.268  18.137  0.00  0.00    +0.000 NA
ATOM      3  C   UNL     1       3.854   6.059  17.958  0.00  0.00    +0.000 A 
ATOM      4  C   UNL     1       4.602   5.475  16.870  0.00  0.00    +0.000 A 
ATOM      5  C   UNL     1       5.267   6.201  15.887  0.00  0.00    +0.000 A 
ATOM      6  C   UNL     1       5.916   5.522  14.847  0.00  0.00    +0.000 A 
ATOM      7  C   UNL     1       5.862   4.126  14.764  0.00  0.00    +0.000 A 
ATOM      8  C   UNL     1       5.216   3.392  15.755  0.00  0.00    +0.000 A 
ATOM      9  C   UNL     1       4.634   4.079  16.815  0.00  0.00    +0.000 A 
ATOM     10  O   UNL     1       4.117   3.304  17.883  0.00  0.00    +0.000 OA
ATOM     11  C   UNL     1       3.624   3.863  19.071  0.00  0.00    +0.000 A 
ATOM     12  O   UNL     1       3.314   3.222  20.067  0.00  0.00    +0.000 OA
ATOM     13  N   UNL     1       3.454   5.249  18.988  0.00  0.00    +0.000 N 
ATOM     14  N   UNL     1       2.782   5.964  19.918  0.00  0.00    +0.000 NA
ENDROOT
BRANCH   1  18
ATOM     15  C   UNL     1      -0.156  10.027  20.816  0.00  0.00    +0.000 A 
ATOM     16  C   UNL     1       0.377  10.167  19.531  0.00  0.00    +0.000 A 
ATOM     17  C   UNL     1       1.320   9.246  19.038  0.00  0.00    +0.000 A 
ATOM     18  C   UNL     1       1.749   8.183  19.833  0.00  0.00    +0.000 A 
ATOM     19  C   UNL     1       1.230   8.072  21.131  0.00  0.00    +0.000 A 
ATOM     20  C   UNL     1       0.289   8.983  21.623  0.00  0.00    +0.000 A 
BRANCH  15  22
ATOM     21  C   UNL     1      -1.165  11.231  22.584  0.00  0.00    +0.000 C 
ATOM     22  O   UNL     1      -1.066  10.976  21.188  0.00  0.00    +0.000 OA
ENDBRANCH  15  22
ENDBRANCH   1  18
TORSDOF 2
ENDMDL
