MODEL 1
REMARK VINA RESULT:      -7.2      0.000      0.000
REMARK  Name = 
REMARK  3 active torsions:
REMARK  status: ('A' for Active; 'I' for Inactive)
REMARK    1  A    between atoms: C_2  and  C_19
REMARK    2  A    between atoms: C_6  and  C_7
REMARK    3  A    between atoms: N_9  and  C_10
REMARK                            x       y       z     vdW  Elec       q    Type
REMARK                         _______ _______ _______ _____ _____    ______ ____
ROOT
ATOM      1  O   UNL     1       1.777   5.455  21.096  0.00  0.00    +0.000 OA
ATOM      2  C   UNL     1       2.255   5.613  19.979  0.00  0.00    +0.000 C 
ATOM      3  N   UNL     1       2.323   6.784  19.269  0.00  0.00    +0.000 N 
ATOM      4  C   UNL     1       1.823   7.940  19.791  0.00  0.00    +0.000 A 
ATOM      5  N   UNL     1       1.461   8.245  21.018  0.00  0.00    +0.000 NA
ATOM      6  C   UNL     1       0.932   9.514  20.899  0.00  0.00    +0.000 A 
ATOM      7  C   UNL     1       1.044   9.931  19.592  0.00  0.00    +0.000 A 
ATOM      8  O   UNL     1       1.642   8.941  18.878  0.00  0.00    +0.000 OA
ATOM      9  H   UNL     1       2.542   6.801  18.285  0.00  0.00    +0.000 HD
ENDROOT
BRANCH   2  10
ATOM     10  C   UNL     1       2.761   4.413  19.271  0.00  0.00    +0.000 A 
ATOM     11  C   UNL     1       3.322   4.590  18.006  0.00  0.00    +0.000 A 
ATOM     12  C   UNL     1       3.733   3.467  17.317  0.00  0.00    +0.000 A 
ATOM     13  N   UNL     1       3.617   2.212  17.804  0.00  0.00    +0.000 NA
ATOM     14  C   UNL     1       3.062   2.070  19.026  0.00  0.00    +0.000 A 
ATOM     15  C   UNL     1       2.626   3.131  19.802  0.00  0.00    +0.000 A 
ENDBRANCH   2  10
BRANCH   6  16
ATOM     16  C   UNL     1       0.334  10.291  21.976  0.00  0.00    +0.000 C 
ATOM     17  O   UNL     1       0.484   9.934  23.141  0.00  0.00    +0.000 OA
ATOM     18  N   UNL     1      -0.408  11.375  21.543  0.00  0.00    +0.000 N 
ATOM     19  H   UNL     1      -0.523  11.448  20.535  0.00  0.00    +0.000 HD
BRANCH  18  20
ATOM     20  C   UNL     1      -1.113  12.275  22.373  0.00  0.00    +0.000 A 
ATOM     21  C   UNL     1      -2.335  11.950  22.974  0.00  0.00    +0.000 A 
ATOM     22  C   UNL     1      -3.030  12.885  23.744  0.00  0.00    +0.000 A 
ATOM     23  C   UNL     1      -2.502  14.159  23.922  0.00  0.00    +0.000 A 
ATOM     24 BR   UNL     1      -3.467  15.435  24.927  0.00  0.00    +0.000 Br
ATOM     25  C   UNL     1      -1.272  14.491  23.359  0.00  0.00    +0.000 A 
ATOM     26  C   UNL     1      -0.571  13.545  22.597  0.00  0.00    +0.000 A 
ENDBRANCH  18  20
ENDBRANCH   6  16
TORSDOF 3
ENDMDL
MODEL 2
REMARK VINA RESULT:      -7.2      1.598      1.811
REMARK  Name = 
REMARK  3 active torsions:
REMARK  status: ('A' for Active; 'I' for Inactive)
REMARK    1  A    between atoms: C_2  and  C_19
REMARK    2  A    between atoms: C_6  and  C_7
REMARK    3  A    between atoms: N_9  and  C_10
REMARK                            x       y       z     vdW  Elec       q    Type
REMARK                         _______ _______ _______ _____ _____    ______ ____
ROOT
ATOM      1  O   UNL     1       1.710   5.744  20.317  0.00  0.00    +0.000 OA
ATOM      2  C   UNL     1       2.365   5.577  19.295  0.00  0.00    +0.000 C 
ATOM      3  N   UNL     1       2.699   6.528  18.365  0.00  0.00    +0.000 N 
ATOM      4  C   UNL     1       2.294   7.821  18.520  0.00  0.00    +0.000 A 
ATOM      5  N   UNL     1       1.801   8.449  19.565  0.00  0.00    +0.000 NA
ATOM      6  C   UNL     1       1.478   9.698  19.076  0.00  0.00    +0.000 A 
ATOM      7  C   UNL     1       1.839   9.771  17.749  0.00  0.00    +0.000 A 
ATOM      8  O   UNL     1       2.392   8.583  17.391  0.00  0.00    +0.000 OA
ATOM      9  H   UNL     1       3.062   6.284  17.457  0.00  0.00    +0.000 HD
ENDROOT
BRANCH   2  10
ATOM     10  C   UNL     1       2.797   4.196  18.972  0.00  0.00    +0.000 A 
ATOM     11  C   UNL     1       2.129   3.527  17.947  0.00  0.00    +0.000 A 
ATOM     12  C   UNL     1       2.485   2.219  17.688  0.00  0.00    +0.000 A 
ATOM     13  N   UNL     1       3.441   1.558  18.376  0.00  0.00    +0.000 NA
ATOM     14  C   UNL     1       4.064   2.228  19.370  0.00  0.00    +0.000 A 
ATOM     15  C   UNL     1       3.788   3.543  19.703  0.00  0.00    +0.000 A 
ENDBRANCH   2  10
BRANCH   6  16
ATOM     16  C   UNL     1       0.842  10.769  19.830  0.00  0.00    +0.000 C 
ATOM     17  O   UNL     1       1.386  11.866  19.908  0.00  0.00    +0.000 OA
ATOM     18  N   UNL     1      -0.346  10.401  20.437  0.00  0.00    +0.000 N 
ATOM     19  H   UNL     1      -0.584   9.415  20.363  0.00  0.00    +0.000 HD
BRANCH  18  20
ATOM     20  C   UNL     1      -1.149  11.235  21.247  0.00  0.00    +0.000 A 
ATOM     21  C   UNL     1      -1.146  11.162  22.644  0.00  0.00    +0.000 A 
ATOM     22  C   UNL     1      -1.995  11.965  23.409  0.00  0.00    +0.000 A 
ATOM     23  C   UNL     1      -2.856  12.855  22.776  0.00  0.00    +0.000 A 
ATOM     24 BR   UNL     1      -4.035  13.907  23.812  0.00  0.00    +0.000 Br
ATOM     25  C   UNL     1      -2.851  12.966  21.387  0.00  0.00    +0.000 A 
ATOM     26  C   UNL     1      -1.988  12.166  20.624  0.00  0.00    +0.000 A 
ENDBRANCH  18  20
ENDBRANCH   6  16
TORSDOF 3
ENDMDL
MODEL 3
REMARK VINA RESULT:      -7.1      4.766     10.190
REMARK  Name = 
REMARK  3 active torsions:
REMARK  status: ('A' for Active; 'I' for Inactive)
REMARK    1  A    between atoms: C_2  and  C_19
REMARK    2  A    between atoms: C_6  and  C_7
REMARK    3  A    between atoms: N_9  and  C_10
REMARK                            x       y       z     vdW  Elec       q    Type
REMARK                         _______ _______ _______ _____ _____    ______ ____
ROOT
ATOM      1  O   UNL     1       1.736   8.621  19.413  0.00  0.00    +0.000 OA
ATOM      2  C   UNL     1       1.423   8.332  20.562  0.00  0.00    +0.000 C 
ATOM      3  N   UNL     1       1.637   7.137  21.200  0.00  0.00    +0.000 N 
ATOM      4  C   UNL     1       2.255   6.108  20.553  0.00  0.00    +0.000 A 
ATOM      5  N   UNL     1       2.946   6.085  19.433  0.00  0.00    +0.000 NA
ATOM      6  C   UNL     1       3.214   4.746  19.240  0.00  0.00    +0.000 A 
ATOM      7  C   UNL     1       2.699   4.024  20.293  0.00  0.00    +0.000 A 
ATOM      8  O   UNL     1       2.109   4.891  21.157  0.00  0.00    +0.000 OA
ATOM      9  H   UNL     1       1.177   6.903  22.066  0.00  0.00    +0.000 HD
ENDROOT
BRANCH   2  10
ATOM     10  C   UNL     1       0.671   9.342  21.345  0.00  0.00    +0.000 A 
ATOM     11  C   UNL     1       0.704  10.665  20.905  0.00  0.00    +0.000 A 
ATOM     12  C   UNL     1       0.059  11.617  21.669  0.00  0.00    +0.000 A 
ATOM     13  N   UNL     1      -0.595  11.332  22.815  0.00  0.00    +0.000 NA
ATOM     14  C   UNL     1      -0.602  10.044  23.222  0.00  0.00    +0.000 A 
ATOM     15  C   UNL     1       0.005   9.014  22.525  0.00  0.00    +0.000 A 
ENDBRANCH   2  10
BRANCH   6  16
ATOM     16  C   UNL     1       3.915   4.175  18.098  0.00  0.00    +0.000 C 
ATOM     17  O   UNL     1       4.009   2.956  17.988  0.00  0.00    +0.000 OA
ATOM     18  N   UNL     1       4.458   5.117  17.243  0.00  0.00    +0.000 N 
ATOM     19  H   UNL     1       4.385   6.081  17.556  0.00  0.00    +0.000 HD
BRANCH  18  20
ATOM     20  C   UNL     1       5.209   4.836  16.079  0.00  0.00    +0.000 A 
ATOM     21  C   UNL     1       6.567   5.153  15.960  0.00  0.00    +0.000 A 
ATOM     22  C   UNL     1       7.262   4.910  14.773  0.00  0.00    +0.000 A 
ATOM     23  C   UNL     1       6.599   4.342  13.691  0.00  0.00    +0.000 A 
ATOM     24 BR   UNL     1       7.531   4.056  12.072  0.00  0.00    +0.000 Br
ATOM     25  C   UNL     1       5.255   3.990  13.800  0.00  0.00    +0.000 A 
ATOM     26  C   UNL     1       4.564   4.223  14.998  0.00  0.00    +0.000 A 
ENDBRANCH  18  20
ENDBRANCH   6  16
TORSDOF 3
ENDMDL
MODEL 4
REMARK VINA RESULT:      -7.1      4.232     10.025
REMARK  Name = 
REMARK  3 active torsions:
REMARK  status: ('A' for Active; 'I' for Inactive)
REMARK    1  A    between atoms: C_2  and  C_19
REMARK    2  A    between atoms: C_6  and  C_7
REMARK    3  A    between atoms: N_9  and  C_10
REMARK                            x       y       z     vdW  Elec       q    Type
REMARK                         _______ _______ _______ _____ _____    ______ ____
ROOT
ATOM      1  O   UNL     1      -0.904  11.895  19.813  0.00  0.00    +0.000 OA
ATOM      2  C   UNL     1      -1.008  11.646  21.008  0.00  0.00    +0.000 C 
ATOM      3  N   UNL     1      -0.402  10.622  21.692  0.00  0.00    +0.000 N 
ATOM      4  C   UNL     1       0.414   9.744  21.045  0.00  0.00    +0.000 A 
ATOM      5  N   UNL     1       0.968   9.801  19.852  0.00  0.00    +0.000 NA
ATOM      6  C   UNL     1       1.583   8.574  19.717  0.00  0.00    +0.000 A 
ATOM      7  C   UNL     1       1.400   7.845  20.870  0.00  0.00    +0.000 A 
ATOM      8  O   UNL     1       0.678   8.598  21.741  0.00  0.00    +0.000 OA
ATOM      9  H   UNL     1      -0.689  10.358  22.622  0.00  0.00    +0.000 HD
ENDROOT
BRANCH   2  10
ATOM     10  C   UNL     1      -1.932  12.483  21.809  0.00  0.00    +0.000 A 
ATOM     11  C   UNL     1      -2.435  11.949  22.995  0.00  0.00    +0.000 A 
ATOM     12  C   UNL     1      -3.347  12.701  23.708  0.00  0.00    +0.000 A 
ATOM     13  N   UNL     1      -3.775  13.920  23.316  0.00  0.00    +0.000 NA
ATOM     14  C   UNL     1      -3.278  14.408  22.159  0.00  0.00    +0.000 A 
ATOM     15  C   UNL     1      -2.353  13.740  21.375  0.00  0.00    +0.000 A 
ENDBRANCH   2  10
BRANCH   6  16
ATOM     16  C   UNL     1       2.299   8.107  18.538  0.00  0.00    +0.000 C 
ATOM     17  O   UNL     1       2.186   8.712  17.476  0.00  0.00    +0.000 OA
ATOM     18  N   UNL     1       3.034   6.953  18.746  0.00  0.00    +0.000 N 
ATOM     19  H   UNL     1       2.915   6.522  19.659  0.00  0.00    +0.000 HD
BRANCH  18  20
ATOM     20  C   UNL     1       3.797   6.275  17.769  0.00  0.00    +0.000 A 
ATOM     21  C   UNL     1       4.749   6.921  16.971  0.00  0.00    +0.000 A 
ATOM     22  C   UNL     1       5.445   6.229  15.978  0.00  0.00    +0.000 A 
ATOM     23  C   UNL     1       5.193   4.876  15.777  0.00  0.00    +0.000 A 
ATOM     24 BR   UNL     1       6.104   3.954  14.402  0.00  0.00    +0.000 Br
ATOM     25  C   UNL     1       4.273   4.208  16.582  0.00  0.00    +0.000 A 
ATOM     26  C   UNL     1       3.586   4.904  17.587  0.00  0.00    +0.000 A 
ENDBRANCH  18  20
ENDBRANCH   6  16
TORSDOF 3
ENDMDL
MODEL 5
REMARK VINA RESULT:      -7.1      0.262      1.392
REMARK  Name = 
REMARK  3 active torsions:
REMARK  status: ('A' for Active; 'I' for Inactive)
REMARK    1  A    between atoms: C_2  and  C_19
REMARK    2  A    between atoms: C_6  and  C_7
REMARK    3  A    between atoms: N_9  and  C_10
REMARK                            x       y       z     vdW  Elec       q    Type
REMARK                         _______ _______ _______ _____ _____    ______ ____
ROOT
ATOM      1  O   UNL     1       1.737   5.467  20.915  0.00  0.00    +0.000 OA
ATOM      2  C   UNL     1       2.197   5.597  19.788  0.00  0.00    +0.000 C 
ATOM      3  N   UNL     1       2.284   6.758  19.061  0.00  0.00    +0.000 N 
ATOM      4  C   UNL     1       1.829   7.934  19.578  0.00  0.00    +0.000 A 
ATOM      5  N   UNL     1       1.500   8.264  20.809  0.00  0.00    +0.000 NA
ATOM      6  C   UNL     1       1.006   9.546  20.684  0.00  0.00    +0.000 A 
ATOM      7  C   UNL     1       1.104   9.943  19.369  0.00  0.00    +0.000 A 
ATOM      8  O   UNL     1       1.659   8.928  18.657  0.00  0.00    +0.000 OA
ATOM      9  H   UNL     1       2.485   6.756  18.073  0.00  0.00    +0.000 HD
ENDROOT
BRANCH   2  10
ATOM     10  C   UNL     1       2.653   4.374  19.085  0.00  0.00    +0.000 A 
ATOM     11  C   UNL     1       2.268   3.139  19.607  0.00  0.00    +0.000 A 
ATOM     12  C   UNL     1       2.745   2.000  18.992  0.00  0.00    +0.000 A 
ATOM     13  N   UNL     1       3.564   2.021  17.918  0.00  0.00    +0.000 NA
ATOM     14  C   UNL     1       3.929   3.231  17.441  0.00  0.00    +0.000 A 
ATOM     15  C   UNL     1       3.498   4.432  17.977  0.00  0.00    +0.000 A 
ENDBRANCH   2  10
BRANCH   6  16
ATOM     16  C   UNL     1       0.452  10.353  21.762  0.00  0.00    +0.000 C 
ATOM     17  O   UNL     1       0.627  10.014  22.929  0.00  0.00    +0.000 OA
ATOM     18  N   UNL     1      -0.280  11.444  21.329  0.00  0.00    +0.000 N 
ATOM     19  H   UNL     1      -0.420  11.502  20.324  0.00  0.00    +0.000 HD
BRANCH  18  20
ATOM     20  C   UNL     1      -0.946  12.372  22.162  0.00  0.00    +0.000 A 
ATOM     21  C   UNL     1      -0.409  13.625  22.478  0.00  0.00    +0.000 A 
ATOM     22  C   UNL     1      -1.071  14.493  23.348  0.00  0.00    +0.000 A 
ATOM     23  C   UNL     1      -2.284  14.112  23.911  0.00  0.00    +0.000 A 
ATOM     24 BR   UNL     1      -3.154  15.270  25.124  0.00  0.00    +0.000 Br
ATOM     25  C   UNL     1      -2.851  12.881  23.584  0.00  0.00    +0.000 A 
ATOM     26  C   UNL     1      -2.189  12.018  22.698  0.00  0.00    +0.000 A 
ENDBRANCH  18  20
ENDBRANCH   6  16
TORSDOF 3
ENDMDL
MODEL 6
REMARK VINA RESULT:      -7.0      3.215      3.839
REMARK  Name = 
REMARK  3 active torsions:
REMARK  status: ('A' for Active; 'I' for Inactive)
REMARK    1  A    between atoms: C_2  and  C_19
REMARK    2  A    between atoms: C_6  and  C_7
REMARK    3  A    between atoms: N_9  and  C_10
REMARK                            x       y       z     vdW  Elec       q    Type
REMARK                         _______ _______ _______ _____ _____    ______ ____
ROOT
ATOM      1  O   UNL     1       2.548   6.966  18.674  0.00  0.00    +0.000 OA
ATOM      2  C   UNL     1       2.355   6.476  19.779  0.00  0.00    +0.000 C 
ATOM      3  N   UNL     1       1.764   7.082  20.859  0.00  0.00    +0.000 N 
ATOM      4  C   UNL     1       1.320   8.368  20.772  0.00  0.00    +0.000 A 
ATOM      5  N   UNL     1       1.118   9.142  19.727  0.00  0.00    +0.000 NA
ATOM      6  C   UNL     1       0.780  10.359  20.280  0.00  0.00    +0.000 A 
ATOM      7  C   UNL     1       0.754  10.243  21.651  0.00  0.00    +0.000 A 
ATOM      8  O   UNL     1       1.069   8.962  21.977  0.00  0.00    +0.000 OA
ATOM      9  H   UNL     1       1.821   6.695  21.788  0.00  0.00    +0.000 HD
ENDROOT
BRANCH   2  10
ATOM     10  C   UNL     1       2.867   5.106  20.025  0.00  0.00    +0.000 A 
ATOM     11  C   UNL     1       3.988   4.690  19.308  0.00  0.00    +0.000 A 
ATOM     12  C   UNL     1       4.426   3.393  19.486  0.00  0.00    +0.000 A 
ATOM     13  N   UNL     1       3.824   2.512  20.314  0.00  0.00    +0.000 NA
ATOM     14  C   UNL     1       2.735   2.940  20.988  0.00  0.00    +0.000 A 
ATOM     15  C   UNL     1       2.221   4.221  20.888  0.00  0.00    +0.000 A 
ENDBRANCH   2  10
BRANCH   6  16
ATOM     16  C   UNL     1       0.509  11.584  19.540  0.00  0.00    +0.000 C 
ATOM     17  O   UNL     1      -0.108  11.531  18.480  0.00  0.00    +0.000 OA
ATOM     18  N   UNL     1       1.036  12.722  20.122  0.00  0.00    +0.000 N 
ATOM     19  H   UNL     1       1.622  12.561  20.937  0.00  0.00    +0.000 HD
BRANCH  18  20
ATOM     20  C   UNL     1       0.943  14.033  19.600  0.00  0.00    +0.000 A 
ATOM     21  C   UNL     1      -0.262  14.743  19.551  0.00  0.00    +0.000 A 
ATOM     22  C   UNL     1      -0.324  16.015  18.978  0.00  0.00    +0.000 A 
ATOM     23  C   UNL     1       0.826  16.589  18.450  0.00  0.00    +0.000 A 
ATOM     24 BR   UNL     1       0.728  18.291  17.635  0.00  0.00    +0.000 Br
ATOM     25  C   UNL     1       2.042  15.912  18.518  0.00  0.00    +0.000 A 
ATOM     26  C   UNL     1       2.103  14.641  19.107  0.00  0.00    +0.000 A 
ENDBRANCH  18  20
ENDBRANCH   6  16
TORSDOF 3
ENDMDL
MODEL 7
REMARK VINA RESULT:      -7.0      1.660      2.431
REMARK  Name = 
REMARK  3 active torsions:
REMARK  status: ('A' for Active; 'I' for Inactive)
REMARK    1  A    between atoms: C_2  and  C_19
REMARK    2  A    between atoms: C_6  and  C_7
REMARK    3  A    between atoms: N_9  and  C_10
REMARK                            x       y       z     vdW  Elec       q    Type
REMARK                         _______ _______ _______ _____ _____    ______ ____
ROOT
ATOM      1  O   UNL     1       1.889   8.546  17.861  0.00  0.00    +0.000 OA
ATOM      2  C   UNL     1       2.331   7.631  18.545  0.00  0.00    +0.000 C 
ATOM      3  N   UNL     1       2.153   7.450  19.893  0.00  0.00    +0.000 N 
ATOM      4  C   UNL     1       1.423   8.341  20.622  0.00  0.00    +0.000 A 
ATOM      5  N   UNL     1       0.599   9.294  20.241  0.00  0.00    +0.000 NA
ATOM      6  C   UNL     1       0.260   9.925  21.420  0.00  0.00    +0.000 A 
ATOM      7  C   UNL     1       0.873   9.282  22.471  0.00  0.00    +0.000 A 
ATOM      8  O   UNL     1       1.597   8.245  21.973  0.00  0.00    +0.000 OA
ATOM      9  H   UNL     1       2.708   6.795  20.423  0.00  0.00    +0.000 HD
ENDROOT
BRANCH   2  10
ATOM     10  C   UNL     1       3.210   6.638  17.883  0.00  0.00    +0.000 A 
ATOM     11  C   UNL     1       2.887   5.288  18.019  0.00  0.00    +0.000 A 
ATOM     12  C   UNL     1       3.741   4.359  17.459  0.00  0.00    +0.000 A 
ATOM     13  N   UNL     1       4.868   4.691  16.792  0.00  0.00    +0.000 NA
ATOM     14  C   UNL     1       5.160   6.005  16.685  0.00  0.00    +0.000 A 
ATOM     15  C   UNL     1       4.367   7.015  17.202  0.00  0.00    +0.000 A 
ENDBRANCH   2  10
BRANCH   6  16
ATOM     16  C   UNL     1      -0.598  11.096  21.542  0.00  0.00    +0.000 C 
ATOM     17  O   UNL     1      -0.851  11.772  20.550  0.00  0.00    +0.000 OA
ATOM     18  N   UNL     1      -1.020  11.352  22.835  0.00  0.00    +0.000 N 
ATOM     19  H   UNL     1      -0.613  10.755  23.550  0.00  0.00    +0.000 HD
BRANCH  18  20
ATOM     20  C   UNL     1      -1.833  12.435  23.236  0.00  0.00    +0.000 A 
ATOM     21  C   UNL     1      -3.208  12.305  23.464  0.00  0.00    +0.000 A 
ATOM     22  C   UNL     1      -3.989  13.410  23.806  0.00  0.00    +0.000 A 
ATOM     23  C   UNL     1      -3.396  14.662  23.925  0.00  0.00    +0.000 A 
ATOM     24 BR   UNL     1      -4.464  16.164  24.344  0.00  0.00    +0.000 Br
ATOM     25  C   UNL     1      -2.023  14.807  23.734  0.00  0.00    +0.000 A 
ATOM     26  C   UNL     1      -1.240  13.692  23.404  0.00  0.00    +0.000 A 
ENDBRANCH  18  20
ENDBRANCH   6  16
TORSDOF 3
ENDMDL
MODEL 8
REMARK VINA RESULT:      -7.0      1.624      2.570
REMARK  Name = 
REMARK  3 active torsions:
REMARK  status: ('A' for Active; 'I' for Inactive)
REMARK    1  A    between atoms: C_2  and  C_19
REMARK    2  A    between atoms: C_6  and  C_7
REMARK    3  A    between atoms: N_9  and  C_10
REMARK                            x       y       z     vdW  Elec       q    Type
REMARK                         _______ _______ _______ _____ _____    ______ ____
ROOT
ATOM      1  O   UNL     1       2.039   8.562  17.842  0.00  0.00    +0.000 OA
ATOM      2  C   UNL     1       2.398   7.614  18.529  0.00  0.00    +0.000 C 
ATOM      3  N   UNL     1       2.157   7.426  19.866  0.00  0.00    +0.000 N 
ATOM      4  C   UNL     1       1.453   8.350  20.579  0.00  0.00    +0.000 A 
ATOM      5  N   UNL     1       0.703   9.356  20.182  0.00  0.00    +0.000 NA
ATOM      6  C   UNL     1       0.356   9.991  21.356  0.00  0.00    +0.000 A 
ATOM      7  C   UNL     1       0.888   9.299  22.420  0.00  0.00    +0.000 A 
ATOM      8  O   UNL     1       1.568   8.227  21.935  0.00  0.00    +0.000 OA
ATOM      9  H   UNL     1       2.650   6.732  20.406  0.00  0.00    +0.000 HD
ENDROOT
BRANCH   2  10
ATOM     10  C   UNL     1       3.242   6.579  17.886  0.00  0.00    +0.000 A 
ATOM     11  C   UNL     1       2.820   5.251  17.966  0.00  0.00    +0.000 A 
ATOM     12  C   UNL     1       3.637   4.279  17.426  0.00  0.00    +0.000 A 
ATOM     13  N   UNL     1       4.819   4.548  16.829  0.00  0.00    +0.000 NA
ATOM     14  C   UNL     1       5.206   5.840  16.774  0.00  0.00    +0.000 A 
ATOM     15  C   UNL     1       4.456   6.890  17.277  0.00  0.00    +0.000 A 
ENDBRANCH   2  10
BRANCH   6  16
ATOM     16  C   UNL     1      -0.435  11.210  21.463  0.00  0.00    +0.000 C 
ATOM     17  O   UNL     1      -0.619  11.905  20.469  0.00  0.00    +0.000 OA
ATOM     18  N   UNL     1      -0.878  11.482  22.745  0.00  0.00    +0.000 N 
ATOM     19  H   UNL     1      -0.527  10.858  23.467  0.00  0.00    +0.000 HD
BRANCH  18  20
ATOM     20  C   UNL     1      -1.638  12.609  23.131  0.00  0.00    +0.000 A 
ATOM     21  C   UNL     1      -1.075  13.881  23.293  0.00  0.00    +0.000 A 
ATOM     22  C   UNL     1      -1.847  14.959  23.729  0.00  0.00    +0.000 A 
ATOM     23  C   UNL     1      -3.197  14.773  24.005  0.00  0.00    +0.000 A 
ATOM     24 BR   UNL     1      -4.228  16.224  24.638  0.00  0.00    +0.000 Br
ATOM     25  C   UNL     1      -3.783  13.522  23.819  0.00  0.00    +0.000 A 
ATOM     26  C   UNL     1      -3.007  12.445  23.369  0.00  0.00    +0.000 A 
ENDBRANCH  18  20
ENDBRANCH   6  16
TORSDOF 3
ENDMDL
MODEL 9
REMARK VINA RESULT:      -7.0      2.068      2.464
REMARK  Name = 
REMARK  3 active torsions:
REMARK  status: ('A' for Active; 'I' for Inactive)
REMARK    1  A    between atoms: C_2  and  C_19
REMARK    2  A    between atoms: C_6  and  C_7
REMARK    3  A    between atoms: N_9  and  C_10
REMARK                            x       y       z     vdW  Elec       q    Type
REMARK                         _______ _______ _______ _____ _____    ______ ____
ROOT
ATOM      1  O   UNL     1       2.629   5.965  18.852  0.00  0.00    +0.000 OA
ATOM      2  C   UNL     1       3.291   6.522  17.985  0.00  0.00    +0.000 C 
ATOM      3  N   UNL     1       3.221   7.841  17.614  0.00  0.00    +0.000 N 
ATOM      4  C   UNL     1       2.344   8.687  18.225  0.00  0.00    +0.000 A 
ATOM      5  N   UNL     1       1.651   8.554  19.336  0.00  0.00    +0.000 NA
ATOM      6  C   UNL     1       0.863   9.685  19.368  0.00  0.00    +0.000 A 
ATOM      7  C   UNL     1       1.158  10.475  18.279  0.00  0.00    +0.000 A 
ATOM      8  O   UNL     1       2.129   9.858  17.556  0.00  0.00    +0.000 OA
ATOM      9  H   UNL     1       3.645   8.180  16.764  0.00  0.00    +0.000 HD
ENDROOT
BRANCH   2  10
ATOM     10  C   UNL     1       4.226   5.689  17.191  0.00  0.00    +0.000 A 
ATOM     11  C   UNL     1       5.051   6.333  16.270  0.00  0.00    +0.000 A 
ATOM     12  C   UNL     1       5.875   5.553  15.484  0.00  0.00    +0.000 A 
ATOM     13  N   UNL     1       5.920   4.206  15.561  0.00  0.00    +0.000 NA
ATOM     14  C   UNL     1       5.102   3.609  16.455  0.00  0.00    +0.000 A 
ATOM     15  C   UNL     1       4.246   4.299  17.296  0.00  0.00    +0.000 A 
ENDBRANCH   2  10
BRANCH   6  16
ATOM     16  C   UNL     1      -0.137   9.997  20.380  0.00  0.00    +0.000 C 
ATOM     17  O   UNL     1      -0.482   9.134  21.182  0.00  0.00    +0.000 OA
ATOM     18  N   UNL     1      -0.639  11.283  20.297  0.00  0.00    +0.000 N 
ATOM     19  H   UNL     1      -0.325  11.821  19.495  0.00  0.00    +0.000 HD
BRANCH  18  20
ATOM     20  C   UNL     1      -1.635  11.834  21.136  0.00  0.00    +0.000 A 
ATOM     21  C   UNL     1      -1.567  11.769  22.532  0.00  0.00    +0.000 A 
ATOM     22  C   UNL     1      -2.597  12.277  23.327  0.00  0.00    +0.000 A 
ATOM     23  C   UNL     1      -3.708  12.858  22.726  0.00  0.00    +0.000 A 
ATOM     24 BR   UNL     1      -5.121  13.502  23.803  0.00  0.00    +0.000 Br
ATOM     25  C   UNL     1      -3.780  12.960  21.338  0.00  0.00    +0.000 A 
ATOM     26  C   UNL     1      -2.737  12.462  20.544  0.00  0.00    +0.000 A 
ENDBRANCH  18  20
ENDBRANCH   6  16
TORSDOF 3
ENDMDL
