MODEL 1
REMARK VINA RESULT:      -7.6      0.000      0.000
REMARK  Name = 
REMARK  8 active torsions:
REMARK  status: ('A' for Active; 'I' for Inactive)
REMARK    1  A    between atoms: C_2  and  C_3
REMARK    2  A    between atoms: C_3  and  N_4
REMARK    3  A    between atoms: C_12  and  C_13
REMARK    4  A    between atoms: N_21  and  C_22
REMARK    5  A    between atoms: C_22  and  C_23
REMARK    6  A    between atoms: C_23  and  C_24
REMARK    7  A    between atoms: C_24  and  C_25
REMARK    8  A    between atoms: C_24  and  C_26
REMARK                            x       y       z     vdW  Elec       q    Type
REMARK                         _______ _______ _______ _____ _____    ______ ____
ROOT
ATOM      1  N   UNL     1      -1.119  11.587  19.583  0.00  0.00    +0.000 N 
ATOM      2  C   UNL     1      -0.196  10.757  19.015  0.00  0.00    +0.000 C 
ATOM      3  O   UNL     1       0.023  10.853  17.809  0.00  0.00    +0.000 OA
ATOM      4  N   UNL     1       0.354   9.867  19.884  0.00  0.00    +0.000 N 
ATOM      5  C   UNL     1       1.263   8.931  19.512  0.00  0.00    +0.000 A 
ATOM      6  N   UNL     1       2.035   8.876  18.459  0.00  0.00    +0.000 NA
ATOM      7  C   UNL     1       2.693   7.686  18.514  0.00  0.00    +0.000 A 
ATOM      8  C   UNL     1       3.601   7.260  17.527  0.00  0.00    +0.000 A 
ATOM      9  C   UNL     1       4.186   6.055  17.639  0.00  0.00    +0.000 A 
ATOM     10  C   UNL     1       3.859   5.139  18.816  0.00  0.00    +0.000 A 
ATOM     11  O   UNL     1       4.387   4.025  18.880  0.00  0.00    +0.000 OA
ATOM     12  N   UNL     1       2.963   5.607  19.797  0.00  0.00    +0.000 N 
ATOM     13  C   UNL     1       2.433   6.868  19.584  0.00  0.00    +0.000 A 
ATOM     14  S   UNL     1       1.355   7.638  20.636  0.00  0.00    +0.000 S 
ATOM     15  H   UNL     1      -1.614  12.162  18.915  0.00  0.00    +0.000 HD
ATOM     16  H   UNL     1      -0.151   9.654  20.725  0.00  0.00    +0.000 HD
ENDROOT
BRANCH   9  17
ATOM     17  C   UNL     1       5.147   5.646  16.607  0.00  0.00    +0.000 A 
ATOM     18  C   UNL     1       4.778   4.761  15.591  0.00  0.00    +0.000 A 
ATOM     19  C   UNL     1       5.728   4.359  14.652  0.00  0.00    +0.000 A 
ATOM     20  C   UNL     1       7.018   4.851  14.769  0.00  0.00    +0.000 A 
ATOM     21  N   UNL     1       7.414   5.699  15.743  0.00  0.00    +0.000 NA
ATOM     22  C   UNL     1       6.469   6.080  16.635  0.00  0.00    +0.000 A 
ENDBRANCH   9  17
BRANCH   1  23
ATOM     23  C   UNL     1      -1.410  11.730  20.990  0.00  0.00    +0.000 C 
BRANCH  23  25
ATOM     24  C   UNL     1      -1.054  14.189  20.682  0.00  0.00    +0.000 C 
ATOM     25  C   UNL     1      -1.708  13.171  21.256  0.00  0.00    +0.000 C 
ENDBRANCH  23  25
ENDBRANCH   1  23
BRANCH  12  26
ATOM     26  C   UNL     1       2.609   4.737  20.927  0.00  0.00    +0.000 C 
BRANCH  26  27
ATOM     27  C   UNL     1       1.189   4.166  20.809  0.00  0.00    +0.000 C 
BRANCH  27  28
ATOM     28  C   UNL     1       1.131   2.711  20.293  0.00  0.00    +0.000 C 
ATOM     29  C   UNL     1       0.853   2.625  18.791  0.00  0.00    +0.000 C 
ATOM     30  C   UNL     1       2.453   2.003  20.606  0.00  0.00    +0.000 C 
ENDBRANCH  27  28
ENDBRANCH  26  27
ENDBRANCH  12  26
TORSDOF 6
ENDMDL
MODEL 2
REMARK VINA RESULT:      -7.5      1.406      1.907
REMARK  Name = 
REMARK  8 active torsions:
REMARK  status: ('A' for Active; 'I' for Inactive)
REMARK    1  A    between atoms: C_2  and  C_3
REMARK    2  A    between atoms: C_3  and  N_4
REMARK    3  A    between atoms: C_12  and  C_13
REMARK    4  A    between atoms: N_21  and  C_22
REMARK    5  A    between atoms: C_22  and  C_23
REMARK    6  A    between atoms: C_23  and  C_24
REMARK    7  A    between atoms: C_24  and  C_25
REMARK    8  A    between atoms: C_24  and  C_26
REMARK                            x       y       z     vdW  Elec       q    Type
REMARK                         _______ _______ _______ _____ _____    ______ ____
ROOT
ATOM      1  N   UNL     1      -0.095   9.990  20.704  0.00  0.00    +0.000 N 
ATOM      2  C   UNL     1       0.737   9.337  19.841  0.00  0.00    +0.000 C 
ATOM      3  O   UNL     1       0.800   9.722  18.676  0.00  0.00    +0.000 OA
ATOM      4  N   UNL     1       1.383   8.277  20.395  0.00  0.00    +0.000 N 
ATOM      5  C   UNL     1       2.225   7.473  19.699  0.00  0.00    +0.000 A 
ATOM      6  N   UNL     1       2.855   7.686  18.573  0.00  0.00    +0.000 NA
ATOM      7  C   UNL     1       3.501   6.530  18.258  0.00  0.00    +0.000 A 
ATOM      8  C   UNL     1       4.269   6.368  17.091  0.00  0.00    +0.000 A 
ATOM      9  C   UNL     1       4.849   5.182  16.836  0.00  0.00    +0.000 A 
ATOM     10  C   UNL     1       4.664   4.006  17.793  0.00  0.00    +0.000 A 
ATOM     11  O   UNL     1       5.182   2.919  17.521  0.00  0.00    +0.000 OA
ATOM     12  N   UNL     1       3.907   4.210  18.962  0.00  0.00    +0.000 N 
ATOM     13  C   UNL     1       3.370   5.476  19.126  0.00  0.00    +0.000 A 
ATOM     14  S   UNL     1       2.445   5.952  20.460  0.00  0.00    +0.000 S 
ATOM     15  H   UNL     1      -0.665  10.699  20.261  0.00  0.00    +0.000 HD
ATOM     16  H   UNL     1       0.988   7.860  21.218  0.00  0.00    +0.000 HD
ENDROOT
BRANCH   9  17
ATOM     17  C   UNL     1       5.665   5.049  15.623  0.00  0.00    +0.000 A 
ATOM     18  C   UNL     1       5.212   4.304  14.531  0.00  0.00    +0.000 A 
ATOM     19  C   UNL     1       6.031   4.161  13.411  0.00  0.00    +0.000 A 
ATOM     20  C   UNL     1       7.279   4.763  13.427  0.00  0.00    +0.000 A 
ATOM     21  N   UNL     1       7.754   5.482  14.467  0.00  0.00    +0.000 NA
ATOM     22  C   UNL     1       6.934   5.612  15.537  0.00  0.00    +0.000 A 
ENDBRANCH   9  17
BRANCH   1  23
ATOM     23  C   UNL     1      -0.202   9.789  22.130  0.00  0.00    +0.000 C 
BRANCH  23  25
ATOM     24  C   UNL     1      -0.945  12.180  22.077  0.00  0.00    +0.000 C 
ATOM     25  C   UNL     1      -0.819  11.014  22.725  0.00  0.00    +0.000 C 
ENDBRANCH  23  25
ENDBRANCH   1  23
BRANCH  12  26
ATOM     26  C   UNL     1       3.691   3.089  19.889  0.00  0.00    +0.000 C 
BRANCH  26  27
ATOM     27  C   UNL     1       2.672   2.072  19.355  0.00  0.00    +0.000 C 
BRANCH  27  28
ATOM     28  C   UNL     1       1.273   2.176  20.003  0.00  0.00    +0.000 C 
ATOM     29  C   UNL     1       1.322   2.715  21.434  0.00  0.00    +0.000 C 
ATOM     30  C   UNL     1       0.378   3.081  19.150  0.00  0.00    +0.000 C 
ENDBRANCH  27  28
ENDBRANCH  26  27
ENDBRANCH  12  26
TORSDOF 6
ENDMDL
MODEL 3
REMARK VINA RESULT:      -7.3      1.952      2.779
REMARK  Name = 
REMARK  8 active torsions:
REMARK  status: ('A' for Active; 'I' for Inactive)
REMARK    1  A    between atoms: C_2  and  C_3
REMARK    2  A    between atoms: C_3  and  N_4
REMARK    3  A    between atoms: C_12  and  C_13
REMARK    4  A    between atoms: N_21  and  C_22
REMARK    5  A    between atoms: C_22  and  C_23
REMARK    6  A    between atoms: C_23  and  C_24
REMARK    7  A    between atoms: C_24  and  C_25
REMARK    8  A    between atoms: C_24  and  C_26
REMARK                            x       y       z     vdW  Elec       q    Type
REMARK                         _______ _______ _______ _____ _____    ______ ____
ROOT
ATOM      1  N   UNL     1       0.830  10.305  19.549  0.00  0.00    +0.000 N 
ATOM      2  C   UNL     1       1.573   9.558  18.682  0.00  0.00    +0.000 C 
ATOM      3  O   UNL     1       1.603   9.882  17.496  0.00  0.00    +0.000 OA
ATOM      4  N   UNL     1       2.177   8.484  19.258  0.00  0.00    +0.000 N 
ATOM      5  C   UNL     1       2.929   7.593  18.564  0.00  0.00    +0.000 A 
ATOM      6  N   UNL     1       3.514   7.709  17.400  0.00  0.00    +0.000 NA
ATOM      7  C   UNL     1       4.066   6.499  17.115  0.00  0.00    +0.000 A 
ATOM      8  C   UNL     1       4.763   6.231  15.922  0.00  0.00    +0.000 A 
ATOM      9  C   UNL     1       5.251   4.997  15.700  0.00  0.00    +0.000 A 
ATOM     10  C   UNL     1       5.038   3.883  16.723  0.00  0.00    +0.000 A 
ATOM     11  O   UNL     1       5.471   2.753  16.483  0.00  0.00    +0.000 OA
ATOM     12  N   UNL     1       4.356   4.193  17.916  0.00  0.00    +0.000 N 
ATOM     13  C   UNL     1       3.912   5.498  18.040  0.00  0.00    +0.000 A 
ATOM     14  S   UNL     1       3.088   6.098  19.390  0.00  0.00    +0.000 S 
ATOM     15  H   UNL     1       0.286  11.028  19.098  0.00  0.00    +0.000 HD
ATOM     16  H   UNL     1       1.798   8.134  20.119  0.00  0.00    +0.000 HD
ENDROOT
BRANCH   9  17
ATOM     17  C   UNL     1       5.994   4.752  14.459  0.00  0.00    +0.000 A 
ATOM     18  C   UNL     1       5.543   3.816  13.524  0.00  0.00    +0.000 A 
ATOM     19  C   UNL     1       6.296   3.576  12.376  0.00  0.00    +0.000 A 
ATOM     20  C   UNL     1       7.480   4.276  12.206  0.00  0.00    +0.000 A 
ATOM     21  N   UNL     1       7.952   5.180  13.092  0.00  0.00    +0.000 NA
ATOM     22  C   UNL     1       7.195   5.400  14.193  0.00  0.00    +0.000 A 
ENDBRANCH   9  17
BRANCH   1  23
ATOM     23  C   UNL     1       0.783  10.179  20.986  0.00  0.00    +0.000 C 
BRANCH  23  25
ATOM     24  C   UNL     1      -0.501   8.224  21.880  0.00  0.00    +0.000 C 
ATOM     25  C   UNL     1      -0.474   9.452  21.346  0.00  0.00    +0.000 C 
ENDBRANCH  23  25
ENDBRANCH   1  23
BRANCH  12  26
ATOM     26  C   UNL     1       4.115   3.135  18.907  0.00  0.00    +0.000 C 
BRANCH  26  27
ATOM     27  C   UNL     1       2.774   2.419  18.690  0.00  0.00    +0.000 C 
BRANCH  27  28
ATOM     28  C   UNL     1       1.906   2.300  19.962  0.00  0.00    +0.000 C 
ATOM     29  C   UNL     1       2.651   2.724  21.229  0.00  0.00    +0.000 C 
ATOM     30  C   UNL     1       0.644   3.155  19.805  0.00  0.00    +0.000 C 
ENDBRANCH  27  28
ENDBRANCH  26  27
ENDBRANCH  12  26
TORSDOF 6
ENDMDL
MODEL 4
REMARK VINA RESULT:      -7.1      1.724      2.346
REMARK  Name = 
REMARK  8 active torsions:
REMARK  status: ('A' for Active; 'I' for Inactive)
REMARK    1  A    between atoms: C_2  and  C_3
REMARK    2  A    between atoms: C_3  and  N_4
REMARK    3  A    between atoms: C_12  and  C_13
REMARK    4  A    between atoms: N_21  and  C_22
REMARK    5  A    between atoms: C_22  and  C_23
REMARK    6  A    between atoms: C_23  and  C_24
REMARK    7  A    between atoms: C_24  and  C_25
REMARK    8  A    between atoms: C_24  and  C_26
REMARK                            x       y       z     vdW  Elec       q    Type
REMARK                         _______ _______ _______ _____ _____    ______ ____
ROOT
ATOM      1  N   UNL     1       0.469   9.892  20.109  0.00  0.00    +0.000 N 
ATOM      2  C   UNL     1       1.248   9.224  19.210  0.00  0.00    +0.000 C 
ATOM      3  O   UNL     1       1.233   9.581  18.034  0.00  0.00    +0.000 OA
ATOM      4  N   UNL     1       1.939   8.183  19.746  0.00  0.00    +0.000 N 
ATOM      5  C   UNL     1       2.741   7.368  19.015  0.00  0.00    +0.000 A 
ATOM      6  N   UNL     1       3.295   7.558  17.846  0.00  0.00    +0.000 NA
ATOM      7  C   UNL     1       3.929   6.399  17.518  0.00  0.00    +0.000 A 
ATOM      8  C   UNL     1       4.621   6.214  16.307  0.00  0.00    +0.000 A 
ATOM      9  C   UNL     1       5.193   5.027  16.044  0.00  0.00    +0.000 A 
ATOM     10  C   UNL     1       5.081   3.873  17.038  0.00  0.00    +0.000 A 
ATOM     11  O   UNL     1       5.591   2.784  16.760  0.00  0.00    +0.000 OA
ATOM     12  N   UNL     1       4.400   4.100  18.250  0.00  0.00    +0.000 N 
ATOM     13  C   UNL     1       3.864   5.366  18.418  0.00  0.00    +0.000 A 
ATOM     14  S   UNL     1       3.024   5.868  19.797  0.00  0.00    +0.000 S 
ATOM     15  H   UNL     1      -0.135  10.585  19.688  0.00  0.00    +0.000 HD
ATOM     16  H   UNL     1       1.602   7.783  20.603  0.00  0.00    +0.000 HD
ENDROOT
BRANCH   9  17
ATOM     17  C   UNL     1       5.930   4.870  14.783  0.00  0.00    +0.000 A 
ATOM     18  C   UNL     1       5.469   4.008  13.785  0.00  0.00    +0.000 A 
ATOM     19  C   UNL     1       6.216   3.849  12.618  0.00  0.00    +0.000 A 
ATOM     20  C   UNL     1       7.403   4.553  12.495  0.00  0.00    +0.000 A 
ATOM     21  N   UNL     1       7.884   5.386  13.443  0.00  0.00    +0.000 NA
ATOM     22  C   UNL     1       7.134   5.529  14.561  0.00  0.00    +0.000 A 
ENDBRANCH   9  17
BRANCH   1  23
ATOM     23  C   UNL     1       0.457   9.725  21.543  0.00  0.00    +0.000 C 
BRANCH  23  25
ATOM     24  C   UNL     1      -0.968  11.348  22.811  0.00  0.00    +0.000 C 
ATOM     25  C   UNL     1      -0.847  10.246  22.059  0.00  0.00    +0.000 C 
ENDBRANCH  23  25
ENDBRANCH   1  23
BRANCH  12  26
ATOM     26  C   UNL     1       4.255   3.001  19.215  0.00  0.00    +0.000 C 
BRANCH  26  27
ATOM     27  C   UNL     1       3.000   2.154  18.958  0.00  0.00    +0.000 C 
BRANCH  27  28
ATOM     28  C   UNL     1       1.695   2.772  19.506  0.00  0.00    +0.000 C 
ATOM     29  C   UNL     1       0.444   2.231  18.811  0.00  0.00    +0.000 C 
ATOM     30  C   UNL     1       1.594   2.506  21.012  0.00  0.00    +0.000 C 
ENDBRANCH  27  28
ENDBRANCH  26  27
ENDBRANCH  12  26
TORSDOF 6
ENDMDL
MODEL 5
REMARK VINA RESULT:      -7.1      2.040      7.578
REMARK  Name = 
REMARK  8 active torsions:
REMARK  status: ('A' for Active; 'I' for Inactive)
REMARK    1  A    between atoms: C_2  and  C_3
REMARK    2  A    between atoms: C_3  and  N_4
REMARK    3  A    between atoms: C_12  and  C_13
REMARK    4  A    between atoms: N_21  and  C_22
REMARK    5  A    between atoms: C_22  and  C_23
REMARK    6  A    between atoms: C_23  and  C_24
REMARK    7  A    between atoms: C_24  and  C_25
REMARK    8  A    between atoms: C_24  and  C_26
REMARK                            x       y       z     vdW  Elec       q    Type
REMARK                         _______ _______ _______ _____ _____    ______ ____
ROOT
ATOM      1  N   UNL     1       6.848   5.467  15.078  0.00  0.00    +0.000 N 
ATOM      2  C   UNL     1       5.982   6.257  15.778  0.00  0.00    +0.000 C 
ATOM      3  O   UNL     1       6.125   7.477  15.731  0.00  0.00    +0.000 OA
ATOM      4  N   UNL     1       5.061   5.562  16.497  0.00  0.00    +0.000 N 
ATOM      5  C   UNL     1       4.135   6.157  17.290  0.00  0.00    +0.000 A 
ATOM      6  N   UNL     1       3.686   7.385  17.287  0.00  0.00    +0.000 NA
ATOM      7  C   UNL     1       2.833   7.495  18.342  0.00  0.00    +0.000 A 
ATOM      8  C   UNL     1       2.170   8.690  18.676  0.00  0.00    +0.000 A 
ATOM      9  C   UNL     1       1.367   8.725  19.754  0.00  0.00    +0.000 A 
ATOM     10  C   UNL     1       1.185   7.485  20.627  0.00  0.00    +0.000 A 
ATOM     11  O   UNL     1       0.465   7.551  21.627  0.00  0.00    +0.000 OA
ATOM     12  N   UNL     1       1.845   6.300  20.249  0.00  0.00    +0.000 N 
ATOM     13  C   UNL     1       2.634   6.379  19.114  0.00  0.00    +0.000 A 
ATOM     14  S   UNL     1       3.502   5.080  18.466  0.00  0.00    +0.000 S 
ATOM     15  H   UNL     1       7.605   5.979  14.644  0.00  0.00    +0.000 HD
ATOM     16  H   UNL     1       5.267   4.609  16.733  0.00  0.00    +0.000 HD
ENDROOT
BRANCH   9  17
ATOM     17  C   UNL     1       0.669   9.978  20.066  0.00  0.00    +0.000 A 
ATOM     18  C   UNL     1      -0.340  10.466  19.232  0.00  0.00    +0.000 A 
ATOM     19  C   UNL     1      -0.952  11.682  19.533  0.00  0.00    +0.000 A 
ATOM     20  C   UNL     1      -0.526  12.373  20.656  0.00  0.00    +0.000 A 
ATOM     21  N   UNL     1       0.453  11.939  21.479  0.00  0.00    +0.000 NA
ATOM     22  C   UNL     1       1.023  10.750  21.168  0.00  0.00    +0.000 A 
ENDBRANCH   9  17
BRANCH   1  23
ATOM     23  C   UNL     1       6.762   4.039  14.887  0.00  0.00    +0.000 C 
BRANCH  23  25
ATOM     24  C   UNL     1       6.335   3.508  12.477  0.00  0.00    +0.000 C 
ATOM     25  C   UNL     1       5.879   3.782  13.707  0.00  0.00    +0.000 C 
ENDBRANCH  23  25
ENDBRANCH   1  23
BRANCH  12  26
ATOM     26  C   UNL     1       1.709   5.098  21.084  0.00  0.00    +0.000 C 
BRANCH  26  27
ATOM     27  C   UNL     1       0.786   4.045  20.453  0.00  0.00    +0.000 C 
BRANCH  27  28
ATOM     28  C   UNL     1       1.329   2.601  20.527  0.00  0.00    +0.000 C 
ATOM     29  C   UNL     1       1.740   2.051  19.160  0.00  0.00    +0.000 C 
ATOM     30  C   UNL     1       2.530   2.552  21.476  0.00  0.00    +0.000 C 
ENDBRANCH  27  28
ENDBRANCH  26  27
ENDBRANCH  12  26
TORSDOF 6
ENDMDL
MODEL 6
REMARK VINA RESULT:      -6.9      1.032      1.174
REMARK  Name = 
REMARK  8 active torsions:
REMARK  status: ('A' for Active; 'I' for Inactive)
REMARK    1  A    between atoms: C_2  and  C_3
REMARK    2  A    between atoms: C_3  and  N_4
REMARK    3  A    between atoms: C_12  and  C_13
REMARK    4  A    between atoms: N_21  and  C_22
REMARK    5  A    between atoms: C_22  and  C_23
REMARK    6  A    between atoms: C_23  and  C_24
REMARK    7  A    between atoms: C_24  and  C_25
REMARK    8  A    between atoms: C_24  and  C_26
REMARK                            x       y       z     vdW  Elec       q    Type
REMARK                         _______ _______ _______ _____ _____    ______ ____
ROOT
ATOM      1  N   UNL     1      -0.706  10.699  20.132  0.00  0.00    +0.000 N 
ATOM      2  C   UNL     1       0.189   9.957  19.417  0.00  0.00    +0.000 C 
ATOM      3  O   UNL     1       0.261  10.128  18.202  0.00  0.00    +0.000 OA
ATOM      4  N   UNL     1       0.885   9.061  20.166  0.00  0.00    +0.000 N 
ATOM      5  C   UNL     1       1.795   8.202  19.642  0.00  0.00    +0.000 A 
ATOM      6  N   UNL     1       2.442   8.248  18.507  0.00  0.00    +0.000 NA
ATOM      7  C   UNL     1       3.167   7.100  18.420  0.00  0.00    +0.000 A 
ATOM      8  C   UNL     1       3.977   6.781  17.314  0.00  0.00    +0.000 A 
ATOM      9  C   UNL     1       4.637   5.610  17.290  0.00  0.00    +0.000 A 
ATOM     10  C   UNL     1       4.500   4.618  18.443  0.00  0.00    +0.000 A 
ATOM     11  O   UNL     1       5.093   3.537  18.383  0.00  0.00    +0.000 OA
ATOM     12  N   UNL     1       3.699   4.979  19.543  0.00  0.00    +0.000 N 
ATOM     13  C   UNL     1       3.079   6.215  19.464  0.00  0.00    +0.000 A 
ATOM     14  S   UNL     1       2.089   6.862  20.672  0.00  0.00    +0.000 S 
ATOM     15  H   UNL     1      -1.307  11.275  19.558  0.00  0.00    +0.000 HD
ATOM     16  H   UNL     1       0.494   8.775  21.045  0.00  0.00    +0.000 HD
ENDROOT
BRANCH   9  17
ATOM     17  C   UNL     1       5.494   5.314  16.135  0.00  0.00    +0.000 A 
ATOM     18  C   UNL     1       5.040   4.501  15.094  0.00  0.00    +0.000 A 
ATOM     19  C   UNL     1       5.894   4.203  14.032  0.00  0.00    +0.000 A 
ATOM     20  C   UNL     1       7.178   4.725  14.055  0.00  0.00    +0.000 A 
ATOM     21  N   UNL     1       7.655   5.505  15.049  0.00  0.00    +0.000 NA
ATOM     22  C   UNL     1       6.800   5.786  16.061  0.00  0.00    +0.000 A 
ENDBRANCH   9  17
BRANCH   1  23
ATOM     23  C   UNL     1      -0.840  10.752  21.569  0.00  0.00    +0.000 C 
BRANCH  23  25
ATOM     24  C   UNL     1      -0.068  13.132  21.683  0.00  0.00    +0.000 C 
ATOM     25  C   UNL     1      -0.975  12.188  21.967  0.00  0.00    +0.000 C 
ENDBRANCH  23  25
ENDBRANCH   1  23
BRANCH  12  26
ATOM     26  C   UNL     1       3.528   4.034  20.655  0.00  0.00    +0.000 C 
BRANCH  26  27
ATOM     27  C   UNL     1       2.644   2.835  20.278  0.00  0.00    +0.000 C 
BRANCH  27  28
ATOM     28  C   UNL     1       1.762   3.065  19.031  0.00  0.00    +0.000 C 
ATOM     29  C   UNL     1       2.091   2.104  17.887  0.00  0.00    +0.000 C 
ATOM     30  C   UNL     1       0.286   2.916  19.410  0.00  0.00    +0.000 C 
ENDBRANCH  27  28
ENDBRANCH  26  27
ENDBRANCH  12  26
TORSDOF 6
ENDMDL
MODEL 7
REMARK VINA RESULT:      -6.9      0.852      1.137
REMARK  Name = 
REMARK  8 active torsions:
REMARK  status: ('A' for Active; 'I' for Inactive)
REMARK    1  A    between atoms: C_2  and  C_3
REMARK    2  A    between atoms: C_3  and  N_4
REMARK    3  A    between atoms: C_12  and  C_13
REMARK    4  A    between atoms: N_21  and  C_22
REMARK    5  A    between atoms: C_22  and  C_23
REMARK    6  A    between atoms: C_23  and  C_24
REMARK    7  A    between atoms: C_24  and  C_25
REMARK    8  A    between atoms: C_24  and  C_26
REMARK                            x       y       z     vdW  Elec       q    Type
REMARK                         _______ _______ _______ _____ _____    ______ ____
ROOT
ATOM      1  N   UNL     1      -1.178  12.282  19.291  0.00  0.00    +0.000 N 
ATOM      2  C   UNL     1      -0.253  11.413  18.790  0.00  0.00    +0.000 C 
ATOM      3  O   UNL     1       0.035  11.478  17.597  0.00  0.00    +0.000 OA
ATOM      4  N   UNL     1       0.221  10.525  19.705  0.00  0.00    +0.000 N 
ATOM      5  C   UNL     1       1.119   9.555  19.402  0.00  0.00    +0.000 A 
ATOM      6  N   UNL     1       1.946   9.455  18.395  0.00  0.00    +0.000 NA
ATOM      7  C   UNL     1       2.562   8.247  18.509  0.00  0.00    +0.000 A 
ATOM      8  C   UNL     1       3.509   7.773  17.582  0.00  0.00    +0.000 A 
ATOM      9  C   UNL     1       4.049   6.553  17.749  0.00  0.00    +0.000 A 
ATOM     10  C   UNL     1       3.629   5.672  18.923  0.00  0.00    +0.000 A 
ATOM     11  O   UNL     1       4.117   4.545  19.037  0.00  0.00    +0.000 OA
ATOM     12  N   UNL     1       2.695   6.187  19.844  0.00  0.00    +0.000 N 
ATOM     13  C   UNL     1       2.218   7.460  19.578  0.00  0.00    +0.000 A 
ATOM     14  S   UNL     1       1.109   8.283  20.554  0.00  0.00    +0.000 S 
ATOM     15  H   UNL     1      -1.618  12.858  18.585  0.00  0.00    +0.000 HD
ATOM     16  H   UNL     1      -0.335  10.345  20.520  0.00  0.00    +0.000 HD
ENDROOT
BRANCH   9  17
ATOM     17  C   UNL     1       5.052   6.095  16.780  0.00  0.00    +0.000 A 
ATOM     18  C   UNL     1       4.729   5.147  15.806  0.00  0.00    +0.000 A 
ATOM     19  C   UNL     1       5.717   4.699  14.929  0.00  0.00    +0.000 A 
ATOM     20  C   UNL     1       6.998   5.212  15.064  0.00  0.00    +0.000 A 
ATOM     21  N   UNL     1       7.349   6.120  16.000  0.00  0.00    +0.000 NA
ATOM     22  C   UNL     1       6.368   6.544  16.831  0.00  0.00    +0.000 A 
ENDBRANCH   9  17
BRANCH   1  23
ATOM     23  C   UNL     1      -1.542  12.463  20.676  0.00  0.00    +0.000 C 
BRANCH  23  25
ATOM     24  C   UNL     1      -3.950  12.510  19.988  0.00  0.00    +0.000 C 
ATOM     25  C   UNL     1      -2.939  12.995  20.722  0.00  0.00    +0.000 C 
ENDBRANCH  23  25
ENDBRANCH   1  23
BRANCH  12  26
ATOM     26  C   UNL     1       2.253   5.352  20.969  0.00  0.00    +0.000 C 
BRANCH  26  27
ATOM     27  C   UNL     1       1.106   4.406  20.586  0.00  0.00    +0.000 C 
BRANCH  27  28
ATOM     28  C   UNL     1       1.524   2.926  20.444  0.00  0.00    +0.000 C 
ATOM     29  C   UNL     1       1.441   2.157  21.764  0.00  0.00    +0.000 C 
ATOM     30  C   UNL     1       0.639   2.239  19.399  0.00  0.00    +0.000 C 
ENDBRANCH  27  28
ENDBRANCH  26  27
ENDBRANCH  12  26
TORSDOF 6
ENDMDL
MODEL 8
REMARK VINA RESULT:      -6.7      2.657      9.657
REMARK  Name = 
REMARK  8 active torsions:
REMARK  status: ('A' for Active; 'I' for Inactive)
REMARK    1  A    between atoms: C_2  and  C_3
REMARK    2  A    between atoms: C_3  and  N_4
REMARK    3  A    between atoms: C_12  and  C_13
REMARK    4  A    between atoms: N_21  and  C_22
REMARK    5  A    between atoms: C_22  and  C_23
REMARK    6  A    between atoms: C_23  and  C_24
REMARK    7  A    between atoms: C_24  and  C_25
REMARK    8  A    between atoms: C_24  and  C_26
REMARK                            x       y       z     vdW  Elec       q    Type
REMARK                         _______ _______ _______ _____ _____    ______ ____
ROOT
ATOM      1  N   UNL     1       2.979   5.697  19.465  0.00  0.00    +0.000 N 
ATOM      2  C   UNL     1       2.224   6.657  20.073  0.00  0.00    +0.000 C 
ATOM      3  O   UNL     1       1.734   6.416  21.174  0.00  0.00    +0.000 OA
ATOM      4  N   UNL     1       2.073   7.789  19.334  0.00  0.00    +0.000 N 
ATOM      5  C   UNL     1       1.328   8.848  19.740  0.00  0.00    +0.000 A 
ATOM      6  N   UNL     1       0.925   9.185  20.937  0.00  0.00    +0.000 NA
ATOM      7  C   UNL     1       0.132  10.282  20.791  0.00  0.00    +0.000 A 
ATOM      8  C   UNL     1      -0.510  10.918  21.869  0.00  0.00    +0.000 A 
ATOM      9  C   UNL     1      -1.304  11.978  21.637  0.00  0.00    +0.000 A 
ATOM     10  C   UNL     1      -1.528  12.483  20.213  0.00  0.00    +0.000 A 
ATOM     11  O   UNL     1      -2.285  13.440  20.023  0.00  0.00    +0.000 OA
ATOM     12  N   UNL     1      -0.852  11.836  19.161  0.00  0.00    +0.000 N 
ATOM     13  C   UNL     1      -0.051  10.766  19.521  0.00  0.00    +0.000 A 
ATOM     14  S   UNL     1       0.867   9.855  18.430  0.00  0.00    +0.000 S 
ATOM     15  H   UNL     1       2.989   4.814  19.959  0.00  0.00    +0.000 HD
ATOM     16  H   UNL     1       2.211   7.727  18.342  0.00  0.00    +0.000 HD
ENDROOT
BRANCH   9  17
ATOM     17  C   UNL     1      -1.943  12.638  22.782  0.00  0.00    +0.000 A 
ATOM     18  C   UNL     1      -3.185  12.209  23.257  0.00  0.00    +0.000 A 
ATOM     19  C   UNL     1      -3.784  12.886  24.319  0.00  0.00    +0.000 A 
ATOM     20  C   UNL     1      -3.122  13.974  24.864  0.00  0.00    +0.000 A 
ATOM     21  N   UNL     1      -1.926  14.423  24.425  0.00  0.00    +0.000 NA
ATOM     22  C   UNL     1      -1.363  13.741  23.399  0.00  0.00    +0.000 A 
ENDBRANCH   9  17
BRANCH   1  23
ATOM     23  C   UNL     1       3.753   5.836  18.254  0.00  0.00    +0.000 C 
BRANCH  23  25
ATOM     24  C   UNL     1       4.476   3.766  17.044  0.00  0.00    +0.000 C 
ATOM     25  C   UNL     1       3.514   4.624  17.411  0.00  0.00    +0.000 C 
ENDBRANCH  23  25
ENDBRANCH   1  23
BRANCH  12  26
ATOM     26  C   UNL     1      -1.068  12.284  17.778  0.00  0.00    +0.000 C 
BRANCH  26  27
ATOM     27  C   UNL     1      -2.397  11.778  17.196  0.00  0.00    +0.000 C 
BRANCH  27  28
ATOM     28  C   UNL     1      -2.381  10.291  16.781  0.00  0.00    +0.000 C 
ATOM     29  C   UNL     1      -3.283   9.421  17.659  0.00  0.00    +0.000 C 
ATOM     30  C   UNL     1      -2.819  10.161  15.319  0.00  0.00    +0.000 C 
ENDBRANCH  27  28
ENDBRANCH  26  27
ENDBRANCH  12  26
TORSDOF 6
ENDMDL
MODEL 9
REMARK VINA RESULT:      -6.7      0.740      1.143
REMARK  Name = 
REMARK  8 active torsions:
REMARK  status: ('A' for Active; 'I' for Inactive)
REMARK    1  A    between atoms: C_2  and  C_3
REMARK    2  A    between atoms: C_3  and  N_4
REMARK    3  A    between atoms: C_12  and  C_13
REMARK    4  A    between atoms: N_21  and  C_22
REMARK    5  A    between atoms: C_22  and  C_23
REMARK    6  A    between atoms: C_23  and  C_24
REMARK    7  A    between atoms: C_24  and  C_25
REMARK    8  A    between atoms: C_24  and  C_26
REMARK                            x       y       z     vdW  Elec       q    Type
REMARK                         _______ _______ _______ _____ _____    ______ ____
ROOT
ATOM      1  N   UNL     1      -0.961  11.344  19.884  0.00  0.00    +0.000 N 
ATOM      2  C   UNL     1      -0.052  10.539  19.260  0.00  0.00    +0.000 C 
ATOM      3  O   UNL     1       0.152  10.698  18.058  0.00  0.00    +0.000 OA
ATOM      4  N   UNL     1       0.505   9.603  20.074  0.00  0.00    +0.000 N 
ATOM      5  C   UNL     1       1.402   8.682  19.642  0.00  0.00    +0.000 A 
ATOM      6  N   UNL     1       2.160   8.678  18.577  0.00  0.00    +0.000 NA
ATOM      7  C   UNL     1       2.812   7.483  18.560  0.00  0.00    +0.000 A 
ATOM      8  C   UNL     1       3.704   7.104  17.541  0.00  0.00    +0.000 A 
ATOM      9  C   UNL     1       4.282   5.891  17.581  0.00  0.00    +0.000 A 
ATOM     10  C   UNL     1       3.964   4.917  18.713  0.00  0.00    +0.000 A 
ATOM     11  O   UNL     1       4.486   3.798  18.711  0.00  0.00    +0.000 OA
ATOM     12  N   UNL     1       3.085   5.338  19.729  0.00  0.00    +0.000 N 
ATOM     13  C   UNL     1       2.560   6.612  19.590  0.00  0.00    +0.000 A 
ATOM     14  S   UNL     1       1.501   7.331  20.695  0.00  0.00    +0.000 S 
ATOM     15  H   UNL     1      -1.462  11.956  19.254  0.00  0.00    +0.000 HD
ATOM     16  H   UNL     1       0.010   9.348  20.909  0.00  0.00    +0.000 HD
ENDROOT
BRANCH   9  17
ATOM     17  C   UNL     1       5.227   5.532  16.516  0.00  0.00    +0.000 A 
ATOM     18  C   UNL     1       4.845   4.685  15.473  0.00  0.00    +0.000 A 
ATOM     19  C   UNL     1       5.780   4.328  14.501  0.00  0.00    +0.000 A 
ATOM     20  C   UNL     1       7.068   4.825  14.614  0.00  0.00    +0.000 A 
ATOM     21  N   UNL     1       7.476   5.637  15.614  0.00  0.00    +0.000 NA
ATOM     22  C   UNL     1       6.545   5.975  16.537  0.00  0.00    +0.000 A 
ENDBRANCH   9  17
BRANCH   1  23
ATOM     23  C   UNL     1      -1.233  11.414  21.300  0.00  0.00    +0.000 C 
BRANCH  23  25
ATOM     24  C   UNL     1      -0.428   9.976  23.185  0.00  0.00    +0.000 C 
ATOM     25  C   UNL     1      -0.213  10.581  22.009  0.00  0.00    +0.000 C 
ENDBRANCH  23  25
ENDBRANCH   1  23
BRANCH  12  26
ATOM     26  C   UNL     1       2.741   4.412  20.817  0.00  0.00    +0.000 C 
BRANCH  26  27
ATOM     27  C   UNL     1       1.296   3.899  20.720  0.00  0.00    +0.000 C 
BRANCH  27  28
ATOM     28  C   UNL     1       1.137   2.609  19.885  0.00  0.00    +0.000 C 
ATOM     29  C   UNL     1       0.905   2.890  18.399  0.00  0.00    +0.000 C 
ATOM     30  C   UNL     1       2.385   1.735  20.047  0.00  0.00    +0.000 C 
ENDBRANCH  27  28
ENDBRANCH  26  27
ENDBRANCH  12  26
TORSDOF 6
ENDMDL
