MODEL 1
REMARK VINA RESULT:      -6.6      0.000      0.000
REMARK  Name = 
REMARK  14 active torsions:
REMARK  status: ('A' for Active; 'I' for Inactive)
REMARK    1  A    between atoms: C_1  and  C_2
REMARK    2  A    between atoms: C_2  and  N_3
REMARK    3  A    between atoms: N_3  and  C_4
REMARK    4  A    between atoms: N_3  and  C_6
REMARK    5  A    between atoms: C_4  and  C_5
REMARK    6  A    between atoms: C_6  and  C_7
REMARK    7  A    between atoms: C_7  and  C_8
REMARK    8  A    between atoms: C_8  and  C_9
REMARK    9  A    between atoms: C_9  and  C_10
REMARK   10  A    between atoms: C_10  and  C_11
REMARK   11  A    between atoms: C_11  and  C_12
REMARK   12  A    between atoms: C_12  and  C_13
REMARK   13  A    between atoms: N_15  and  C_16
REMARK   14  A    between atoms: C_19  and  C_20
REMARK                            x       y       z     vdW  Elec       q    Type
REMARK                         _______ _______ _______ _____ _____    ______ ____
ROOT
ATOM      1  C   UNL     1       1.638   4.923  20.610  0.00  0.00    +0.000 C 
ATOM      2  O   UNL     1       0.434   4.907  20.368  0.00  0.00    +0.000 OA
ATOM      3  N   UNL     1       2.479   6.024  20.510  0.00  0.00    +0.000 N 
ATOM      4  H   UNL     1       3.478   5.864  20.545  0.00  0.00    +0.000 HD
ENDROOT
BRANCH   3   5
ATOM      5  C   UNL     1       2.043   7.337  20.231  0.00  0.00    +0.000 A 
ATOM      6  C   UNL     1       2.144   7.878  18.943  0.00  0.00    +0.000 A 
ATOM      7  C   UNL     1       1.679   9.159  18.663  0.00  0.00    +0.000 A 
ATOM      8  C   UNL     1       1.090   9.937  19.666  0.00  0.00    +0.000 A 
ATOM      9  C   UNL     1       0.998   9.416  20.961  0.00  0.00    +0.000 A 
ATOM     10  C   UNL     1       1.468   8.115  21.237  0.00  0.00    +0.000 A 
BRANCH   8  11
ATOM     11  C   UNL     1       0.513  11.244  19.261  0.00  0.00    +0.000 C 
ATOM     12  O   UNL     1      -0.443  11.225  18.492  0.00  0.00    +0.000 OA
ATOM     13  N   UNL     1       1.148  12.374  19.742  0.00  0.00    +0.000 N 
ATOM     14  C   UNL     1       0.723  13.623  19.395  0.00  0.00    +0.000 A 
ATOM     15  N   UNL     1      -0.423  14.007  18.891  0.00  0.00    +0.000 NA
ATOM     16  C   UNL     1      -0.399  15.372  18.670  0.00  0.00    +0.000 A 
ATOM     17  C   UNL     1       0.789  15.999  18.980  0.00  0.00    +0.000 A 
ATOM     18  S   UNL     1       1.874  14.858  19.666  0.00  0.00    +0.000 S 
ATOM     19  H   UNL     1       2.040  12.305  20.214  0.00  0.00    +0.000 HD
ENDBRANCH   8  11
ENDBRANCH   3   5
BRANCH   1  20
ATOM     20  C   UNL     1       2.332   3.637  20.974  0.00  0.00    +0.000 C 
BRANCH  20  21
ATOM     21  C   UNL     1       1.535   2.463  20.417  0.00  0.00    +0.000 C 
BRANCH  21  22
ATOM     22  C   UNL     1       2.076   1.975  19.069  0.00  0.00    +0.000 C 
BRANCH  22  23
ATOM     23  C   UNL     1       3.483   2.517  18.844  0.00  0.00    +0.000 C 
BRANCH  23  24
ATOM     24  C   UNL     1       3.643   3.092  17.439  0.00  0.00    +0.000 C 
BRANCH  24  25
ATOM     25  C   UNL     1       3.497   4.612  17.476  0.00  0.00    +0.000 C 
BRANCH  25  26
ATOM     26  C   UNL     1       4.821   5.341  17.763  0.00  0.00    +0.000 C 
BRANCH  26  27
ATOM     27  N   UNL     1       6.005   4.736  17.118  0.00  0.00    +0.000 NA
BRANCH  27  29
ATOM     28  C   UNL     1       6.583   4.296  14.676  0.00  0.00    +0.000 C 
ATOM     29  C   UNL     1       6.167   5.280  15.758  0.00  0.00    +0.000 C 
ENDBRANCH  27  29
BRANCH  27  30
ATOM     30  C   UNL     1       7.210   4.876  17.958  0.00  0.00    +0.000 C 
ATOM     31  C   UNL     1       7.650   6.303  18.283  0.00  0.00    +0.000 C 
ENDBRANCH  27  30
ENDBRANCH  26  27
ENDBRANCH  25  26
ENDBRANCH  24  25
ENDBRANCH  23  24
ENDBRANCH  22  23
ENDBRANCH  21  22
ENDBRANCH  20  21
ENDBRANCH   1  20
TORSDOF 12
ENDMDL
MODEL 2
REMARK VINA RESULT:      -6.3      0.965      1.812
REMARK  Name = 
REMARK  14 active torsions:
REMARK  status: ('A' for Active; 'I' for Inactive)
REMARK    1  A    between atoms: C_1  and  C_2
REMARK    2  A    between atoms: C_2  and  N_3
REMARK    3  A    between atoms: N_3  and  C_4
REMARK    4  A    between atoms: N_3  and  C_6
REMARK    5  A    between atoms: C_4  and  C_5
REMARK    6  A    between atoms: C_6  and  C_7
REMARK    7  A    between atoms: C_7  and  C_8
REMARK    8  A    between atoms: C_8  and  C_9
REMARK    9  A    between atoms: C_9  and  C_10
REMARK   10  A    between atoms: C_10  and  C_11
REMARK   11  A    between atoms: C_11  and  C_12
REMARK   12  A    between atoms: C_12  and  C_13
REMARK   13  A    between atoms: N_15  and  C_16
REMARK   14  A    between atoms: C_19  and  C_20
REMARK                            x       y       z     vdW  Elec       q    Type
REMARK                         _______ _______ _______ _____ _____    ______ ____
ROOT
ATOM      1  C   UNL     1       1.807   4.999  20.560  0.00  0.00    +0.000 C 
ATOM      2  O   UNL     1       0.585   4.891  20.510  0.00  0.00    +0.000 OA
ATOM      3  N   UNL     1       2.539   6.150  20.300  0.00  0.00    +0.000 N 
ATOM      4  H   UNL     1       3.541   6.061  20.182  0.00  0.00    +0.000 HD
ENDROOT
BRANCH   3   5
ATOM      5  C   UNL     1       1.970   7.419  20.057  0.00  0.00    +0.000 A 
ATOM      6  C   UNL     1       1.360   8.151  21.083  0.00  0.00    +0.000 A 
ATOM      7  C   UNL     1       0.834   9.418  20.847  0.00  0.00    +0.000 A 
ATOM      8  C   UNL     1       0.909   9.993  19.574  0.00  0.00    +0.000 A 
ATOM      9  C   UNL     1       1.501   9.266  18.536  0.00  0.00    +0.000 A 
ATOM     10  C   UNL     1       2.035   7.984  18.782  0.00  0.00    +0.000 A 
BRANCH   8  11
ATOM     11  C   UNL     1       0.432  11.392  19.433  0.00  0.00    +0.000 C 
ATOM     12  O   UNL     1      -0.055  11.717  18.353  0.00  0.00    +0.000 OA
ATOM     13  N   UNL     1       0.633  12.225  20.518  0.00  0.00    +0.000 N 
ATOM     14  C   UNL     1       0.269  13.539  20.475  0.00  0.00    +0.000 A 
ATOM     15  N   UNL     1      -0.554  14.153  19.664  0.00  0.00    +0.000 NA
ATOM     16  C   UNL     1      -0.595  15.500  19.975  0.00  0.00    +0.000 A 
ATOM     17  C   UNL     1       0.232  15.893  21.004  0.00  0.00    +0.000 A 
ATOM     18  S   UNL     1       1.009  14.513  21.670  0.00  0.00    +0.000 S 
ATOM     19  H   UNL     1       1.210  11.931  21.296  0.00  0.00    +0.000 HD
ENDBRANCH   8  11
ENDBRANCH   3   5
BRANCH   1  20
ATOM     20  C   UNL     1       2.642   3.778  20.845  0.00  0.00    +0.000 C 
BRANCH  20  21
ATOM     21  C   UNL     1       1.831   2.529  20.515  0.00  0.00    +0.000 C 
BRANCH  21  22
ATOM     22  C   UNL     1       1.451   2.453  19.034  0.00  0.00    +0.000 C 
BRANCH  22  23
ATOM     23  C   UNL     1       2.701   2.271  18.181  0.00  0.00    +0.000 C 
BRANCH  23  24
ATOM     24  C   UNL     1       2.755   3.285  17.041  0.00  0.00    +0.000 C 
BRANCH  24  25
ATOM     25  C   UNL     1       3.650   4.460  17.429  0.00  0.00    +0.000 C 
BRANCH  25  26
ATOM     26  C   UNL     1       5.084   4.335  16.887  0.00  0.00    +0.000 C 
BRANCH  26  27
ATOM     27  N   UNL     1       5.510   5.454  16.019  0.00  0.00    +0.000 NA
BRANCH  27  29
ATOM     28  C   UNL     1       7.283   6.635  17.415  0.00  0.00    +0.000 C 
ATOM     29  C   UNL     1       5.874   6.618  16.845  0.00  0.00    +0.000 C 
ENDBRANCH  27  29
BRANCH  27  30
ATOM     30  C   UNL     1       6.571   5.038  15.081  0.00  0.00    +0.000 C 
ATOM     31  C   UNL     1       6.222   3.901  14.122  0.00  0.00    +0.000 C 
ENDBRANCH  27  30
ENDBRANCH  26  27
ENDBRANCH  25  26
ENDBRANCH  24  25
ENDBRANCH  23  24
ENDBRANCH  22  23
ENDBRANCH  21  22
ENDBRANCH  20  21
ENDBRANCH   1  20
TORSDOF 12
ENDMDL
MODEL 3
REMARK VINA RESULT:      -6.1      5.582      7.451
REMARK  Name = 
REMARK  14 active torsions:
REMARK  status: ('A' for Active; 'I' for Inactive)
REMARK    1  A    between atoms: C_1  and  C_2
REMARK    2  A    between atoms: C_2  and  N_3
REMARK    3  A    between atoms: N_3  and  C_4
REMARK    4  A    between atoms: N_3  and  C_6
REMARK    5  A    between atoms: C_4  and  C_5
REMARK    6  A    between atoms: C_6  and  C_7
REMARK    7  A    between atoms: C_7  and  C_8
REMARK    8  A    between atoms: C_8  and  C_9
REMARK    9  A    between atoms: C_9  and  C_10
REMARK   10  A    between atoms: C_10  and  C_11
REMARK   11  A    between atoms: C_11  and  C_12
REMARK   12  A    between atoms: C_12  and  C_13
REMARK   13  A    between atoms: N_15  and  C_16
REMARK   14  A    between atoms: C_19  and  C_20
REMARK                            x       y       z     vdW  Elec       q    Type
REMARK                         _______ _______ _______ _____ _____    ______ ____
ROOT
ATOM      1  C   UNL     1       7.912   7.067  17.906  0.00  0.00    +0.000 C 
ATOM      2  O   UNL     1       7.802   7.297  16.705  0.00  0.00    +0.000 OA
ATOM      3  N   UNL     1       8.363   7.957  18.873  0.00  0.00    +0.000 N 
ATOM      4  H   UNL     1       8.594   7.589  19.788  0.00  0.00    +0.000 HD
ENDROOT
BRANCH   3   5
ATOM      5  C   UNL     1       8.649   9.318  18.632  0.00  0.00    +0.000 A 
ATOM      6  C   UNL     1       9.663   9.983  19.333  0.00  0.00    +0.000 A 
ATOM      7  C   UNL     1       9.967  11.314  19.066  0.00  0.00    +0.000 A 
ATOM      8  C   UNL     1       9.267  12.020  18.081  0.00  0.00    +0.000 A 
ATOM      9  C   UNL     1       8.241  11.373  17.385  0.00  0.00    +0.000 A 
ATOM     10  C   UNL     1       7.940  10.023  17.658  0.00  0.00    +0.000 A 
BRANCH   8  11
ATOM     11  C   UNL     1       9.731  13.397  17.775  0.00  0.00    +0.000 C 
ATOM     12  O   UNL     1      10.769  13.514  17.131  0.00  0.00    +0.000 OA
ATOM     13  N   UNL     1       8.977  14.432  18.299  0.00  0.00    +0.000 N 
ATOM     14  C   UNL     1       9.341  15.733  18.112  0.00  0.00    +0.000 A 
ATOM     15  N   UNL     1      10.157  16.256  17.233  0.00  0.00    +0.000 NA
ATOM     16  C   UNL     1      10.246  17.621  17.434  0.00  0.00    +0.000 A 
ATOM     17  C   UNL     1       9.515  18.109  18.496  0.00  0.00    +0.000 A 
ATOM     18  S   UNL     1       8.608  16.831  19.198  0.00  0.00    +0.000 S 
ATOM     19  H   UNL     1       8.247  14.249  18.975  0.00  0.00    +0.000 HD
ENDBRANCH   8  11
ENDBRANCH   3   5
BRANCH   1  20
ATOM     20  C   UNL     1       7.621   5.682  18.419  0.00  0.00    +0.000 C 
BRANCH  20  21
ATOM     21  C   UNL     1       6.700   4.967  17.436  0.00  0.00    +0.000 C 
BRANCH  21  22
ATOM     22  C   UNL     1       5.483   4.341  18.124  0.00  0.00    +0.000 C 
BRANCH  22  23
ATOM     23  C   UNL     1       4.569   3.700  17.087  0.00  0.00    +0.000 C 
BRANCH  23  24
ATOM     24  C   UNL     1       3.455   2.890  17.746  0.00  0.00    +0.000 C 
BRANCH  24  25
ATOM     25  C   UNL     1       2.124   3.628  17.615  0.00  0.00    +0.000 C 
BRANCH  25  26
ATOM     26  C   UNL     1       1.472   3.949  18.970  0.00  0.00    +0.000 C 
BRANCH  26  27
ATOM     27  N   UNL     1       2.376   4.590  19.949  0.00  0.00    +0.000 NA
BRANCH  27  29
ATOM     28  C   UNL     1       2.928   6.935  19.121  0.00  0.00    +0.000 C 
ATOM     29  C   UNL     1       2.094   6.035  20.018  0.00  0.00    +0.000 C 
ENDBRANCH  27  29
BRANCH  27  30
ATOM     30  C   UNL     1       2.325   3.913  21.259  0.00  0.00    +0.000 C 
ATOM     31  C   UNL     1       1.365   2.730  21.374  0.00  0.00    +0.000 C 
ENDBRANCH  27  30
ENDBRANCH  26  27
ENDBRANCH  25  26
ENDBRANCH  24  25
ENDBRANCH  23  24
ENDBRANCH  22  23
ENDBRANCH  21  22
ENDBRANCH  20  21
ENDBRANCH   1  20
TORSDOF 12
ENDMDL
MODEL 4
REMARK VINA RESULT:      -6.1      1.067      1.996
REMARK  Name = 
REMARK  14 active torsions:
REMARK  status: ('A' for Active; 'I' for Inactive)
REMARK    1  A    between atoms: C_1  and  C_2
REMARK    2  A    between atoms: C_2  and  N_3
REMARK    3  A    between atoms: N_3  and  C_4
REMARK    4  A    between atoms: N_3  and  C_6
REMARK    5  A    between atoms: C_4  and  C_5
REMARK    6  A    between atoms: C_6  and  C_7
REMARK    7  A    between atoms: C_7  and  C_8
REMARK    8  A    between atoms: C_8  and  C_9
REMARK    9  A    between atoms: C_9  and  C_10
REMARK   10  A    between atoms: C_10  and  C_11
REMARK   11  A    between atoms: C_11  and  C_12
REMARK   12  A    between atoms: C_12  and  C_13
REMARK   13  A    between atoms: N_15  and  C_16
REMARK   14  A    between atoms: C_19  and  C_20
REMARK                            x       y       z     vdW  Elec       q    Type
REMARK                         _______ _______ _______ _____ _____    ______ ____
ROOT
ATOM      1  C   UNL     1       2.279   5.003  20.119  0.00  0.00    +0.000 C 
ATOM      2  O   UNL     1       1.076   4.781  20.226  0.00  0.00    +0.000 OA
ATOM      3  N   UNL     1       2.864   6.228  19.826  0.00  0.00    +0.000 N 
ATOM      4  H   UNL     1       3.844   6.240  19.571  0.00  0.00    +0.000 HD
ENDROOT
BRANCH   3   5
ATOM      5  C   UNL     1       2.156   7.446  19.727  0.00  0.00    +0.000 A 
ATOM      6  C   UNL     1       1.548   8.026  20.847  0.00  0.00    +0.000 A 
ATOM      7  C   UNL     1       0.884   9.246  20.753  0.00  0.00    +0.000 A 
ATOM      8  C   UNL     1       0.815   9.925  19.532  0.00  0.00    +0.000 A 
ATOM      9  C   UNL     1       1.403   9.349  18.402  0.00  0.00    +0.000 A 
ATOM     10  C   UNL     1       2.077   8.115  18.504  0.00  0.00    +0.000 A 
BRANCH   8  11
ATOM     11  C   UNL     1       0.192  11.273  19.541  0.00  0.00    +0.000 C 
ATOM     12  O   UNL     1      -1.033  11.329  19.568  0.00  0.00    +0.000 OA
ATOM     13  N   UNL     1       1.054  12.351  19.457  0.00  0.00    +0.000 N 
ATOM     14  C   UNL     1       0.581  13.631  19.415  0.00  0.00    +0.000 A 
ATOM     15  N   UNL     1      -0.593  14.099  19.752  0.00  0.00    +0.000 NA
ATOM     16  C   UNL     1      -0.636  15.461  19.514  0.00  0.00    +0.000 A 
ATOM     17  C   UNL     1       0.507  16.000  18.963  0.00  0.00    +0.000 A 
ATOM     18  S   UNL     1       1.708  14.778  18.835  0.00  0.00    +0.000 S 
ATOM     19  H   UNL     1       2.035  12.215  19.247  0.00  0.00    +0.000 HD
ENDBRANCH   8  11
ENDBRANCH   3   5
BRANCH   1  20
ATOM     20  C   UNL     1       3.250   3.857  20.227  0.00  0.00    +0.000 C 
BRANCH  20  21
ATOM     21  C   UNL     1       4.260   3.948  19.088  0.00  0.00    +0.000 C 
BRANCH  21  22
ATOM     22  C   UNL     1       3.694   3.434  17.761  0.00  0.00    +0.000 C 
BRANCH  22  23
ATOM     23  C   UNL     1       4.360   4.152  16.594  0.00  0.00    +0.000 C 
BRANCH  23  24
ATOM     24  C   UNL     1       5.348   3.242  15.866  0.00  0.00    +0.000 C 
BRANCH  24  25
ATOM     25  C   UNL     1       6.630   4.010  15.550  0.00  0.00    +0.000 C 
BRANCH  25  26
ATOM     26  C   UNL     1       6.502   5.525  15.779  0.00  0.00    +0.000 C 
BRANCH  26  27
ATOM     27  N   UNL     1       7.415   6.069  16.807  0.00  0.00    +0.000 NA
BRANCH  27  29
ATOM     28  C   UNL     1       5.394   7.532  17.323  0.00  0.00    +0.000 C 
ATOM     29  C   UNL     1       6.904   7.362  17.296  0.00  0.00    +0.000 C 
ENDBRANCH  27  29
BRANCH  27  30
ATOM     30  C   UNL     1       7.668   5.088  17.880  0.00  0.00    +0.000 C 
ATOM     31  C   UNL     1       7.767   5.645  19.299  0.00  0.00    +0.000 C 
ENDBRANCH  27  30
ENDBRANCH  26  27
ENDBRANCH  25  26
ENDBRANCH  24  25
ENDBRANCH  23  24
ENDBRANCH  22  23
ENDBRANCH  21  22
ENDBRANCH  20  21
ENDBRANCH   1  20
TORSDOF 12
ENDMDL
MODEL 5
REMARK VINA RESULT:      -6.0      6.290      8.098
REMARK  Name = 
REMARK  14 active torsions:
REMARK  status: ('A' for Active; 'I' for Inactive)
REMARK    1  A    between atoms: C_1  and  C_2
REMARK    2  A    between atoms: C_2  and  N_3
REMARK    3  A    between atoms: N_3  and  C_4
REMARK    4  A    between atoms: N_3  and  C_6
REMARK    5  A    between atoms: C_4  and  C_5
REMARK    6  A    between atoms: C_6  and  C_7
REMARK    7  A    between atoms: C_7  and  C_8
REMARK    8  A    between atoms: C_8  and  C_9
REMARK    9  A    between atoms: C_9  and  C_10
REMARK   10  A    between atoms: C_10  and  C_11
REMARK   11  A    between atoms: C_11  and  C_12
REMARK   12  A    between atoms: C_12  and  C_13
REMARK   13  A    between atoms: N_15  and  C_16
REMARK   14  A    between atoms: C_19  and  C_20
REMARK                            x       y       z     vdW  Elec       q    Type
REMARK                         _______ _______ _______ _____ _____    ______ ____
ROOT
ATOM      1  C   UNL     1       7.934   7.816  18.023  0.00  0.00    +0.000 C 
ATOM      2  O   UNL     1       7.505   8.404  17.034  0.00  0.00    +0.000 OA
ATOM      3  N   UNL     1       8.734   8.362  19.018  0.00  0.00    +0.000 N 
ATOM      4  H   UNL     1       9.182   7.729  19.670  0.00  0.00    +0.000 HD
ENDROOT
BRANCH   3   5
ATOM      5  C   UNL     1       9.075   9.729  19.106  0.00  0.00    +0.000 A 
ATOM      6  C   UNL     1       9.320  10.339  20.343  0.00  0.00    +0.000 A 
ATOM      7  C   UNL     1       9.693  11.677  20.422  0.00  0.00    +0.000 A 
ATOM      8  C   UNL     1       9.839  12.445  19.262  0.00  0.00    +0.000 A 
ATOM      9  C   UNL     1       9.581  11.853  18.021  0.00  0.00    +0.000 A 
ATOM     10  C   UNL     1       9.207  10.496  17.947  0.00  0.00    +0.000 A 
BRANCH   8  11
ATOM     11  C   UNL     1      10.353  13.829  19.425  0.00  0.00    +0.000 C 
ATOM     12  O   UNL     1      10.541  14.230  20.569  0.00  0.00    +0.000 OA
ATOM     13  N   UNL     1      10.518  14.566  18.266  0.00  0.00    +0.000 N 
ATOM     14  C   UNL     1      10.944  15.861  18.309  0.00  0.00    +0.000 A 
ATOM     15  N   UNL     1      11.550  16.511  19.271  0.00  0.00    +0.000 NA
ATOM     16  C   UNL     1      11.767  17.820  18.882  0.00  0.00    +0.000 A 
ATOM     17  C   UNL     1      11.287  18.152  17.634  0.00  0.00    +0.000 A 
ATOM     18  S   UNL     1      10.633  16.752  16.884  0.00  0.00    +0.000 S 
ATOM     19  H   UNL     1      10.160  14.227  17.382  0.00  0.00    +0.000 HD
ENDBRANCH   8  11
ENDBRANCH   3   5
BRANCH   1  20
ATOM     20  C   UNL     1       7.665   6.342  18.175  0.00  0.00    +0.000 C 
BRANCH  20  21
ATOM     21  C   UNL     1       7.135   5.791  16.856  0.00  0.00    +0.000 C 
BRANCH  21  22
ATOM     22  C   UNL     1       5.791   5.074  17.020  0.00  0.00    +0.000 C 
BRANCH  22  23
ATOM     23  C   UNL     1       4.898   5.849  17.982  0.00  0.00    +0.000 C 
BRANCH  23  24
ATOM     24  C   UNL     1       3.453   5.359  17.924  0.00  0.00    +0.000 C 
BRANCH  24  25
ATOM     25  C   UNL     1       3.398   3.968  17.297  0.00  0.00    +0.000 C 
BRANCH  25  26
ATOM     26  C   UNL     1       3.083   2.857  18.313  0.00  0.00    +0.000 C 
BRANCH  26  27
ATOM     27  N   UNL     1       2.602   3.344  19.623  0.00  0.00    +0.000 NA
BRANCH  27  29
ATOM     28  C   UNL     1       0.492   2.249  18.708  0.00  0.00    +0.000 C 
ATOM     29  C   UNL     1       1.138   3.197  19.705  0.00  0.00    +0.000 C 
ENDBRANCH  27  29
BRANCH  27  30
ATOM     30  C   UNL     1       3.325   2.702  20.739  0.00  0.00    +0.000 C 
ATOM     31  C   UNL     1       4.618   1.972  20.379  0.00  0.00    +0.000 C 
ENDBRANCH  27  30
ENDBRANCH  26  27
ENDBRANCH  25  26
ENDBRANCH  24  25
ENDBRANCH  23  24
ENDBRANCH  22  23
ENDBRANCH  21  22
ENDBRANCH  20  21
ENDBRANCH   1  20
TORSDOF 12
ENDMDL
MODEL 6
REMARK VINA RESULT:      -6.0      3.006      3.632
REMARK  Name = 
REMARK  14 active torsions:
REMARK  status: ('A' for Active; 'I' for Inactive)
REMARK    1  A    between atoms: C_1  and  C_2
REMARK    2  A    between atoms: C_2  and  N_3
REMARK    3  A    between atoms: N_3  and  C_4
REMARK    4  A    between atoms: N_3  and  C_6
REMARK    5  A    between atoms: C_4  and  C_5
REMARK    6  A    between atoms: C_6  and  C_7
REMARK    7  A    between atoms: C_7  and  C_8
REMARK    8  A    between atoms: C_8  and  C_9
REMARK    9  A    between atoms: C_9  and  C_10
REMARK   10  A    between atoms: C_10  and  C_11
REMARK   11  A    between atoms: C_11  and  C_12
REMARK   12  A    between atoms: C_12  and  C_13
REMARK   13  A    between atoms: N_15  and  C_16
REMARK   14  A    between atoms: C_19  and  C_20
REMARK                            x       y       z     vdW  Elec       q    Type
REMARK                         _______ _______ _______ _____ _____    ______ ____
ROOT
ATOM      1  C   UNL     1       1.898   7.900  19.727  0.00  0.00    +0.000 C 
ATOM      2  O   UNL     1       1.622   8.675  18.815  0.00  0.00    +0.000 OA
ATOM      3  N   UNL     1       1.627   8.092  21.075  0.00  0.00    +0.000 N 
ATOM      4  H   UNL     1       2.078   7.479  21.744  0.00  0.00    +0.000 HD
ENDROOT
BRANCH   3   5
ATOM      5  C   UNL     1       0.871   9.167  21.591  0.00  0.00    +0.000 A 
ATOM      6  C   UNL     1       0.964  10.452  21.041  0.00  0.00    +0.000 A 
ATOM      7  C   UNL     1       0.189  11.499  21.528  0.00  0.00    +0.000 A 
ATOM      8  C   UNL     1      -0.709  11.290  22.580  0.00  0.00    +0.000 A 
ATOM      9  C   UNL     1      -0.800  10.016  23.150  0.00  0.00    +0.000 A 
ATOM     10  C   UNL     1      -0.015   8.958  22.650  0.00  0.00    +0.000 A 
BRANCH   8  11
ATOM     11  C   UNL     1      -1.583  12.429  22.962  0.00  0.00    +0.000 C 
ATOM     12  O   UNL     1      -2.729  12.168  23.313  0.00  0.00    +0.000 OA
ATOM     13  N   UNL     1      -1.040  13.694  22.831  0.00  0.00    +0.000 N 
ATOM     14  C   UNL     1      -1.773  14.809  23.115  0.00  0.00    +0.000 A 
ATOM     15  N   UNL     1      -2.873  14.931  23.813  0.00  0.00    +0.000 NA
ATOM     16  C   UNL     1      -3.280  16.252  23.812  0.00  0.00    +0.000 A 
ATOM     17  C   UNL     1      -2.492  17.112  23.077  0.00  0.00    +0.000 A 
ATOM     18  S   UNL     1      -1.142  16.253  22.453  0.00  0.00    +0.000 S 
ATOM     19  H   UNL     1      -0.157  13.831  22.356  0.00  0.00    +0.000 HD
ENDBRANCH   8  11
ENDBRANCH   3   5
BRANCH   1  20
ATOM     20  C   UNL     1       2.676   6.648  19.418  0.00  0.00    +0.000 C 
BRANCH  20  21
ATOM     21  C   UNL     1       2.260   5.548  20.387  0.00  0.00    +0.000 C 
BRANCH  21  22
ATOM     22  C   UNL     1       2.281   4.159  19.740  0.00  0.00    +0.000 C 
BRANCH  22  23
ATOM     23  C   UNL     1       1.470   4.171  18.450  0.00  0.00    +0.000 C 
BRANCH  23  24
ATOM     24  C   UNL     1       2.292   3.667  17.267  0.00  0.00    +0.000 C 
BRANCH  24  25
ATOM     25  C   UNL     1       3.604   3.061  17.762  0.00  0.00    +0.000 C 
BRANCH  25  26
ATOM     26  C   UNL     1       4.843   3.643  17.060  0.00  0.00    +0.000 C 
BRANCH  26  27
ATOM     27  N   UNL     1       5.087   5.075  17.336  0.00  0.00    +0.000 NA
BRANCH  27  29
ATOM     28  C   UNL     1       7.551   5.004  17.980  0.00  0.00    +0.000 C 
ATOM     29  C   UNL     1       6.104   5.214  18.393  0.00  0.00    +0.000 C 
ENDBRANCH  27  29
BRANCH  27  30
ATOM     30  C   UNL     1       5.410   5.816  16.102  0.00  0.00    +0.000 C 
ATOM     31  C   UNL     1       5.676   4.975  14.854  0.00  0.00    +0.000 C 
ENDBRANCH  27  30
ENDBRANCH  26  27
ENDBRANCH  25  26
ENDBRANCH  24  25
ENDBRANCH  23  24
ENDBRANCH  22  23
ENDBRANCH  21  22
ENDBRANCH  20  21
ENDBRANCH   1  20
TORSDOF 12
ENDMDL
MODEL 7
REMARK VINA RESULT:      -6.0      3.530      5.334
REMARK  Name = 
REMARK  14 active torsions:
REMARK  status: ('A' for Active; 'I' for Inactive)
REMARK    1  A    between atoms: C_1  and  C_2
REMARK    2  A    between atoms: C_2  and  N_3
REMARK    3  A    between atoms: N_3  and  C_4
REMARK    4  A    between atoms: N_3  and  C_6
REMARK    5  A    between atoms: C_4  and  C_5
REMARK    6  A    between atoms: C_6  and  C_7
REMARK    7  A    between atoms: C_7  and  C_8
REMARK    8  A    between atoms: C_8  and  C_9
REMARK    9  A    between atoms: C_9  and  C_10
REMARK   10  A    between atoms: C_10  and  C_11
REMARK   11  A    between atoms: C_11  and  C_12
REMARK   12  A    between atoms: C_12  and  C_13
REMARK   13  A    between atoms: N_15  and  C_16
REMARK   14  A    between atoms: C_19  and  C_20
REMARK                            x       y       z     vdW  Elec       q    Type
REMARK                         _______ _______ _______ _____ _____    ______ ____
ROOT
ATOM      1  C   UNL     1       1.950   9.589  18.074  0.00  0.00    +0.000 C 
ATOM      2  O   UNL     1       2.400  10.726  17.963  0.00  0.00    +0.000 OA
ATOM      3  N   UNL     1       0.733   9.243  18.646  0.00  0.00    +0.000 N 
ATOM      4  H   UNL     1       0.566   8.266  18.856  0.00  0.00    +0.000 HD
ENDROOT
BRANCH   3   5
ATOM      5  C   UNL     1      -0.238  10.172  19.080  0.00  0.00    +0.000 A 
ATOM      6  C   UNL     1      -0.178  10.743  20.357  0.00  0.00    +0.000 A 
ATOM      7  C   UNL     1      -1.115  11.687  20.766  0.00  0.00    +0.000 A 
ATOM      8  C   UNL     1      -2.139  12.093  19.904  0.00  0.00    +0.000 A 
ATOM      9  C   UNL     1      -2.221  11.518  18.632  0.00  0.00    +0.000 A 
ATOM     10  C   UNL     1      -1.266  10.565  18.222  0.00  0.00    +0.000 A 
BRANCH   8  11
ATOM     11  C   UNL     1      -3.025  13.188  20.373  0.00  0.00    +0.000 C 
ATOM     12  O   UNL     1      -2.552  13.999  21.163  0.00  0.00    +0.000 OA
ATOM     13  N   UNL     1      -4.332  13.161  19.919  0.00  0.00    +0.000 N 
ATOM     14  C   UNL     1      -5.238  14.097  20.324  0.00  0.00    +0.000 A 
ATOM     15  N   UNL     1      -5.042  15.271  20.869  0.00  0.00    +0.000 NA
ATOM     16  C   UNL     1      -6.260  15.866  21.141  0.00  0.00    +0.000 A 
ATOM     17  C   UNL     1      -7.369  15.111  20.827  0.00  0.00    +0.000 A 
ATOM     18  S   UNL     1      -6.869  13.652  20.072  0.00  0.00    +0.000 S 
ATOM     19  H   UNL     1      -4.691  12.355  19.424  0.00  0.00    +0.000 HD
ENDBRANCH   8  11
ENDBRANCH   3   5
BRANCH   1  20
ATOM     20  C   UNL     1       2.792   8.419  17.640  0.00  0.00    +0.000 C 
BRANCH  20  21
ATOM     21  C   UNL     1       2.421   7.198  18.474  0.00  0.00    +0.000 C 
BRANCH  21  22
ATOM     22  C   UNL     1       3.584   6.212  18.618  0.00  0.00    +0.000 C 
BRANCH  22  23
ATOM     23  C   UNL     1       4.068   5.769  17.242  0.00  0.00    +0.000 C 
BRANCH  23  24
ATOM     24  C   UNL     1       4.256   4.255  17.175  0.00  0.00    +0.000 C 
BRANCH  24  25
ATOM     25  C   UNL     1       2.897   3.559  17.194  0.00  0.00    +0.000 C 
BRANCH  25  26
ATOM     26  C   UNL     1       2.896   2.252  18.005  0.00  0.00    +0.000 C 
BRANCH  26  27
ATOM     27  N   UNL     1       2.126   2.314  19.265  0.00  0.00    +0.000 NA
BRANCH  27  29
ATOM     28  C   UNL     1       4.520   2.178  20.127  0.00  0.00    +0.000 C 
ATOM     29  C   UNL     1       3.048   2.431  20.409  0.00  0.00    +0.000 C 
ENDBRANCH  27  29
BRANCH  27  30
ATOM     30  C   UNL     1       1.099   3.372  19.222  0.00  0.00    +0.000 C 
ATOM     31  C   UNL     1       1.007   4.279  20.447  0.00  0.00    +0.000 C 
ENDBRANCH  27  30
ENDBRANCH  26  27
ENDBRANCH  25  26
ENDBRANCH  24  25
ENDBRANCH  23  24
ENDBRANCH  22  23
ENDBRANCH  21  22
ENDBRANCH  20  21
ENDBRANCH   1  20
TORSDOF 12
ENDMDL
MODEL 8
REMARK VINA RESULT:      -6.0      1.059      1.540
REMARK  Name = 
REMARK  14 active torsions:
REMARK  status: ('A' for Active; 'I' for Inactive)
REMARK    1  A    between atoms: C_1  and  C_2
REMARK    2  A    between atoms: C_2  and  N_3
REMARK    3  A    between atoms: N_3  and  C_4
REMARK    4  A    between atoms: N_3  and  C_6
REMARK    5  A    between atoms: C_4  and  C_5
REMARK    6  A    between atoms: C_6  and  C_7
REMARK    7  A    between atoms: C_7  and  C_8
REMARK    8  A    between atoms: C_8  and  C_9
REMARK    9  A    between atoms: C_9  and  C_10
REMARK   10  A    between atoms: C_10  and  C_11
REMARK   11  A    between atoms: C_11  and  C_12
REMARK   12  A    between atoms: C_12  and  C_13
REMARK   13  A    between atoms: N_15  and  C_16
REMARK   14  A    between atoms: C_19  and  C_20
REMARK                            x       y       z     vdW  Elec       q    Type
REMARK                         _______ _______ _______ _____ _____    ______ ____
ROOT
ATOM      1  C   UNL     1       1.813   5.029  20.629  0.00  0.00    +0.000 C 
ATOM      2  O   UNL     1       0.613   4.879  20.416  0.00  0.00    +0.000 OA
ATOM      3  N   UNL     1       2.529   6.210  20.486  0.00  0.00    +0.000 N 
ATOM      4  H   UNL     1       3.541   6.159  20.500  0.00  0.00    +0.000 HD
ENDROOT
BRANCH   3   5
ATOM      5  C   UNL     1       1.950   7.463  20.189  0.00  0.00    +0.000 A 
ATOM      6  C   UNL     1       1.285   8.208  21.171  0.00  0.00    +0.000 A 
ATOM      7  C   UNL     1       0.749   9.459  20.883  0.00  0.00    +0.000 A 
ATOM      8  C   UNL     1       0.868  10.006  19.601  0.00  0.00    +0.000 A 
ATOM      9  C   UNL     1       1.515   9.266  18.606  0.00  0.00    +0.000 A 
ATOM     10  C   UNL     1       2.059   8.000  18.905  0.00  0.00    +0.000 A 
BRANCH   8  11
ATOM     11  C   UNL     1       0.374  11.393  19.407  0.00  0.00    +0.000 C 
ATOM     12  O   UNL     1      -0.120  11.669  18.318  0.00  0.00    +0.000 OA
ATOM     13  N   UNL     1       0.570  12.270  20.458  0.00  0.00    +0.000 N 
ATOM     14  C   UNL     1       0.191  13.578  20.365  0.00  0.00    +0.000 A 
ATOM     15  N   UNL     1      -0.643  14.150  19.533  0.00  0.00    +0.000 NA
ATOM     16  C   UNL     1      -0.698  15.507  19.792  0.00  0.00    +0.000 A 
ATOM     17  C   UNL     1       0.129  15.950  20.801  0.00  0.00    +0.000 A 
ATOM     18  S   UNL     1       0.924  14.606  21.517  0.00  0.00    +0.000 S 
ATOM     19  H   UNL     1       1.154  12.014  21.244  0.00  0.00    +0.000 HD
ENDBRANCH   8  11
ENDBRANCH   3   5
BRANCH   1  20
ATOM     20  C   UNL     1       2.648   3.833  21.003  0.00  0.00    +0.000 C 
BRANCH  20  21
ATOM     21  C   UNL     1       1.772   2.585  20.987  0.00  0.00    +0.000 C 
BRANCH  21  22
ATOM     22  C   UNL     1       1.491   2.085  19.567  0.00  0.00    +0.000 C 
BRANCH  22  23
ATOM     23  C   UNL     1       2.797   1.945  18.795  0.00  0.00    +0.000 C 
BRANCH  23  24
ATOM     24  C   UNL     1       2.696   2.567  17.404  0.00  0.00    +0.000 C 
BRANCH  24  25
ATOM     25  C   UNL     1       3.381   3.932  17.390  0.00  0.00    +0.000 C 
BRANCH  25  26
ATOM     26  C   UNL     1       4.531   4.023  16.373  0.00  0.00    +0.000 C 
BRANCH  26  27
ATOM     27  N   UNL     1       5.582   5.002  16.724  0.00  0.00    +0.000 NA
BRANCH  27  29
ATOM     28  C   UNL     1       5.932   7.472  17.242  0.00  0.00    +0.000 C 
ATOM     29  C   UNL     1       4.998   6.352  16.813  0.00  0.00    +0.000 C 
ENDBRANCH  27  29
BRANCH  27  30
ATOM     30  C   UNL     1       6.320   4.595  17.934  0.00  0.00    +0.000 C 
ATOM     31  C   UNL     1       7.842   4.530  17.811  0.00  0.00    +0.000 C 
ENDBRANCH  27  30
ENDBRANCH  26  27
ENDBRANCH  25  26
ENDBRANCH  24  25
ENDBRANCH  23  24
ENDBRANCH  22  23
ENDBRANCH  21  22
ENDBRANCH  20  21
ENDBRANCH   1  20
TORSDOF 12
ENDMDL
MODEL 9
REMARK VINA RESULT:      -6.0      2.909      3.156
REMARK  Name = 
REMARK  14 active torsions:
REMARK  status: ('A' for Active; 'I' for Inactive)
REMARK    1  A    between atoms: C_1  and  C_2
REMARK    2  A    between atoms: C_2  and  N_3
REMARK    3  A    between atoms: N_3  and  C_4
REMARK    4  A    between atoms: N_3  and  C_6
REMARK    5  A    between atoms: C_4  and  C_5
REMARK    6  A    between atoms: C_6  and  C_7
REMARK    7  A    between atoms: C_7  and  C_8
REMARK    8  A    between atoms: C_8  and  C_9
REMARK    9  A    between atoms: C_9  and  C_10
REMARK   10  A    between atoms: C_10  and  C_11
REMARK   11  A    between atoms: C_11  and  C_12
REMARK   12  A    between atoms: C_12  and  C_13
REMARK   13  A    between atoms: N_15  and  C_16
REMARK   14  A    between atoms: C_19  and  C_20
REMARK                            x       y       z     vdW  Elec       q    Type
REMARK                         _______ _______ _______ _____ _____    ______ ____
ROOT
ATOM      1  C   UNL     1       1.972   7.269  19.968  0.00  0.00    +0.000 C 
ATOM      2  O   UNL     1       2.102   8.037  19.019  0.00  0.00    +0.000 OA
ATOM      3  N   UNL     1       1.347   7.555  21.174  0.00  0.00    +0.000 N 
ATOM      4  H   UNL     1       1.478   6.910  21.944  0.00  0.00    +0.000 HD
ENDROOT
BRANCH   3   5
ATOM      5  C   UNL     1       0.649   8.752  21.446  0.00  0.00    +0.000 A 
ATOM      6  C   UNL     1       0.252   9.613  20.415  0.00  0.00    +0.000 A 
ATOM      7  C   UNL     1      -0.468  10.772  20.685  0.00  0.00    +0.000 A 
ATOM      8  C   UNL     1      -0.820  11.102  21.999  0.00  0.00    +0.000 A 
ATOM      9  C   UNL     1      -0.416  10.260  23.040  0.00  0.00    +0.000 A 
ATOM     10  C   UNL     1       0.312   9.085  22.759  0.00  0.00    +0.000 A 
BRANCH   8  11
ATOM     11  C   UNL     1      -1.688  12.291  22.190  0.00  0.00    +0.000 C 
ATOM     12  O   UNL     1      -2.696  12.372  21.494  0.00  0.00    +0.000 OA
ATOM     13  N   UNL     1      -1.250  13.235  23.100  0.00  0.00    +0.000 N 
ATOM     14  C   UNL     1      -1.953  14.384  23.319  0.00  0.00    +0.000 A 
ATOM     15  N   UNL     1      -3.199  14.669  23.035  0.00  0.00    +0.000 NA
ATOM     16  C   UNL     1      -3.475  15.970  23.414  0.00  0.00    +0.000 A 
ATOM     17  C   UNL     1      -2.414  16.667  23.950  0.00  0.00    +0.000 A 
ATOM     18  S   UNL     1      -1.055  15.624  24.079  0.00  0.00    +0.000 S 
ATOM     19  H   UNL     1      -0.318  13.183  23.491  0.00  0.00    +0.000 HD
ENDBRANCH   8  11
ENDBRANCH   3   5
BRANCH   1  20
ATOM     20  C   UNL     1       2.602   5.903  19.899  0.00  0.00    +0.000 C 
BRANCH  20  21
ATOM     21  C   UNL     1       1.627   4.873  20.461  0.00  0.00    +0.000 C 
BRANCH  21  22
ATOM     22  C   UNL     1       1.349   3.733  19.476  0.00  0.00    +0.000 C 
BRANCH  22  23
ATOM     23  C   UNL     1       2.657   3.223  18.883  0.00  0.00    +0.000 C 
BRANCH  23  24
ATOM     24  C   UNL     1       2.629   3.251  17.357  0.00  0.00    +0.000 C 
BRANCH  24  25
ATOM     25  C   UNL     1       3.705   4.199  16.832  0.00  0.00    +0.000 C 
BRANCH  25  26
ATOM     26  C   UNL     1       5.078   3.982  17.490  0.00  0.00    +0.000 C 
BRANCH  26  27
ATOM     27  N   UNL     1       6.222   4.048  16.556  0.00  0.00    +0.000 NA
BRANCH  27  29
ATOM     28  C   UNL     1       6.254   4.089  14.009  0.00  0.00    +0.000 C 
ATOM     29  C   UNL     1       5.816   4.731  15.315  0.00  0.00    +0.000 C 
ENDBRANCH  27  29
BRANCH  27  30
ATOM     30  C   UNL     1       7.411   4.641  17.197  0.00  0.00    +0.000 C 
ATOM     31  C   UNL     1       7.148   5.681  18.285  0.00  0.00    +0.000 C 
ENDBRANCH  27  30
ENDBRANCH  26  27
ENDBRANCH  25  26
ENDBRANCH  24  25
ENDBRANCH  23  24
ENDBRANCH  22  23
ENDBRANCH  21  22
ENDBRANCH  20  21
ENDBRANCH   1  20
TORSDOF 12
ENDMDL
