MODEL 1
REMARK VINA RESULT:      -6.9      0.000      0.000
REMARK  Name = 
REMARK  6 active torsions:
REMARK  status: ('A' for Active; 'I' for Inactive)
REMARK    1  A    between atoms: C_1  and  C_2
REMARK    2  A    between atoms: C_2  and  C_3
REMARK    3  A    between atoms: C_3  and  C_4
REMARK    4  A    between atoms: C_3  and  N_7
REMARK    5  A    between atoms: C_4  and  C_5
REMARK    6  A    between atoms: C_11  and  C_12
REMARK                            x       y       z     vdW  Elec       q    Type
REMARK                         _______ _______ _______ _____ _____    ______ ____
ROOT
ATOM      1  N   UNL     1       5.112   5.549  16.562  0.00  0.00    +0.000 N 
ATOM      2  C   UNL     1       4.127   4.897  17.311  0.00  0.00    +0.000 A 
ATOM      3  C   UNL     1       2.988   5.624  17.648  0.00  0.00    +0.000 A 
ATOM      4  C   UNL     1       2.010   5.037  18.441  0.00  0.00    +0.000 A 
ATOM      5  C   UNL     1       2.161   3.711  18.842  0.00  0.00    +0.000 A 
ATOM      6  C   UNL     1       3.304   3.046  18.425  0.00  0.00    +0.000 A 
ATOM      7  N   UNL     1       4.287   3.614  17.684  0.00  0.00    +0.000 NA
ATOM      8  H   UNL     1       4.778   5.631  15.605  0.00  0.00    +0.000 HD
ENDROOT
BRANCH   5   9
ATOM      9  C   UNL     1       1.155   3.000  19.692  0.00  0.00    +0.000 C 
ATOM     10  F   UNL     1       0.500   3.823  20.560  0.00  0.00    +0.000 F 
ATOM     11  F   UNL     1       0.191   2.390  18.957  0.00  0.00    +0.000 F 
ATOM     12  F   UNL     1       1.717   2.022  20.456  0.00  0.00    +0.000 F 
ENDBRANCH   5   9
BRANCH   1  13
ATOM     13  C   UNL     1       6.483   5.027  16.665  0.00  0.00    +0.000 C 
BRANCH  13  15
ATOM     14  C   UNL     1       5.901   4.175  14.296  0.00  0.00    +0.000 C 
ATOM     15  C   UNL     1       6.969   4.739  15.222  0.00  0.00    +0.000 C 
ENDBRANCH  13  15
BRANCH  13  16
ATOM     16  C   UNL     1       7.393   5.999  17.438  0.00  0.00    +0.000 C 
BRANCH  16  17
ATOM     17  C   UNL     1       7.519   5.659  18.914  0.00  0.00    +0.000 C 
ATOM     18  N   UNL     1       7.624   5.377  20.139  0.00  0.00    +0.000 NA
ENDBRANCH  16  17
ENDBRANCH  13  16
ENDBRANCH   1  13
TORSDOF 5
ENDMDL
MODEL 2
REMARK VINA RESULT:      -6.9      1.069      1.414
REMARK  Name = 
REMARK  6 active torsions:
REMARK  status: ('A' for Active; 'I' for Inactive)
REMARK    1  A    between atoms: C_1  and  C_2
REMARK    2  A    between atoms: C_2  and  C_3
REMARK    3  A    between atoms: C_3  and  C_4
REMARK    4  A    between atoms: C_3  and  N_7
REMARK    5  A    between atoms: C_4  and  C_5
REMARK    6  A    between atoms: C_11  and  C_12
REMARK                            x       y       z     vdW  Elec       q    Type
REMARK                         _______ _______ _______ _____ _____    ______ ____
ROOT
ATOM      1  N   UNL     1       5.109   5.315  16.401  0.00  0.00    +0.000 N 
ATOM      2  C   UNL     1       4.094   4.696  17.137  0.00  0.00    +0.000 A 
ATOM      3  C   UNL     1       3.072   5.504  17.626  0.00  0.00    +0.000 A 
ATOM      4  C   UNL     1       2.073   4.944  18.414  0.00  0.00    +0.000 A 
ATOM      5  C   UNL     1       2.083   3.572  18.657  0.00  0.00    +0.000 A 
ATOM      6  C   UNL     1       3.114   2.834  18.095  0.00  0.00    +0.000 A 
ATOM      7  N   UNL     1       4.118   3.369  17.356  0.00  0.00    +0.000 NA
ATOM      8  H   UNL     1       4.738   5.545  15.482  0.00  0.00    +0.000 HD
ENDROOT
BRANCH   5   9
ATOM      9  C   UNL     1       1.046   2.886  19.489  0.00  0.00    +0.000 C 
ATOM     10  F   UNL     1       1.566   1.968  20.354  0.00  0.00    +0.000 F 
ATOM     11  F   UNL     1       0.333   3.754  20.250  0.00  0.00    +0.000 F 
ATOM     12  F   UNL     1       0.133   2.213  18.735  0.00  0.00    +0.000 F 
ENDBRANCH   5   9
BRANCH   1  13
ATOM     13  C   UNL     1       6.411   4.631  16.354  0.00  0.00    +0.000 C 
BRANCH  13  15
ATOM     14  C   UNL     1       6.098   3.950  13.881  0.00  0.00    +0.000 C 
ATOM     15  C   UNL     1       6.924   4.728  14.895  0.00  0.00    +0.000 C 
ENDBRANCH  13  15
BRANCH  13  16
ATOM     16  C   UNL     1       7.387   5.220  17.389  0.00  0.00    +0.000 C 
BRANCH  16  17
ATOM     17  C   UNL     1       7.452   6.738  17.358  0.00  0.00    +0.000 C 
ATOM     18  N   UNL     1       7.506   7.997  17.331  0.00  0.00    +0.000 NA
ENDBRANCH  16  17
ENDBRANCH  13  16
ENDBRANCH   1  13
TORSDOF 5
ENDMDL
MODEL 3
REMARK VINA RESULT:      -6.9      1.529      3.127
REMARK  Name = 
REMARK  6 active torsions:
REMARK  status: ('A' for Active; 'I' for Inactive)
REMARK    1  A    between atoms: C_1  and  C_2
REMARK    2  A    between atoms: C_2  and  C_3
REMARK    3  A    between atoms: C_3  and  C_4
REMARK    4  A    between atoms: C_3  and  N_7
REMARK    5  A    between atoms: C_4  and  C_5
REMARK    6  A    between atoms: C_11  and  C_12
REMARK                            x       y       z     vdW  Elec       q    Type
REMARK                         _______ _______ _______ _____ _____    ______ ____
ROOT
ATOM      1  N   UNL     1       6.378   4.110  18.715  0.00  0.00    +0.000 N 
ATOM      2  C   UNL     1       5.058   3.968  19.153  0.00  0.00    +0.000 A 
ATOM      3  C   UNL     1       4.681   2.731  19.669  0.00  0.00    +0.000 A 
ATOM      4  C   UNL     1       3.364   2.525  20.061  0.00  0.00    +0.000 A 
ATOM      5  C   UNL     1       2.454   3.577  19.982  0.00  0.00    +0.000 A 
ATOM      6  C   UNL     1       2.924   4.789  19.498  0.00  0.00    +0.000 A 
ATOM      7  N   UNL     1       4.195   4.998  19.074  0.00  0.00    +0.000 NA
ATOM      8  H   UNL     1       6.978   4.174  19.535  0.00  0.00    +0.000 HD
ENDROOT
BRANCH   5   9
ATOM      9  C   UNL     1       1.020   3.444  20.386  0.00  0.00    +0.000 C 
ATOM     10  F   UNL     1       0.265   2.752  19.485  0.00  0.00    +0.000 F 
ATOM     11  F   UNL     1       0.871   2.798  21.571  0.00  0.00    +0.000 F 
ATOM     12  F   UNL     1       0.407   4.650  20.539  0.00  0.00    +0.000 F 
ENDBRANCH   5   9
BRANCH   1  13
ATOM     13  C   UNL     1       6.639   5.153  17.712  0.00  0.00    +0.000 C 
BRANCH  13  15
ATOM     14  C   UNL     1       7.631   7.539  17.631  0.00  0.00    +0.000 C 
ATOM     15  C   UNL     1       7.534   6.222  18.389  0.00  0.00    +0.000 C 
ENDBRANCH  13  15
BRANCH  13  16
ATOM     16  C   UNL     1       7.256   4.556  16.434  0.00  0.00    +0.000 C 
BRANCH  16  17
ATOM     17  C   UNL     1       6.266   4.441  15.286  0.00  0.00    +0.000 C 
ATOM     18  N   UNL     1       5.445   4.346  14.334  0.00  0.00    +0.000 NA
ENDBRANCH  16  17
ENDBRANCH  13  16
ENDBRANCH   1  13
TORSDOF 5
ENDMDL
MODEL 4
REMARK VINA RESULT:      -6.9      0.594      1.065
REMARK  Name = 
REMARK  6 active torsions:
REMARK  status: ('A' for Active; 'I' for Inactive)
REMARK    1  A    between atoms: C_1  and  C_2
REMARK    2  A    between atoms: C_2  and  C_3
REMARK    3  A    between atoms: C_3  and  C_4
REMARK    4  A    between atoms: C_3  and  N_7
REMARK    5  A    between atoms: C_4  and  C_5
REMARK    6  A    between atoms: C_11  and  C_12
REMARK                            x       y       z     vdW  Elec       q    Type
REMARK                         _______ _______ _______ _____ _____    ______ ____
ROOT
ATOM      1  N   UNL     1       5.228   5.190  16.389  0.00  0.00    +0.000 N 
ATOM      2  C   UNL     1       4.183   4.633  17.133  0.00  0.00    +0.000 A 
ATOM      3  C   UNL     1       3.300   5.510  17.757  0.00  0.00    +0.000 A 
ATOM      4  C   UNL     1       2.282   5.004  18.556  0.00  0.00    +0.000 A 
ATOM      5  C   UNL     1       2.129   3.624  18.677  0.00  0.00    +0.000 A 
ATOM      6  C   UNL     1       3.026   2.823  17.987  0.00  0.00    +0.000 A 
ATOM      7  N   UNL     1       4.048   3.298  17.234  0.00  0.00    +0.000 NA
ATOM      8  H   UNL     1       4.840   5.550  15.520  0.00  0.00    +0.000 HD
ENDROOT
BRANCH   5   9
ATOM      9  C   UNL     1       1.059   2.995  19.512  0.00  0.00    +0.000 C 
ATOM     10  F   UNL     1       1.539   2.090  20.415  0.00  0.00    +0.000 F 
ATOM     11  F   UNL     1       0.359   3.906  20.233  0.00  0.00    +0.000 F 
ATOM     12  F   UNL     1       0.141   2.324  18.764  0.00  0.00    +0.000 F 
ENDBRANCH   5   9
BRANCH   1  13
ATOM     13  C   UNL     1       6.427   4.359  16.198  0.00  0.00    +0.000 C 
BRANCH  13  15
ATOM     14  C   UNL     1       5.664   3.958  13.761  0.00  0.00    +0.000 C 
ATOM     15  C   UNL     1       6.781   4.413  14.690  0.00  0.00    +0.000 C 
ENDBRANCH  13  15
BRANCH  13  16
ATOM     16  C   UNL     1       7.574   4.818  17.115  0.00  0.00    +0.000 C 
BRANCH  16  17
ATOM     17  C   UNL     1       7.127   5.105  18.540  0.00  0.00    +0.000 C 
ATOM     18  N   UNL     1       6.756   5.342  19.721  0.00  0.00    +0.000 NA
ENDBRANCH  16  17
ENDBRANCH  13  16
ENDBRANCH   1  13
TORSDOF 5
ENDMDL
MODEL 5
REMARK VINA RESULT:      -6.8      1.509      2.980
REMARK  Name = 
REMARK  6 active torsions:
REMARK  status: ('A' for Active; 'I' for Inactive)
REMARK    1  A    between atoms: C_1  and  C_2
REMARK    2  A    between atoms: C_2  and  C_3
REMARK    3  A    between atoms: C_3  and  C_4
REMARK    4  A    between atoms: C_3  and  N_7
REMARK    5  A    between atoms: C_4  and  C_5
REMARK    6  A    between atoms: C_11  and  C_12
REMARK                            x       y       z     vdW  Elec       q    Type
REMARK                         _______ _______ _______ _____ _____    ______ ____
ROOT
ATOM      1  N   UNL     1       5.745   3.747  17.097  0.00  0.00    +0.000 N 
ATOM      2  C   UNL     1       4.605   3.635  17.900  0.00  0.00    +0.000 A 
ATOM      3  C   UNL     1       3.637   2.712  17.515  0.00  0.00    +0.000 A 
ATOM      4  C   UNL     1       2.461   2.608  18.249  0.00  0.00    +0.000 A 
ATOM      5  C   UNL     1       2.293   3.393  19.388  0.00  0.00    +0.000 A 
ATOM      6  C   UNL     1       3.327   4.254  19.724  0.00  0.00    +0.000 A 
ATOM      7  N   UNL     1       4.464   4.398  19.000  0.00  0.00    +0.000 NA
ATOM      8  H   UNL     1       6.332   2.934  17.267  0.00  0.00    +0.000 HD
ENDROOT
BRANCH   5   9
ATOM      9  C   UNL     1       1.062   3.341  20.237  0.00  0.00    +0.000 C 
ATOM     10  F   UNL     1       1.247   2.687  21.420  0.00  0.00    +0.000 F 
ATOM     11  F   UNL     1       0.603   4.576  20.561  0.00  0.00    +0.000 F 
ATOM     12  F   UNL     1       0.028   2.708  19.617  0.00  0.00    +0.000 F 
ENDBRANCH   5   9
BRANCH   1  13
ATOM     13  C   UNL     1       6.476   5.023  17.151  0.00  0.00    +0.000 C 
BRANCH  13  15
ATOM     14  C   UNL     1       7.854   5.840  19.179  0.00  0.00    +0.000 C 
ATOM     15  C   UNL     1       7.703   4.806  18.072  0.00  0.00    +0.000 C 
ENDBRANCH  13  15
BRANCH  13  16
ATOM     16  C   UNL     1       6.846   5.513  15.740  0.00  0.00    +0.000 C 
BRANCH  16  17
ATOM     17  C   UNL     1       6.464   4.532  14.643  0.00  0.00    +0.000 C 
ATOM     18  N   UNL     1       6.147   3.718  13.734  0.00  0.00    +0.000 NA
ENDBRANCH  16  17
ENDBRANCH  13  16
ENDBRANCH   1  13
TORSDOF 5
ENDMDL
MODEL 6
REMARK VINA RESULT:      -6.7      1.596      2.865
REMARK  Name = 
REMARK  6 active torsions:
REMARK  status: ('A' for Active; 'I' for Inactive)
REMARK    1  A    between atoms: C_1  and  C_2
REMARK    2  A    between atoms: C_2  and  C_3
REMARK    3  A    between atoms: C_3  and  C_4
REMARK    4  A    between atoms: C_3  and  N_7
REMARK    5  A    between atoms: C_4  and  C_5
REMARK    6  A    between atoms: C_11  and  C_12
REMARK                            x       y       z     vdW  Elec       q    Type
REMARK                         _______ _______ _______ _____ _____    ______ ____
ROOT
ATOM      1  N   UNL     1       5.372   3.241  16.741  0.00  0.00    +0.000 N 
ATOM      2  C   UNL     1       4.327   3.314  17.668  0.00  0.00    +0.000 A 
ATOM      3  C   UNL     1       3.545   2.176  17.845  0.00  0.00    +0.000 A 
ATOM      4  C   UNL     1       2.459   2.220  18.711  0.00  0.00    +0.000 A 
ATOM      5  C   UNL     1       2.203   3.387  19.429  0.00  0.00    +0.000 A 
ATOM      6  C   UNL     1       3.058   4.459  19.224  0.00  0.00    +0.000 A 
ATOM      7  N   UNL     1       4.099   4.448  18.355  0.00  0.00    +0.000 NA
ATOM      8  H   UNL     1       6.120   2.688  17.151  0.00  0.00    +0.000 HD
ENDROOT
BRANCH   5   9
ATOM      9  C   UNL     1       1.059   3.519  20.384  0.00  0.00    +0.000 C 
ATOM     10  F   UNL     1       0.735   4.815  20.665  0.00  0.00    +0.000 F 
ATOM     11  F   UNL     1      -0.077   2.943  19.918  0.00  0.00    +0.000 F 
ATOM     12  F   UNL     1       1.312   2.929  21.585  0.00  0.00    +0.000 F 
ENDBRANCH   5   9
BRANCH   1  13
ATOM     13  C   UNL     1       5.831   4.509  16.153  0.00  0.00    +0.000 C 
BRANCH  13  15
ATOM     14  C   UNL     1       7.272   6.169  17.512  0.00  0.00    +0.000 C 
ATOM     15  C   UNL     1       7.208   4.832  16.787  0.00  0.00    +0.000 C 
ENDBRANCH  13  15
BRANCH  13  16
ATOM     16  C   UNL     1       5.866   4.430  14.616  0.00  0.00    +0.000 C 
BRANCH  16  17
ATOM     17  C   UNL     1       7.107   5.064  14.009  0.00  0.00    +0.000 C 
ATOM     18  N   UNL     1       8.137   5.589  13.506  0.00  0.00    +0.000 NA
ENDBRANCH  16  17
ENDBRANCH  13  16
ENDBRANCH   1  13
TORSDOF 5
ENDMDL
MODEL 7
REMARK VINA RESULT:      -6.7      1.710      3.109
REMARK  Name = 
REMARK  6 active torsions:
REMARK  status: ('A' for Active; 'I' for Inactive)
REMARK    1  A    between atoms: C_1  and  C_2
REMARK    2  A    between atoms: C_2  and  C_3
REMARK    3  A    between atoms: C_3  and  C_4
REMARK    4  A    between atoms: C_3  and  N_7
REMARK    5  A    between atoms: C_4  and  C_5
REMARK    6  A    between atoms: C_11  and  C_12
REMARK                            x       y       z     vdW  Elec       q    Type
REMARK                         _______ _______ _______ _____ _____    ______ ____
ROOT
ATOM      1  N   UNL     1       5.289   3.163  16.769  0.00  0.00    +0.000 N 
ATOM      2  C   UNL     1       4.388   3.282  17.832  0.00  0.00    +0.000 A 
ATOM      3  C   UNL     1       3.512   2.223  18.054  0.00  0.00    +0.000 A 
ATOM      4  C   UNL     1       2.560   2.321  19.061  0.00  0.00    +0.000 A 
ATOM      5  C   UNL     1       2.532   3.457  19.867  0.00  0.00    +0.000 A 
ATOM      6  C   UNL     1       3.468   4.446  19.605  0.00  0.00    +0.000 A 
ATOM      7  N   UNL     1       4.380   4.385  18.603  0.00  0.00    +0.000 NA
ATOM      8  H   UNL     1       6.017   2.509  17.044  0.00  0.00    +0.000 HD
ENDROOT
BRANCH   5   9
ATOM      9  C   UNL     1       1.544   3.644  20.975  0.00  0.00    +0.000 C 
ATOM     10  F   UNL     1       0.694   2.587  21.127  0.00  0.00    +0.000 F 
ATOM     11  F   UNL     1       2.142   3.817  22.181  0.00  0.00    +0.000 F 
ATOM     12  F   UNL     1       0.752   4.736  20.790  0.00  0.00    +0.000 F 
ENDBRANCH   5   9
BRANCH   1  13
ATOM     13  C   UNL     1       5.808   4.413  16.192  0.00  0.00    +0.000 C 
BRANCH  13  15
ATOM     14  C   UNL     1       7.356   5.999  17.521  0.00  0.00    +0.000 C 
ATOM     15  C   UNL     1       7.204   4.657  16.818  0.00  0.00    +0.000 C 
ENDBRANCH  13  15
BRANCH  13  16
ATOM     16  C   UNL     1       5.826   4.351  14.654  0.00  0.00    +0.000 C 
BRANCH  16  17
ATOM     17  C   UNL     1       7.056   5.000  14.041  0.00  0.00    +0.000 C 
ATOM     18  N   UNL     1       8.077   5.537  13.532  0.00  0.00    +0.000 NA
ENDBRANCH  16  17
ENDBRANCH  13  16
ENDBRANCH   1  13
TORSDOF 5
ENDMDL
MODEL 8
REMARK VINA RESULT:      -6.6      1.255      1.694
REMARK  Name = 
REMARK  6 active torsions:
REMARK  status: ('A' for Active; 'I' for Inactive)
REMARK    1  A    between atoms: C_1  and  C_2
REMARK    2  A    between atoms: C_2  and  C_3
REMARK    3  A    between atoms: C_3  and  C_4
REMARK    4  A    between atoms: C_3  and  N_7
REMARK    5  A    between atoms: C_4  and  C_5
REMARK    6  A    between atoms: C_11  and  C_12
REMARK                            x       y       z     vdW  Elec       q    Type
REMARK                         _______ _______ _______ _____ _____    ______ ____
ROOT
ATOM      1  N   UNL     1       5.293   5.294  16.754  0.00  0.00    +0.000 N 
ATOM      2  C   UNL     1       4.353   4.864  17.695  0.00  0.00    +0.000 A 
ATOM      3  C   UNL     1       3.307   5.730  18.003  0.00  0.00    +0.000 A 
ATOM      4  C   UNL     1       2.383   5.370  18.976  0.00  0.00    +0.000 A 
ATOM      5  C   UNL     1       2.488   4.124  19.590  0.00  0.00    +0.000 A 
ATOM      6  C   UNL     1       3.534   3.305  19.193  0.00  0.00    +0.000 A 
ATOM      7  N   UNL     1       4.467   3.654  18.274  0.00  0.00    +0.000 NA
ATOM      8  H   UNL     1       4.865   5.239  15.832  0.00  0.00    +0.000 HD
ENDROOT
BRANCH   5   9
ATOM      9  C   UNL     1       1.535   3.654  20.644  0.00  0.00    +0.000 C 
ATOM     10  F   UNL     1       1.251   2.322  20.563  0.00  0.00    +0.000 F 
ATOM     11  F   UNL     1       2.005   3.860  21.900  0.00  0.00    +0.000 F 
ATOM     12  F   UNL     1       0.335   4.296  20.585  0.00  0.00    +0.000 F 
ENDBRANCH   5   9
BRANCH   1  13
ATOM     13  C   UNL     1       6.630   4.685  16.819  0.00  0.00    +0.000 C 
BRANCH  13  15
ATOM     14  C   UNL     1       6.096   4.464  14.300  0.00  0.00    +0.000 C 
ATOM     15  C   UNL     1       7.170   4.617  15.368  0.00  0.00    +0.000 C 
ENDBRANCH  13  15
BRANCH  13  16
ATOM     16  C   UNL     1       7.549   5.458  17.781  0.00  0.00    +0.000 C 
BRANCH  16  17
ATOM     17  C   UNL     1       7.549   6.958  17.537  0.00  0.00    +0.000 C 
ATOM     18  N   UNL     1       7.549   8.203  17.335  0.00  0.00    +0.000 NA
ENDBRANCH  16  17
ENDBRANCH  13  16
ENDBRANCH   1  13
TORSDOF 5
ENDMDL
MODEL 9
REMARK VINA RESULT:      -6.6      1.062      1.390
REMARK  Name = 
REMARK  6 active torsions:
REMARK  status: ('A' for Active; 'I' for Inactive)
REMARK    1  A    between atoms: C_1  and  C_2
REMARK    2  A    between atoms: C_2  and  C_3
REMARK    3  A    between atoms: C_3  and  C_4
REMARK    4  A    between atoms: C_3  and  N_7
REMARK    5  A    between atoms: C_4  and  C_5
REMARK    6  A    between atoms: C_11  and  C_12
REMARK                            x       y       z     vdW  Elec       q    Type
REMARK                         _______ _______ _______ _____ _____    ______ ____
ROOT
ATOM      1  N   UNL     1       4.962   4.774  16.393  0.00  0.00    +0.000 N 
ATOM      2  C   UNL     1       4.266   4.397  17.545  0.00  0.00    +0.000 A 
ATOM      3  C   UNL     1       2.971   4.882  17.702  0.00  0.00    +0.000 A 
ATOM      4  C   UNL     1       2.263   4.582  18.859  0.00  0.00    +0.000 A 
ATOM      5  C   UNL     1       2.842   3.756  19.821  0.00  0.00    +0.000 A 
ATOM      6  C   UNL     1       4.119   3.281  19.565  0.00  0.00    +0.000 A 
ATOM      7  N   UNL     1       4.840   3.594  18.460  0.00  0.00    +0.000 NA
ATOM      8  H   UNL     1       4.581   4.251  15.608  0.00  0.00    +0.000 HD
ENDROOT
BRANCH   5   9
ATOM      9  C   UNL     1       2.150   3.379  21.093  0.00  0.00    +0.000 C 
ATOM     10  F   UNL     1       0.814   3.148  20.935  0.00  0.00    +0.000 F 
ATOM     11  F   UNL     1       2.661   2.251  21.648  0.00  0.00    +0.000 F 
ATOM     12  F   UNL     1       2.251   4.345  22.048  0.00  0.00    +0.000 F 
ENDBRANCH   5   9
BRANCH   1  13
ATOM     13  C   UNL     1       6.431   4.747  16.461  0.00  0.00    +0.000 C 
BRANCH  13  15
ATOM     14  C   UNL     1       5.920   4.045  14.026  0.00  0.00    +0.000 C 
ATOM     15  C   UNL     1       6.950   4.582  15.010  0.00  0.00    +0.000 C 
ENDBRANCH  13  15
BRANCH  13  16
ATOM     16  C   UNL     1       6.980   5.996  17.172  0.00  0.00    +0.000 C 
BRANCH  16  17
ATOM     17  C   UNL     1       7.591   5.694  18.531  0.00  0.00    +0.000 C 
ATOM     18  N   UNL     1       8.098   5.444  19.658  0.00  0.00    +0.000 NA
ENDBRANCH  16  17
ENDBRANCH  13  16
ENDBRANCH   1  13
TORSDOF 5
ENDMDL
