MODEL 1
REMARK VINA RESULT:      -8.7      0.000      0.000
REMARK  Name = 
REMARK  5 active torsions:
REMARK  status: ('A' for Active; 'I' for Inactive)
REMARK    1  A    between atoms: C_2  and  C_3
REMARK    2  A    between atoms: C_2  and  C_10
REMARK    3  A    between atoms: C_6  and  O_7
REMARK    4  A    between atoms: C_19  and  C_20
REMARK    5  A    between atoms: C_23  and  O_24
REMARK                            x       y       z     vdW  Elec       q    Type
REMARK                         _______ _______ _______ _____ _____    ______ ____
ROOT
ATOM      1  C   UNL     1       2.881   6.421  19.203  0.00  0.00    +0.000 A 
ATOM      2  N   UNL     1       2.097   5.998  20.268  0.00  0.00    +0.000 N 
ATOM      3  C   UNL     1       2.454   4.737  20.608  0.00  0.00    +0.000 A 
ATOM      4  N   UNL     1       1.889   3.968  21.550  0.00  0.00    +0.000 N 
ATOM      5  C   UNL     1       2.390   2.696  21.669  0.00  0.00    +0.000 A 
ATOM      6  N   UNL     1       3.368   2.178  21.000  0.00  0.00    +0.000 NA
ATOM      7  C   UNL     1       4.032   2.951  20.048  0.00  0.00    +0.000 A 
ATOM      8  O   UNL     1       5.002   2.519  19.438  0.00  0.00    +0.000 OA
ATOM      9  C   UNL     1       3.492   4.303  19.824  0.00  0.00    +0.000 A 
ATOM     10  C   UNL     1       3.786   5.379  18.917  0.00  0.00    +0.000 A 
ATOM     11  H   UNL     1       1.335   6.524  20.671  0.00  0.00    +0.000 HD
ATOM     12  H   UNL     1       1.099   4.243  22.125  0.00  0.00    +0.000 HD
ENDROOT
BRANCH  10  13
ATOM     13  C   UNL     1       4.794   5.432  17.850  0.00  0.00    +0.000 A 
ATOM     14  C   UNL     1       4.533   4.861  16.595  0.00  0.00    +0.000 A 
ATOM     15  C   UNL     1       5.504   4.852  15.587  0.00  0.00    +0.000 A 
ATOM     16  C   UNL     1       6.729   5.462  15.814  0.00  0.00    +0.000 A 
ATOM     17  C   UNL     1       7.000   6.069  17.031  0.00  0.00    +0.000 A 
ATOM     18  C   UNL     1       6.047   6.030  18.054  0.00  0.00    +0.000 A 
BRANCH  16  19
ATOM     19  O   UNL     1       7.700   5.481  14.858  0.00  0.00    +0.000 OA
ATOM     20  H   UNL     1       8.275   4.710  14.996  0.00  0.00    +0.000 HD
ENDBRANCH  16  19
ENDBRANCH  10  13
BRANCH   1  22
ATOM     21  O   UNL     1       3.291   7.992  17.493  0.00  0.00    +0.000 OA
ATOM     22  C   UNL     1       2.654   7.675  18.496  0.00  0.00    +0.000 C 
BRANCH  22  23
ATOM     23  C   UNL     1       1.589   8.629  18.933  0.00  0.00    +0.000 A 
ATOM     24  C   UNL     1       0.891   9.331  17.932  0.00  0.00    +0.000 A 
ATOM     25  C   UNL     1      -0.089  10.265  18.262  0.00  0.00    +0.000 A 
ATOM     26  C   UNL     1      -0.373  10.506  19.601  0.00  0.00    +0.000 A 
ATOM     27  C   UNL     1       0.316   9.833  20.608  0.00  0.00    +0.000 A 
ATOM     28  C   UNL     1       1.306   8.902  20.278  0.00  0.00    +0.000 A 
BRANCH  26  29
ATOM     29  O   UNL     1      -1.322  11.414  19.970  0.00  0.00    +0.000 OA
ATOM     30  H   UNL     1      -1.188  12.234  19.464  0.00  0.00    +0.000 HD
ENDBRANCH  26  29
ENDBRANCH  22  23
ENDBRANCH   1  22
TORSDOF 5
ENDMDL
MODEL 2
REMARK VINA RESULT:      -8.6      0.137      1.344
REMARK  Name = 
REMARK  5 active torsions:
REMARK  status: ('A' for Active; 'I' for Inactive)
REMARK    1  A    between atoms: C_2  and  C_3
REMARK    2  A    between atoms: C_2  and  C_10
REMARK    3  A    between atoms: C_6  and  O_7
REMARK    4  A    between atoms: C_19  and  C_20
REMARK    5  A    between atoms: C_23  and  O_24
REMARK                            x       y       z     vdW  Elec       q    Type
REMARK                         _______ _______ _______ _____ _____    ______ ____
ROOT
ATOM      1  C   UNL     1       2.923   6.372  19.159  0.00  0.00    +0.000 A 
ATOM      2  N   UNL     1       2.114   5.986  20.220  0.00  0.00    +0.000 N 
ATOM      3  C   UNL     1       2.445   4.729  20.595  0.00  0.00    +0.000 A 
ATOM      4  N   UNL     1       1.851   3.992  21.546  0.00  0.00    +0.000 N 
ATOM      5  C   UNL     1       2.329   2.715  21.703  0.00  0.00    +0.000 A 
ATOM      6  N   UNL     1       3.310   2.166  21.064  0.00  0.00    +0.000 NA
ATOM      7  C   UNL     1       4.003   2.905  20.106  0.00  0.00    +0.000 A 
ATOM      8  O   UNL     1       4.975   2.443  19.523  0.00  0.00    +0.000 OA
ATOM      9  C   UNL     1       3.488   4.259  19.841  0.00  0.00    +0.000 A 
ATOM     10  C   UNL     1       3.815   5.308  18.913  0.00  0.00    +0.000 A 
ATOM     11  H   UNL     1       1.355   6.535  20.597  0.00  0.00    +0.000 HD
ATOM     12  H   UNL     1       1.057   4.293  22.101  0.00  0.00    +0.000 HD
ENDROOT
BRANCH  10  13
ATOM     13  C   UNL     1       4.841   5.320  17.863  0.00  0.00    +0.000 A 
ATOM     14  C   UNL     1       6.085   5.929  18.088  0.00  0.00    +0.000 A 
ATOM     15  C   UNL     1       7.052   5.999  17.079  0.00  0.00    +0.000 A 
ATOM     16  C   UNL     1       6.797   5.411  15.848  0.00  0.00    +0.000 A 
ATOM     17  C   UNL     1       5.592   4.769  15.609  0.00  0.00    +0.000 A 
ATOM     18  C   UNL     1       4.608   4.746  16.603  0.00  0.00    +0.000 A 
BRANCH  16  19
ATOM     19  O   UNL     1       7.713   5.452  14.839  0.00  0.00    +0.000 OA
ATOM     20  H   UNL     1       7.724   6.353  14.477  0.00  0.00    +0.000 HD
ENDBRANCH  16  19
ENDBRANCH  10  13
BRANCH   1  22
ATOM     21  O   UNL     1       3.364   7.879  17.400  0.00  0.00    +0.000 OA
ATOM     22  C   UNL     1       2.728   7.611  18.418  0.00  0.00    +0.000 C 
BRANCH  22  23
ATOM     23  C   UNL     1       1.700   8.612  18.839  0.00  0.00    +0.000 A 
ATOM     24  C   UNL     1       1.430   8.731  20.215  0.00  0.00    +0.000 A 
ATOM     25  C   UNL     1       0.458   9.614  20.682  0.00  0.00    +0.000 A 
ATOM     26  C   UNL     1      -0.255  10.382  19.769  0.00  0.00    +0.000 A 
ATOM     27  C   UNL     1      -0.015  10.269  18.401  0.00  0.00    +0.000 A 
ATOM     28  C   UNL     1       0.955   9.377  17.931  0.00  0.00    +0.000 A 
BRANCH  26  29
ATOM     29  O   UNL     1      -1.217  11.256  20.180  0.00  0.00    +0.000 OA
ATOM     30  H   UNL     1      -0.801  12.110  20.388  0.00  0.00    +0.000 HD
ENDBRANCH  26  29
ENDBRANCH  22  23
ENDBRANCH   1  22
TORSDOF 5
ENDMDL
MODEL 3
REMARK VINA RESULT:      -8.3      3.332      5.568
REMARK  Name = 
REMARK  5 active torsions:
REMARK  status: ('A' for Active; 'I' for Inactive)
REMARK    1  A    between atoms: C_2  and  C_3
REMARK    2  A    between atoms: C_2  and  C_10
REMARK    3  A    between atoms: C_6  and  O_7
REMARK    4  A    between atoms: C_19  and  C_20
REMARK    5  A    between atoms: C_23  and  O_24
REMARK                            x       y       z     vdW  Elec       q    Type
REMARK                         _______ _______ _______ _____ _____    ______ ____
ROOT
ATOM      1  C   UNL     1       5.236   4.275  16.598  0.00  0.00    +0.000 A 
ATOM      2  N   UNL     1       4.851   3.468  15.536  0.00  0.00    +0.000 N 
ATOM      3  C   UNL     1       5.644   3.731  14.470  0.00  0.00    +0.000 A 
ATOM      4  N   UNL     1       5.545   3.194  13.244  0.00  0.00    +0.000 N 
ATOM      5  C   UNL     1       6.430   3.667  12.308  0.00  0.00    +0.000 A 
ATOM      6  N   UNL     1       7.367   4.539  12.493  0.00  0.00    +0.000 NA
ATOM      7  C   UNL     1       7.554   5.087  13.761  0.00  0.00    +0.000 A 
ATOM      8  O   UNL     1       8.468   5.869  13.991  0.00  0.00    +0.000 OA
ATOM      9  C   UNL     1       6.586   4.672  14.791  0.00  0.00    +0.000 A 
ATOM     10  C   UNL     1       6.344   5.030  16.163  0.00  0.00    +0.000 A 
ATOM     11  H   UNL     1       4.060   2.840  15.543  0.00  0.00    +0.000 HD
ATOM     12  H   UNL     1       4.841   2.521  12.961  0.00  0.00    +0.000 HD
ENDROOT
BRANCH  10  13
ATOM     13  C   UNL     1       7.051   6.011  16.995  0.00  0.00    +0.000 A 
ATOM     14  C   UNL     1       7.664   5.618  18.194  0.00  0.00    +0.000 A 
ATOM     15  C   UNL     1       8.291   6.551  19.028  0.00  0.00    +0.000 A 
ATOM     16  C   UNL     1       8.354   7.881  18.638  0.00  0.00    +0.000 A 
ATOM     17  C   UNL     1       7.790   8.292  17.439  0.00  0.00    +0.000 A 
ATOM     18  C   UNL     1       7.119   7.366  16.634  0.00  0.00    +0.000 A 
BRANCH  16  19
ATOM     19  O   UNL     1       8.960   8.821  19.417  0.00  0.00    +0.000 OA
ATOM     20  H   UNL     1       9.598   8.370  19.994  0.00  0.00    +0.000 HD
ENDBRANCH  16  19
ENDBRANCH  10  13
BRANCH   1  22
ATOM     21  O   UNL     1       4.480   3.432  18.666  0.00  0.00    +0.000 OA
ATOM     22  C   UNL     1       4.493   4.352  17.850  0.00  0.00    +0.000 C 
BRANCH  22  23
ATOM     23  C   UNL     1       3.738   5.585  18.229  0.00  0.00    +0.000 A 
ATOM     24  C   UNL     1       3.051   5.577  19.457  0.00  0.00    +0.000 A 
ATOM     25  C   UNL     1       2.294   6.676  19.863  0.00  0.00    +0.000 A 
ATOM     26  C   UNL     1       2.217   7.789  19.035  0.00  0.00    +0.000 A 
ATOM     27  C   UNL     1       2.877   7.812  17.808  0.00  0.00    +0.000 A 
ATOM     28  C   UNL     1       3.630   6.707  17.396  0.00  0.00    +0.000 A 
BRANCH  26  29
ATOM     29  O   UNL     1       1.485   8.883  19.389  0.00  0.00    +0.000 OA
ATOM     30  H   UNL     1       2.091   9.608  19.621  0.00  0.00    +0.000 HD
ENDBRANCH  26  29
ENDBRANCH  22  23
ENDBRANCH   1  22
TORSDOF 5
ENDMDL
MODEL 4
REMARK VINA RESULT:      -8.2      2.481      5.658
REMARK  Name = 
REMARK  5 active torsions:
REMARK  status: ('A' for Active; 'I' for Inactive)
REMARK    1  A    between atoms: C_2  and  C_3
REMARK    2  A    between atoms: C_2  and  C_10
REMARK    3  A    between atoms: C_6  and  O_7
REMARK    4  A    between atoms: C_19  and  C_20
REMARK    5  A    between atoms: C_23  and  O_24
REMARK                            x       y       z     vdW  Elec       q    Type
REMARK                         _______ _______ _______ _____ _____    ______ ____
ROOT
ATOM      1  C   UNL     1       4.461   5.222  17.041  0.00  0.00    +0.000 A 
ATOM      2  N   UNL     1       4.719   3.863  16.911  0.00  0.00    +0.000 N 
ATOM      3  C   UNL     1       3.862   3.173  17.699  0.00  0.00    +0.000 A 
ATOM      4  N   UNL     1       3.836   1.845  17.886  0.00  0.00    +0.000 N 
ATOM      5  C   UNL     1       2.908   1.382  18.786  0.00  0.00    +0.000 A 
ATOM      6  N   UNL     1       2.037   2.083  19.436  0.00  0.00    +0.000 NA
ATOM      7  C   UNL     1       1.978   3.462  19.235  0.00  0.00    +0.000 A 
ATOM      8  O   UNL     1       1.129   4.151  19.784  0.00  0.00    +0.000 OA
ATOM      9  C   UNL     1       2.999   4.026  18.336  0.00  0.00    +0.000 A 
ATOM     10  C   UNL     1       3.366   5.352  17.918  0.00  0.00    +0.000 A 
ATOM     11  H   UNL     1       5.473   3.466  16.369  0.00  0.00    +0.000 HD
ATOM     12  H   UNL     1       4.479   1.186  17.459  0.00  0.00    +0.000 HD
ENDROOT
BRANCH  10  13
ATOM     13  C   UNL     1       2.779   6.637  18.318  0.00  0.00    +0.000 A 
ATOM     14  C   UNL     1       2.441   6.878  19.658  0.00  0.00    +0.000 A 
ATOM     15  C   UNL     1       1.829   8.075  20.048  0.00  0.00    +0.000 A 
ATOM     16  C   UNL     1       1.596   9.062  19.101  0.00  0.00    +0.000 A 
ATOM     17  C   UNL     1       1.954   8.866  17.775  0.00  0.00    +0.000 A 
ATOM     18  C   UNL     1       2.519   7.649  17.381  0.00  0.00    +0.000 A 
BRANCH  16  19
ATOM     19  O   UNL     1       1.006  10.244  19.437  0.00  0.00    +0.000 OA
ATOM     20  H   UNL     1       1.169  10.878  18.720  0.00  0.00    +0.000 HD
ENDBRANCH  16  19
ENDBRANCH  10  13
BRANCH   1  22
ATOM     21  O   UNL     1       5.154   6.633  15.284  0.00  0.00    +0.000 OA
ATOM     22  C   UNL     1       5.302   6.252  16.444  0.00  0.00    +0.000 C 
BRANCH  22  23
ATOM     23  C   UNL     1       6.369   6.937  17.236  0.00  0.00    +0.000 A 
ATOM     24  C   UNL     1       6.547   8.318  17.032  0.00  0.00    +0.000 A 
ATOM     25  C   UNL     1       7.546   9.020  17.706  0.00  0.00    +0.000 A 
ATOM     26  C   UNL     1       8.378   8.338  18.585  0.00  0.00    +0.000 A 
ATOM     27  C   UNL     1       8.229   6.968  18.791  0.00  0.00    +0.000 A 
ATOM     28  C   UNL     1       7.232   6.261  18.109  0.00  0.00    +0.000 A 
BRANCH  26  29
ATOM     29  O   UNL     1       9.370   8.983  19.262  0.00  0.00    +0.000 OA
ATOM     30  H   UNL     1       8.996   9.765  19.703  0.00  0.00    +0.000 HD
ENDBRANCH  26  29
ENDBRANCH  22  23
ENDBRANCH   1  22
TORSDOF 5
ENDMDL
MODEL 5
REMARK VINA RESULT:      -8.2      2.916      6.249
REMARK  Name = 
REMARK  5 active torsions:
REMARK  status: ('A' for Active; 'I' for Inactive)
REMARK    1  A    between atoms: C_2  and  C_3
REMARK    2  A    between atoms: C_2  and  C_10
REMARK    3  A    between atoms: C_6  and  O_7
REMARK    4  A    between atoms: C_19  and  C_20
REMARK    5  A    between atoms: C_23  and  O_24
REMARK                            x       y       z     vdW  Elec       q    Type
REMARK                         _______ _______ _______ _____ _____    ______ ____
ROOT
ATOM      1  C   UNL     1       4.011   4.117  17.275  0.00  0.00    +0.000 A 
ATOM      2  N   UNL     1       5.080   3.495  16.642  0.00  0.00    +0.000 N 
ATOM      3  C   UNL     1       6.045   4.412  16.399  0.00  0.00    +0.000 A 
ATOM      4  N   UNL     1       7.204   4.207  15.754  0.00  0.00    +0.000 N 
ATOM      5  C   UNL     1       7.997   5.313  15.576  0.00  0.00    +0.000 A 
ATOM      6  N   UNL     1       7.766   6.513  15.997  0.00  0.00    +0.000 NA
ATOM      7  C   UNL     1       6.605   6.773  16.725  0.00  0.00    +0.000 A 
ATOM      8  O   UNL     1       6.379   7.881  17.193  0.00  0.00    +0.000 OA
ATOM      9  C   UNL     1       5.678   5.640  16.885  0.00  0.00    +0.000 A 
ATOM     10  C   UNL     1       4.371   5.467  17.460  0.00  0.00    +0.000 A 
ATOM     11  H   UNL     1       5.096   2.529  16.350  0.00  0.00    +0.000 HD
ATOM     12  H   UNL     1       7.494   3.322  15.352  0.00  0.00    +0.000 HD
ENDROOT
BRANCH  10  13
ATOM     13  C   UNL     1       3.508   6.470  18.098  0.00  0.00    +0.000 A 
ATOM     14  C   UNL     1       3.113   6.322  19.436  0.00  0.00    +0.000 A 
ATOM     15  C   UNL     1       2.244   7.237  20.041  0.00  0.00    +0.000 A 
ATOM     16  C   UNL     1       1.806   8.340  19.321  0.00  0.00    +0.000 A 
ATOM     17  C   UNL     1       2.211   8.533  18.009  0.00  0.00    +0.000 A 
ATOM     18  C   UNL     1       3.037   7.588  17.392  0.00  0.00    +0.000 A 
BRANCH  16  19
ATOM     19  O   UNL     1       0.964   9.259  19.873  0.00  0.00    +0.000 OA
ATOM     20  H   UNL     1       0.727   9.903  19.186  0.00  0.00    +0.000 HD
ENDBRANCH  16  19
ENDBRANCH  10  13
BRANCH   1  22
ATOM     21  O   UNL     1       1.989   3.082  16.644  0.00  0.00    +0.000 OA
ATOM     22  C   UNL     1       2.745   3.447  17.543  0.00  0.00    +0.000 C 
BRANCH  22  23
ATOM     23  C   UNL     1       2.318   3.126  18.939  0.00  0.00    +0.000 A 
ATOM     24  C   UNL     1       0.956   3.283  19.257  0.00  0.00    +0.000 A 
ATOM     25  C   UNL     1       0.488   3.040  20.547  0.00  0.00    +0.000 A 
ATOM     26  C   UNL     1       1.385   2.641  21.530  0.00  0.00    +0.000 A 
ATOM     27  C   UNL     1       2.740   2.494  21.241  0.00  0.00    +0.000 A 
ATOM     28  C   UNL     1       3.213   2.746  19.949  0.00  0.00    +0.000 A 
BRANCH  26  29
ATOM     29  O   UNL     1       0.972   2.396  22.807  0.00  0.00    +0.000 OA
ATOM     30  H   UNL     1       1.720   2.042  23.318  0.00  0.00    +0.000 HD
ENDBRANCH  26  29
ENDBRANCH  22  23
ENDBRANCH   1  22
TORSDOF 5
ENDMDL
MODEL 6
REMARK VINA RESULT:      -8.1      1.936      6.015
REMARK  Name = 
REMARK  5 active torsions:
REMARK  status: ('A' for Active; 'I' for Inactive)
REMARK    1  A    between atoms: C_2  and  C_3
REMARK    2  A    between atoms: C_2  and  C_10
REMARK    3  A    between atoms: C_6  and  O_7
REMARK    4  A    between atoms: C_19  and  C_20
REMARK    5  A    between atoms: C_23  and  O_24
REMARK                            x       y       z     vdW  Elec       q    Type
REMARK                         _______ _______ _______ _____ _____    ______ ____
ROOT
ATOM      1  C   UNL     1       4.861   4.496  18.920  0.00  0.00    +0.000 A 
ATOM      2  N   UNL     1       4.925   3.248  19.526  0.00  0.00    +0.000 N 
ATOM      3  C   UNL     1       3.793   3.044  20.240  0.00  0.00    +0.000 A 
ATOM      4  N   UNL     1       3.509   1.982  21.009  0.00  0.00    +0.000 N 
ATOM      5  C   UNL     1       2.317   2.032  21.687  0.00  0.00    +0.000 A 
ATOM      6  N   UNL     1       1.428   2.970  21.632  0.00  0.00    +0.000 NA
ATOM      7  C   UNL     1       1.644   4.071  20.803  0.00  0.00    +0.000 A 
ATOM      8  O   UNL     1       0.801   4.949  20.676  0.00  0.00    +0.000 OA
ATOM      9  C   UNL     1       2.940   4.108  20.106  0.00  0.00    +0.000 A 
ATOM     10  C   UNL     1       3.609   5.052  19.251  0.00  0.00    +0.000 A 
ATOM     11  H   UNL     1       5.722   2.629  19.493  0.00  0.00    +0.000 HD
ATOM     12  H   UNL     1       4.129   1.192  21.158  0.00  0.00    +0.000 HD
ENDROOT
BRANCH  10  13
ATOM     13  C   UNL     1       3.150   6.372  18.804  0.00  0.00    +0.000 A 
ATOM     14  C   UNL     1       2.400   7.194  19.660  0.00  0.00    +0.000 A 
ATOM     15  C   UNL     1       1.905   8.430  19.230  0.00  0.00    +0.000 A 
ATOM     16  C   UNL     1       2.203   8.876  17.950  0.00  0.00    +0.000 A 
ATOM     17  C   UNL     1       2.974   8.103  17.095  0.00  0.00    +0.000 A 
ATOM     18  C   UNL     1       3.423   6.845  17.510  0.00  0.00    +0.000 A 
BRANCH  16  19
ATOM     19  O   UNL     1       1.746  10.076  17.492  0.00  0.00    +0.000 OA
ATOM     20  H   UNL     1       2.441  10.739  17.637  0.00  0.00    +0.000 HD
ENDBRANCH  16  19
ENDBRANCH  10  13
BRANCH   1  22
ATOM     21  O   UNL     1       6.834   5.777  18.759  0.00  0.00    +0.000 OA
ATOM     22  C   UNL     1       5.981   5.090  18.201  0.00  0.00    +0.000 C 
BRANCH  22  23
ATOM     23  C   UNL     1       6.176   4.852  16.737  0.00  0.00    +0.000 A 
ATOM     24  C   UNL     1       5.232   4.043  16.077  0.00  0.00    +0.000 A 
ATOM     25  C   UNL     1       5.366   3.744  14.722  0.00  0.00    +0.000 A 
ATOM     26  C   UNL     1       6.452   4.253  14.020  0.00  0.00    +0.000 A 
ATOM     27  C   UNL     1       7.406   5.044  14.658  0.00  0.00    +0.000 A 
ATOM     28  C   UNL     1       7.277   5.337  16.019  0.00  0.00    +0.000 A 
BRANCH  26  29
ATOM     29  O   UNL     1       6.626   3.984  12.695  0.00  0.00    +0.000 OA
ATOM     30  H   UNL     1       7.109   4.721  12.283  0.00  0.00    +0.000 HD
ENDBRANCH  26  29
ENDBRANCH  22  23
ENDBRANCH   1  22
TORSDOF 5
ENDMDL
MODEL 7
REMARK VINA RESULT:      -8.1      2.893      6.259
REMARK  Name = 
REMARK  5 active torsions:
REMARK  status: ('A' for Active; 'I' for Inactive)
REMARK    1  A    between atoms: C_2  and  C_3
REMARK    2  A    between atoms: C_2  and  C_10
REMARK    3  A    between atoms: C_6  and  O_7
REMARK    4  A    between atoms: C_19  and  C_20
REMARK    5  A    between atoms: C_23  and  O_24
REMARK                            x       y       z     vdW  Elec       q    Type
REMARK                         _______ _______ _______ _____ _____    ______ ____
ROOT
ATOM      1  C   UNL     1       4.015   4.112  17.324  0.00  0.00    +0.000 A 
ATOM      2  N   UNL     1       5.112   3.516  16.714  0.00  0.00    +0.000 N 
ATOM      3  C   UNL     1       6.067   4.453  16.509  0.00  0.00    +0.000 A 
ATOM      4  N   UNL     1       7.246   4.276  15.894  0.00  0.00    +0.000 N 
ATOM      5  C   UNL     1       8.024   5.397  15.751  0.00  0.00    +0.000 A 
ATOM      6  N   UNL     1       7.760   6.588  16.179  0.00  0.00    +0.000 NA
ATOM      7  C   UNL     1       6.575   6.818  16.878  0.00  0.00    +0.000 A 
ATOM      8  O   UNL     1       6.316   7.917  17.352  0.00  0.00    +0.000 OA
ATOM      9  C   UNL     1       5.664   5.668  16.998  0.00  0.00    +0.000 A 
ATOM     10  C   UNL     1       4.345   5.465  17.535  0.00  0.00    +0.000 A 
ATOM     11  H   UNL     1       5.153   2.553  16.411  0.00  0.00    +0.000 HD
ATOM     12  H   UNL     1       7.564   3.401  15.490  0.00  0.00    +0.000 HD
ENDROOT
BRANCH  10  13
ATOM     13  C   UNL     1       3.447   6.445  18.159  0.00  0.00    +0.000 A 
ATOM     14  C   UNL     1       2.977   7.547  17.429  0.00  0.00    +0.000 A 
ATOM     15  C   UNL     1       2.167   8.520  18.026  0.00  0.00    +0.000 A 
ATOM     16  C   UNL     1       1.781   8.368  19.350  0.00  0.00    +0.000 A 
ATOM     17  C   UNL     1       2.199   7.269  20.085  0.00  0.00    +0.000 A 
ATOM     18  C   UNL     1       3.050   6.326  19.501  0.00  0.00    +0.000 A 
BRANCH  16  19
ATOM     19  O   UNL     1       0.989   9.289  19.969  0.00  0.00    +0.000 OA
ATOM     20  H   UNL     1       1.208  10.165  19.610  0.00  0.00    +0.000 HD
ENDBRANCH  16  19
ENDBRANCH  10  13
BRANCH   1  22
ATOM     21  O   UNL     1       2.077   2.963  16.626  0.00  0.00    +0.000 OA
ATOM     22  C   UNL     1       2.754   3.416  17.548  0.00  0.00    +0.000 C 
BRANCH  22  23
ATOM     23  C   UNL     1       2.237   3.175  18.930  0.00  0.00    +0.000 A 
ATOM     24  C   UNL     1       3.163   2.778  19.913  0.00  0.00    +0.000 A 
ATOM     25  C   UNL     1       2.751   2.498  21.215  0.00  0.00    +0.000 A 
ATOM     26  C   UNL     1       1.405   2.611  21.540  0.00  0.00    +0.000 A 
ATOM     27  C   UNL     1       0.469   2.989  20.579  0.00  0.00    +0.000 A 
ATOM     28  C   UNL     1       0.880   3.262  19.269  0.00  0.00    +0.000 A 
BRANCH  26  29
ATOM     29  O   UNL     1       0.957   2.344  22.800  0.00  0.00    +0.000 OA
ATOM     30  H   UNL     1       1.124   1.408  23.002  0.00  0.00    +0.000 HD
ENDBRANCH  26  29
ENDBRANCH  22  23
ENDBRANCH   1  22
TORSDOF 5
ENDMDL
MODEL 8
REMARK VINA RESULT:      -8.1      1.133      1.742
REMARK  Name = 
REMARK  5 active torsions:
REMARK  status: ('A' for Active; 'I' for Inactive)
REMARK    1  A    between atoms: C_2  and  C_3
REMARK    2  A    between atoms: C_2  and  C_10
REMARK    3  A    between atoms: C_6  and  O_7
REMARK    4  A    between atoms: C_19  and  C_20
REMARK    5  A    between atoms: C_23  and  O_24
REMARK                            x       y       z     vdW  Elec       q    Type
REMARK                         _______ _______ _______ _____ _____    ______ ____
ROOT
ATOM      1  C   UNL     1       2.660   6.057  18.627  0.00  0.00    +0.000 A 
ATOM      2  N   UNL     1       1.628   5.583  19.427  0.00  0.00    +0.000 N 
ATOM      3  C   UNL     1       1.663   4.229  19.437  0.00  0.00    +0.000 A 
ATOM      4  N   UNL     1       0.796   3.409  20.049  0.00  0.00    +0.000 N 
ATOM      5  C   UNL     1       1.005   2.065  19.863  0.00  0.00    +0.000 A 
ATOM      6  N   UNL     1       1.966   1.512  19.197  0.00  0.00    +0.000 NA
ATOM      7  C   UNL     1       2.930   2.315  18.589  0.00  0.00    +0.000 A 
ATOM      8  O   UNL     1       3.888   1.829  18.001  0.00  0.00    +0.000 OA
ATOM      9  C   UNL     1       2.717   3.768  18.693  0.00  0.00    +0.000 A 
ATOM     10  C   UNL     1       3.376   4.934  18.168  0.00  0.00    +0.000 A 
ATOM     11  H   UNL     1       0.927   6.159  19.869  0.00  0.00    +0.000 HD
ATOM     12  H   UNL     1      -0.013   3.712  20.580  0.00  0.00    +0.000 HD
ENDROOT
BRANCH  10  13
ATOM     13  C   UNL     1       4.549   5.008  17.288  0.00  0.00    +0.000 A 
ATOM     14  C   UNL     1       5.791   5.424  17.790  0.00  0.00    +0.000 A 
ATOM     15  C   UNL     1       6.905   5.555  16.953  0.00  0.00    +0.000 A 
ATOM     16  C   UNL     1       6.793   5.220  15.612  0.00  0.00    +0.000 A 
ATOM     17  C   UNL     1       5.588   4.769  15.095  0.00  0.00    +0.000 A 
ATOM     18  C   UNL     1       4.465   4.688  15.924  0.00  0.00    +0.000 A 
BRANCH  16  19
ATOM     19  O   UNL     1       7.854   5.328  14.762  0.00  0.00    +0.000 OA
ATOM     20  H   UNL     1       7.963   6.265  14.532  0.00  0.00    +0.000 HD
ENDBRANCH  16  19
ENDBRANCH  10  13
BRANCH   1  22
ATOM     21  O   UNL     1       3.717   7.867  17.547  0.00  0.00    +0.000 OA
ATOM     22  C   UNL     1       2.815   7.464  18.281  0.00  0.00    +0.000 C 
BRANCH  22  23
ATOM     23  C   UNL     1       1.848   8.494  18.769  0.00  0.00    +0.000 A 
ATOM     24  C   UNL     1       1.603   8.554  20.154  0.00  0.00    +0.000 A 
ATOM     25  C   UNL     1       0.686   9.462  20.681  0.00  0.00    +0.000 A 
ATOM     26  C   UNL     1       0.004  10.314  19.821  0.00  0.00    +0.000 A 
ATOM     27  C   UNL     1       0.220  10.262  18.445  0.00  0.00    +0.000 A 
ATOM     28  C   UNL     1       1.134   9.345  17.914  0.00  0.00    +0.000 A 
BRANCH  26  29
ATOM     29  O   UNL     1      -0.905  11.215  20.292  0.00  0.00    +0.000 OA
ATOM     30  H   UNL     1      -1.407  11.580  19.543  0.00  0.00    +0.000 HD
ENDBRANCH  26  29
ENDBRANCH  22  23
ENDBRANCH   1  22
TORSDOF 5
ENDMDL
MODEL 9
REMARK VINA RESULT:      -8.0      0.929      1.389
REMARK  Name = 
REMARK  5 active torsions:
REMARK  status: ('A' for Active; 'I' for Inactive)
REMARK    1  A    between atoms: C_2  and  C_3
REMARK    2  A    between atoms: C_2  and  C_10
REMARK    3  A    between atoms: C_6  and  O_7
REMARK    4  A    between atoms: C_19  and  C_20
REMARK    5  A    between atoms: C_23  and  O_24
REMARK                            x       y       z     vdW  Elec       q    Type
REMARK                         _______ _______ _______ _____ _____    ______ ____
ROOT
ATOM      1  C   UNL     1       2.464   6.242  19.614  0.00  0.00    +0.000 A 
ATOM      2  N   UNL     1       1.626   5.664  20.559  0.00  0.00    +0.000 N 
ATOM      3  C   UNL     1       2.054   4.407  20.821  0.00  0.00    +0.000 A 
ATOM      4  N   UNL     1       1.473   3.513  21.635  0.00  0.00    +0.000 N 
ATOM      5  C   UNL     1       2.064   2.276  21.691  0.00  0.00    +0.000 A 
ATOM      6  N   UNL     1       3.137   1.897  21.076  0.00  0.00    +0.000 NA
ATOM      7  C   UNL     1       3.817   2.803  20.262  0.00  0.00    +0.000 A 
ATOM      8  O   UNL     1       4.868   2.502  19.711  0.00  0.00    +0.000 OA
ATOM      9  C   UNL     1       3.189   4.125  20.105  0.00  0.00    +0.000 A 
ATOM     10  C   UNL     1       3.472   5.301  19.326  0.00  0.00    +0.000 A 
ATOM     11  H   UNL     1       0.791   6.093  20.932  0.00  0.00    +0.000 HD
ATOM     12  H   UNL     1       0.616   3.674  22.154  0.00  0.00    +0.000 HD
ENDROOT
BRANCH  10  13
ATOM     13  C   UNL     1       4.562   5.527  18.369  0.00  0.00    +0.000 A 
ATOM     14  C   UNL     1       4.354   5.336  16.994  0.00  0.00    +0.000 A 
ATOM     15  C   UNL     1       5.397   5.492  16.074  0.00  0.00    +0.000 A 
ATOM     16  C   UNL     1       6.648   5.891  16.522  0.00  0.00    +0.000 A 
ATOM     17  C   UNL     1       6.873   6.125  17.870  0.00  0.00    +0.000 A 
ATOM     18  C   UNL     1       5.842   5.918  18.792  0.00  0.00    +0.000 A 
BRANCH  16  19
ATOM     19  O   UNL     1       7.690   6.060  15.660  0.00  0.00    +0.000 OA
ATOM     20  H   UNL     1       7.775   5.252  15.127  0.00  0.00    +0.000 HD
ENDBRANCH  16  19
ENDBRANCH  10  13
BRANCH   1  22
ATOM     21  O   UNL     1       2.398   7.753  17.805  0.00  0.00    +0.000 OA
ATOM     22  C   UNL     1       2.197   7.536  18.999  0.00  0.00    +0.000 C 
BRANCH  22  23
ATOM     23  C   UNL     1       1.616   8.665  19.790  0.00  0.00    +0.000 A 
ATOM     24  C   UNL     1       1.540   8.511  21.187  0.00  0.00    +0.000 A 
ATOM     25  C   UNL     1       0.976   9.503  21.988  0.00  0.00    +0.000 A 
ATOM     26  C   UNL     1       0.481  10.656  21.391  0.00  0.00    +0.000 A 
ATOM     27  C   UNL     1       0.533  10.822  20.009  0.00  0.00    +0.000 A 
ATOM     28  C   UNL     1       1.090   9.823  19.203  0.00  0.00    +0.000 A 
BRANCH  26  29
ATOM     29  O   UNL     1      -0.082  11.650  22.135  0.00  0.00    +0.000 OA
ATOM     30  H   UNL     1       0.384  12.484  21.953  0.00  0.00    +0.000 HD
ENDBRANCH  26  29
ENDBRANCH  22  23
ENDBRANCH   1  22
TORSDOF 5
ENDMDL
