MODEL 1
REMARK VINA RESULT:      -6.8      0.000      0.000
REMARK  Name = 
REMARK  6 active torsions:
REMARK  status: ('A' for Active; 'I' for Inactive)
REMARK    1  A    between atoms: C_1  and  N_2
REMARK    2  A    between atoms: N_5  and  C_6
REMARK    3  A    between atoms: C_6  and  C_7
REMARK    4  A    between atoms: C_9  and  C_10
REMARK    5  A    between atoms: C_10  and  O_11
REMARK    6  A    between atoms: C_15  and  O_16
REMARK                            x       y       z     vdW  Elec       q    Type
REMARK                         _______ _______ _______ _____ _____    ______ ____
ROOT
ATOM      1  C   UNL     1       4.805   4.606  17.171  0.00  0.00    +0.000 A 
ATOM      2  O   UNL     1       4.764   4.540  15.782  0.00  0.00    +0.000 OA
ATOM      3  C   UNL     1       5.942   4.344  15.071  0.00  0.00    +0.000 A 
ATOM      4  C   UNL     1       7.143   4.249  15.659  0.00  0.00    +0.000 A 
ATOM      5  C   UNL     1       7.225   4.346  17.122  0.00  0.00    +0.000 A 
ATOM      6  O   UNL     1       8.288   4.271  17.727  0.00  0.00    +0.000 OA
ATOM      7  C   UNL     1       5.951   4.508  17.865  0.00  0.00    +0.000 A 
ENDROOT
BRANCH   7   8
ATOM      8  O   UNL     1       6.014   4.546  19.245  0.00  0.00    +0.000 OA
ATOM      9  H   UNL     1       6.673   5.244  19.448  0.00  0.00    +0.000 HD
ENDBRANCH   7   8
BRANCH   1  10
ATOM     10  C   UNL     1       3.453   4.741  17.831  0.00  0.00    +0.000 C 
BRANCH  10  15
ATOM     11  C   UNL     1       1.712   2.648  21.790  0.00  0.00    +0.000 C 
ATOM     12  N   UNL     1       1.708   2.595  20.331  0.00  0.00    +0.000 NA
ATOM     13  C   UNL     1       3.058   2.333  19.801  0.00  0.00    +0.000 C 
ATOM     14  C   UNL     1       3.108   2.372  18.249  0.00  0.00    +0.000 C 
ATOM     15  N   UNL     1       2.544   3.596  17.627  0.00  0.00    +0.000 NA
ATOM     16  C   UNL     1       1.203   3.818  18.215  0.00  0.00    +0.000 C 
ATOM     17  C   UNL     1       1.170   3.843  19.761  0.00  0.00    +0.000 C 
ENDBRANCH  10  15
ENDBRANCH   1  10
BRANCH   3  18
ATOM     18  C   UNL     1       5.752   4.211  13.590  0.00  0.00    +0.000 C 
BRANCH  18  19
ATOM     19  O   UNL     1       6.353   3.009  13.127  0.00  0.00    +0.000 OA
ATOM     20  H   UNL     1       7.228   2.955  13.552  0.00  0.00    +0.000 HD
ENDBRANCH  18  19
ENDBRANCH   3  18
TORSDOF 5
ENDMDL
MODEL 2
REMARK VINA RESULT:      -6.6      2.014      3.357
REMARK  Name = 
REMARK  6 active torsions:
REMARK  status: ('A' for Active; 'I' for Inactive)
REMARK    1  A    between atoms: C_1  and  N_2
REMARK    2  A    between atoms: N_5  and  C_6
REMARK    3  A    between atoms: C_6  and  C_7
REMARK    4  A    between atoms: C_9  and  C_10
REMARK    5  A    between atoms: C_10  and  O_11
REMARK    6  A    between atoms: C_15  and  O_16
REMARK                            x       y       z     vdW  Elec       q    Type
REMARK                         _______ _______ _______ _____ _____    ______ ____
ROOT
ATOM      1  C   UNL     1       6.050   4.159  14.864  0.00  0.00    +0.000 A 
ATOM      2  O   UNL     1       5.498   3.403  13.833  0.00  0.00    +0.000 OA
ATOM      3  C   UNL     1       6.046   3.480  12.559  0.00  0.00    +0.000 A 
ATOM      4  C   UNL     1       7.075   4.283  12.253  0.00  0.00    +0.000 A 
ATOM      5  C   UNL     1       7.661   5.117  13.311  0.00  0.00    +0.000 A 
ATOM      6  O   UNL     1       8.600   5.877  13.104  0.00  0.00    +0.000 OA
ATOM      7  C   UNL     1       7.091   4.985  14.674  0.00  0.00    +0.000 A 
ENDROOT
BRANCH   7   8
ATOM      8  O   UNL     1       7.672   5.726  15.686  0.00  0.00    +0.000 OA
ATOM      9  H   UNL     1       8.602   5.859  15.400  0.00  0.00    +0.000 HD
ENDBRANCH   7   8
BRANCH   1  10
ATOM     10  C   UNL     1       5.418   3.928  16.216  0.00  0.00    +0.000 C 
BRANCH  10  15
ATOM     11  C   UNL     1       2.494   3.794  20.026  0.00  0.00    +0.000 C 
ATOM     12  N   UNL     1       3.506   4.596  19.346  0.00  0.00    +0.000 NA
ATOM     13  C   UNL     1       3.063   4.988  17.997  0.00  0.00    +0.000 C 
ATOM     14  C   UNL     1       4.160   5.755  17.207  0.00  0.00    +0.000 C 
ATOM     15  N   UNL     1       5.480   5.080  17.137  0.00  0.00    +0.000 NA
ATOM     16  C   UNL     1       5.858   4.693  18.515  0.00  0.00    +0.000 C 
ATOM     17  C   UNL     1       4.788   3.873  19.273  0.00  0.00    +0.000 C 
ENDBRANCH  10  15
ENDBRANCH   1  10
BRANCH   3  18
ATOM     18  C   UNL     1       5.413   2.559  11.561  0.00  0.00    +0.000 C 
BRANCH  18  19
ATOM     19  O   UNL     1       6.100   1.315  11.539  0.00  0.00    +0.000 OA
ATOM     20  H   UNL     1       6.813   1.381  12.200  0.00  0.00    +0.000 HD
ENDBRANCH  18  19
ENDBRANCH   3  18
TORSDOF 5
ENDMDL
MODEL 3
REMARK VINA RESULT:      -6.4      3.022      6.277
REMARK  Name = 
REMARK  6 active torsions:
REMARK  status: ('A' for Active; 'I' for Inactive)
REMARK    1  A    between atoms: C_1  and  N_2
REMARK    2  A    between atoms: N_5  and  C_6
REMARK    3  A    between atoms: C_6  and  C_7
REMARK    4  A    between atoms: C_9  and  C_10
REMARK    5  A    between atoms: C_10  and  O_11
REMARK    6  A    between atoms: C_15  and  O_16
REMARK                            x       y       z     vdW  Elec       q    Type
REMARK                         _______ _______ _______ _____ _____    ______ ____
ROOT
ATOM      1  C   UNL     1       3.944   4.183  19.245  0.00  0.00    +0.000 A 
ATOM      2  O   UNL     1       3.283   5.234  19.875  0.00  0.00    +0.000 OA
ATOM      3  C   UNL     1       1.927   5.122  20.152  0.00  0.00    +0.000 A 
ATOM      4  C   UNL     1       1.197   4.051  19.808  0.00  0.00    +0.000 A 
ATOM      5  C   UNL     1       1.857   2.937  19.115  0.00  0.00    +0.000 A 
ATOM      6  O   UNL     1       1.254   1.929  18.768  0.00  0.00    +0.000 OA
ATOM      7  C   UNL     1       3.315   3.057  18.871  0.00  0.00    +0.000 A 
ENDROOT
BRANCH   7   8
ATOM      8  O   UNL     1       3.954   1.991  18.267  0.00  0.00    +0.000 OA
ATOM      9  H   UNL     1       3.291   1.266  18.267  0.00  0.00    +0.000 HD
ENDBRANCH   7   8
BRANCH   1  10
ATOM     10  C   UNL     1       5.430   4.393  19.071  0.00  0.00    +0.000 C 
BRANCH  10  15
ATOM     11  C   UNL     1       7.622   8.398  17.577  0.00  0.00    +0.000 C 
ATOM     12  N   UNL     1       7.185   7.070  17.161  0.00  0.00    +0.000 NA
ATOM     13  C   UNL     1       5.721   6.933  17.255  0.00  0.00    +0.000 C 
ATOM     14  C   UNL     1       5.232   5.498  16.917  0.00  0.00    +0.000 C 
ATOM     15  N   UNL     1       5.897   4.406  17.671  0.00  0.00    +0.000 NA
ATOM     16  C   UNL     1       7.360   4.612  17.557  0.00  0.00    +0.000 C 
ATOM     17  C   UNL     1       7.848   6.023  17.958  0.00  0.00    +0.000 C 
ENDBRANCH  10  15
ENDBRANCH   1  10
BRANCH   3  18
ATOM     18  C   UNL     1       1.354   6.286  20.902  0.00  0.00    +0.000 C 
BRANCH  18  19
ATOM     19  O   UNL     1       2.107   7.461  20.630  0.00  0.00    +0.000 OA
ATOM     20  H   UNL     1       1.971   7.664  19.686  0.00  0.00    +0.000 HD
ENDBRANCH  18  19
ENDBRANCH   3  18
TORSDOF 5
ENDMDL
MODEL 4
REMARK VINA RESULT:      -6.4      1.420      1.487
REMARK  Name = 
REMARK  6 active torsions:
REMARK  status: ('A' for Active; 'I' for Inactive)
REMARK    1  A    between atoms: C_1  and  N_2
REMARK    2  A    between atoms: N_5  and  C_6
REMARK    3  A    between atoms: C_6  and  C_7
REMARK    4  A    between atoms: C_9  and  C_10
REMARK    5  A    between atoms: C_10  and  O_11
REMARK    6  A    between atoms: C_15  and  O_16
REMARK                            x       y       z     vdW  Elec       q    Type
REMARK                         _______ _______ _______ _____ _____    ______ ____
ROOT
ATOM      1  C   UNL     1       5.416   4.211  17.616  0.00  0.00    +0.000 A 
ATOM      2  O   UNL     1       5.619   4.217  16.239  0.00  0.00    +0.000 OA
ATOM      3  C   UNL     1       6.637   4.993  15.700  0.00  0.00    +0.000 A 
ATOM      4  C   UNL     1       7.428   5.780  16.444  0.00  0.00    +0.000 A 
ATOM      5  C   UNL     1       7.220   5.821  17.898  0.00  0.00    +0.000 A 
ATOM      6  O   UNL     1       7.901   6.519  18.640  0.00  0.00    +0.000 OA
ATOM      7  C   UNL     1       6.159   4.949  18.457  0.00  0.00    +0.000 A 
ENDROOT
BRANCH   7   8
ATOM      8  O   UNL     1       5.992   4.941  19.829  0.00  0.00    +0.000 OA
ATOM      9  H   UNL     1       6.794   5.384  20.183  0.00  0.00    +0.000 HD
ENDBRANCH   7   8
BRANCH   1  10
ATOM     10  C   UNL     1       4.334   3.268  18.085  0.00  0.00    +0.000 C 
BRANCH  10  15
ATOM     11  C   UNL     1       1.304   2.733  21.775  0.00  0.00    +0.000 C 
ATOM     12  N   UNL     1       1.415   3.220  20.404  0.00  0.00    +0.000 NA
ATOM     13  C   UNL     1       1.763   2.130  19.475  0.00  0.00    +0.000 C 
ATOM     14  C   UNL     1       1.989   2.633  18.022  0.00  0.00    +0.000 C 
ATOM     15  N   UNL     1       2.954   3.752  17.882  0.00  0.00    +0.000 NA
ATOM     16  C   UNL     1       2.566   4.801  18.854  0.00  0.00    +0.000 C 
ATOM     17  C   UNL     1       2.406   4.307  20.310  0.00  0.00    +0.000 C 
ENDBRANCH  10  15
ENDBRANCH   1  10
BRANCH   3  18
ATOM     18  C   UNL     1       6.802   4.849  14.218  0.00  0.00    +0.000 C 
BRANCH  18  19
ATOM     19  O   UNL     1       7.952   5.562  13.782  0.00  0.00    +0.000 OA
ATOM     20  H   UNL     1       8.495   5.722  14.576  0.00  0.00    +0.000 HD
ENDBRANCH  18  19
ENDBRANCH   3  18
TORSDOF 5
ENDMDL
MODEL 5
REMARK VINA RESULT:      -6.4      1.513      3.182
REMARK  Name = 
REMARK  6 active torsions:
REMARK  status: ('A' for Active; 'I' for Inactive)
REMARK    1  A    between atoms: C_1  and  N_2
REMARK    2  A    between atoms: N_5  and  C_6
REMARK    3  A    between atoms: C_6  and  C_7
REMARK    4  A    between atoms: C_9  and  C_10
REMARK    5  A    between atoms: C_10  and  O_11
REMARK    6  A    between atoms: C_15  and  O_16
REMARK                            x       y       z     vdW  Elec       q    Type
REMARK                         _______ _______ _______ _____ _____    ______ ____
ROOT
ATOM      1  C   UNL     1       5.418   4.180  17.611  0.00  0.00    +0.000 A 
ATOM      2  O   UNL     1       6.282   4.690  18.575  0.00  0.00    +0.000 OA
ATOM      3  C   UNL     1       7.265   5.597  18.201  0.00  0.00    +0.000 A 
ATOM      4  C   UNL     1       7.455   5.989  16.933  0.00  0.00    +0.000 A 
ATOM      5  C   UNL     1       6.580   5.445  15.886  0.00  0.00    +0.000 A 
ATOM      6  O   UNL     1       6.696   5.755  14.706  0.00  0.00    +0.000 OA
ATOM      7  C   UNL     1       5.507   4.515  16.313  0.00  0.00    +0.000 A 
ENDROOT
BRANCH   7   8
ATOM      8  O   UNL     1       4.646   4.040  15.342  0.00  0.00    +0.000 OA
ATOM      9  H   UNL     1       5.218   3.541  14.719  0.00  0.00    +0.000 HD
ENDBRANCH   7   8
BRANCH   1  10
ATOM     10  C   UNL     1       4.344   3.266  18.153  0.00  0.00    +0.000 C 
BRANCH  10  15
ATOM     11  C   UNL     1       1.280   2.709  21.811  0.00  0.00    +0.000 C 
ATOM     12  N   UNL     1       1.400   3.191  20.439  0.00  0.00    +0.000 NA
ATOM     13  C   UNL     1       1.772   2.102  19.519  0.00  0.00    +0.000 C 
ATOM     14  C   UNL     1       2.009   2.601  18.067  0.00  0.00    +0.000 C 
ATOM     15  N   UNL     1       2.961   3.732  17.932  0.00  0.00    +0.000 NA
ATOM     16  C   UNL     1       2.549   4.780  18.895  0.00  0.00    +0.000 C 
ATOM     17  C   UNL     1       2.378   4.290  20.351  0.00  0.00    +0.000 C 
ENDBRANCH  10  15
ENDBRANCH   1  10
BRANCH   3  18
ATOM     18  C   UNL     1       8.075   6.131  19.344  0.00  0.00    +0.000 C 
BRANCH  18  19
ATOM     19  O   UNL     1       7.877   5.329  20.500  0.00  0.00    +0.000 OA
ATOM     20  H   UNL     1       7.077   5.670  20.940  0.00  0.00    +0.000 HD
ENDBRANCH  18  19
ENDBRANCH   3  18
TORSDOF 5
ENDMDL
MODEL 6
REMARK VINA RESULT:      -6.3      1.293      3.009
REMARK  Name = 
REMARK  6 active torsions:
REMARK  status: ('A' for Active; 'I' for Inactive)
REMARK    1  A    between atoms: C_1  and  N_2
REMARK    2  A    between atoms: N_5  and  C_6
REMARK    3  A    between atoms: C_6  and  C_7
REMARK    4  A    between atoms: C_9  and  C_10
REMARK    5  A    between atoms: C_10  and  O_11
REMARK    6  A    between atoms: C_15  and  O_16
REMARK                            x       y       z     vdW  Elec       q    Type
REMARK                         _______ _______ _______ _____ _____    ______ ____
ROOT
ATOM      1  C   UNL     1       4.859   4.803  17.516  0.00  0.00    +0.000 A 
ATOM      2  O   UNL     1       5.558   5.166  18.664  0.00  0.00    +0.000 OA
ATOM      3  C   UNL     1       6.933   5.349  18.598  0.00  0.00    +0.000 A 
ATOM      4  C   UNL     1       7.644   5.157  17.478  0.00  0.00    +0.000 A 
ATOM      5  C   UNL     1       6.941   4.743  16.256  0.00  0.00    +0.000 A 
ATOM      6  O   UNL     1       7.525   4.546  15.197  0.00  0.00    +0.000 OA
ATOM      7  C   UNL     1       5.467   4.599  16.336  0.00  0.00    +0.000 A 
ENDROOT
BRANCH   7   8
ATOM      8  O   UNL     1       4.792   4.263  15.178  0.00  0.00    +0.000 OA
ATOM      9  H   UNL     1       4.189   3.533  15.440  0.00  0.00    +0.000 HD
ENDBRANCH   7   8
BRANCH   1  10
ATOM     10  C   UNL     1       3.362   4.713  17.697  0.00  0.00    +0.000 C 
BRANCH  10  15
ATOM     11  C   UNL     1       1.662   2.695  21.712  0.00  0.00    +0.000 C 
ATOM     12  N   UNL     1       1.872   2.480  20.283  0.00  0.00    +0.000 NA
ATOM     13  C   UNL     1       3.305   2.522  19.940  0.00  0.00    +0.000 C 
ATOM     14  C   UNL     1       3.557   2.400  18.412  0.00  0.00    +0.000 C 
ATOM     15  N   UNL     1       2.799   3.355  17.565  0.00  0.00    +0.000 NA
ATOM     16  C   UNL     1       1.377   3.283  17.973  0.00  0.00    +0.000 C 
ATOM     17  C   UNL     1       1.127   3.471  19.487  0.00  0.00    +0.000 C 
ENDBRANCH  10  15
ENDBRANCH   1  10
BRANCH   3  18
ATOM     18  C   UNL     1       7.554   5.815  19.881  0.00  0.00    +0.000 C 
BRANCH  18  19
ATOM     19  O   UNL     1       8.717   5.050  20.168  0.00  0.00    +0.000 OA
ATOM     20  H   UNL     1       9.476   5.652  20.061  0.00  0.00    +0.000 HD
ENDBRANCH  18  19
ENDBRANCH   3  18
TORSDOF 5
ENDMDL
MODEL 7
REMARK VINA RESULT:      -6.3      2.012      2.947
REMARK  Name = 
REMARK  6 active torsions:
REMARK  status: ('A' for Active; 'I' for Inactive)
REMARK    1  A    between atoms: C_1  and  N_2
REMARK    2  A    between atoms: N_5  and  C_6
REMARK    3  A    between atoms: C_6  and  C_7
REMARK    4  A    between atoms: C_9  and  C_10
REMARK    5  A    between atoms: C_10  and  O_11
REMARK    6  A    between atoms: C_15  and  O_16
REMARK                            x       y       z     vdW  Elec       q    Type
REMARK                         _______ _______ _______ _____ _____    ______ ____
ROOT
ATOM      1  C   UNL     1       5.642   4.711  14.972  0.00  0.00    +0.000 A 
ATOM      2  O   UNL     1       5.104   3.927  13.956  0.00  0.00    +0.000 OA
ATOM      3  C   UNL     1       5.832   3.720  12.792  0.00  0.00    +0.000 A 
ATOM      4  C   UNL     1       7.033   4.274  12.572  0.00  0.00    +0.000 A 
ATOM      5  C   UNL     1       7.617   5.133  13.611  0.00  0.00    +0.000 A 
ATOM      6  O   UNL     1       8.707   5.675  13.479  0.00  0.00    +0.000 OA
ATOM      7  C   UNL     1       6.844   5.302  14.866  0.00  0.00    +0.000 A 
ENDROOT
BRANCH   7   8
ATOM      8  O   UNL     1       7.410   6.065  15.870  0.00  0.00    +0.000 OA
ATOM      9  H   UNL     1       7.071   6.974  15.718  0.00  0.00    +0.000 HD
ENDBRANCH   7   8
BRANCH   1  10
ATOM     10  C   UNL     1       4.791   4.795  16.217  0.00  0.00    +0.000 C 
BRANCH  10  15
ATOM     11  C   UNL     1       2.324   5.131  20.326  0.00  0.00    +0.000 C 
ATOM     12  N   UNL     1       3.394   4.404  19.651  0.00  0.00    +0.000 NA
ATOM     13  C   UNL     1       4.512   5.298  19.300  0.00  0.00    +0.000 C 
ATOM     14  C   UNL     1       5.623   4.576  18.489  0.00  0.00    +0.000 C 
ATOM     15  N   UNL     1       5.156   3.844  17.285  0.00  0.00    +0.000 NA
ATOM     16  C   UNL     1       4.022   2.984  17.697  0.00  0.00    +0.000 C 
ATOM     17  C   UNL     1       2.889   3.721  18.447  0.00  0.00    +0.000 C 
ENDBRANCH  10  15
ENDBRANCH   1  10
BRANCH   3  18
ATOM     18  C   UNL     1       5.176   2.793  11.813  0.00  0.00    +0.000 C 
BRANCH  18  19
ATOM     19  O   UNL     1       5.967   1.624  11.642  0.00  0.00    +0.000 OA
ATOM     20  H   UNL     1       6.305   1.650  10.728  0.00  0.00    +0.000 HD
ENDBRANCH  18  19
ENDBRANCH   3  18
TORSDOF 5
ENDMDL
MODEL 8
REMARK VINA RESULT:      -6.3      3.044      6.198
REMARK  Name = 
REMARK  6 active torsions:
REMARK  status: ('A' for Active; 'I' for Inactive)
REMARK    1  A    between atoms: C_1  and  N_2
REMARK    2  A    between atoms: N_5  and  C_6
REMARK    3  A    between atoms: C_6  and  C_7
REMARK    4  A    between atoms: C_9  and  C_10
REMARK    5  A    between atoms: C_10  and  O_11
REMARK    6  A    between atoms: C_15  and  O_16
REMARK                            x       y       z     vdW  Elec       q    Type
REMARK                         _______ _______ _______ _____ _____    ______ ____
ROOT
ATOM      1  C   UNL     1       3.869   3.953  19.185  0.00  0.00    +0.000 A 
ATOM      2  O   UNL     1       3.014   5.038  19.359  0.00  0.00    +0.000 OA
ATOM      3  C   UNL     1       2.188   5.086  20.475  0.00  0.00    +0.000 A 
ATOM      4  C   UNL     1       2.141   4.110  21.393  0.00  0.00    +0.000 A 
ATOM      5  C   UNL     1       3.009   2.936  21.223  0.00  0.00    +0.000 A 
ATOM      6  O   UNL     1       3.017   2.005  22.019  0.00  0.00    +0.000 OA
ATOM      7  C   UNL     1       3.917   2.926  20.050  0.00  0.00    +0.000 A 
ENDROOT
BRANCH   7   8
ATOM      8  O   UNL     1       4.774   1.851  19.912  0.00  0.00    +0.000 OA
ATOM      9  H   UNL     1       5.547   2.071  20.476  0.00  0.00    +0.000 HD
ENDBRANCH   7   8
BRANCH   1  10
ATOM     10  C   UNL     1       4.772   4.055  17.979  0.00  0.00    +0.000 C 
BRANCH  10  15
ATOM     11  C   UNL     1       7.084   4.898  13.852  0.00  0.00    +0.000 C 
ATOM     12  N   UNL     1       6.862   5.406  15.203  0.00  0.00    +0.000 NA
ATOM     13  C   UNL     1       7.338   4.451  16.219  0.00  0.00    +0.000 C 
ATOM     14  C   UNL     1       7.023   4.915  17.668  0.00  0.00    +0.000 C 
ATOM     15  N   UNL     1       5.605   5.272  17.926  0.00  0.00    +0.000 NA
ATOM     16  C   UNL     1       5.181   6.212  16.862  0.00  0.00    +0.000 C 
ATOM     17  C   UNL     1       5.437   5.716  15.421  0.00  0.00    +0.000 C 
ENDBRANCH  10  15
ENDBRANCH   1  10
BRANCH   3  18
ATOM     18  C   UNL     1       1.377   6.341  20.586  0.00  0.00    +0.000 C 
BRANCH  18  19
ATOM     19  O   UNL     1       2.234   7.475  20.626  0.00  0.00    +0.000 OA
ATOM     20  H   UNL     1       2.076   7.970  19.801  0.00  0.00    +0.000 HD
ENDBRANCH  18  19
ENDBRANCH   3  18
TORSDOF 5
ENDMDL
MODEL 9
REMARK VINA RESULT:      -6.3      1.269      1.338
REMARK  Name = 
REMARK  6 active torsions:
REMARK  status: ('A' for Active; 'I' for Inactive)
REMARK    1  A    between atoms: C_1  and  N_2
REMARK    2  A    between atoms: N_5  and  C_6
REMARK    3  A    between atoms: C_6  and  C_7
REMARK    4  A    between atoms: C_9  and  C_10
REMARK    5  A    between atoms: C_10  and  O_11
REMARK    6  A    between atoms: C_15  and  O_16
REMARK                            x       y       z     vdW  Elec       q    Type
REMARK                         _______ _______ _______ _____ _____    ______ ____
ROOT
ATOM      1  C   UNL     1       4.797   4.551  16.582  0.00  0.00    +0.000 A 
ATOM      2  O   UNL     1       4.919   3.993  15.313  0.00  0.00    +0.000 OA
ATOM      3  C   UNL     1       6.029   4.298  14.535  0.00  0.00    +0.000 A 
ATOM      4  C   UNL     1       6.991   5.143  14.932  0.00  0.00    +0.000 A 
ATOM      5  C   UNL     1       6.877   5.773  16.255  0.00  0.00    +0.000 A 
ATOM      6  O   UNL     1       7.715   6.557  16.683  0.00  0.00    +0.000 OA
ATOM      7  C   UNL     1       5.709   5.398  17.088  0.00  0.00    +0.000 A 
ENDROOT
BRANCH   7   8
ATOM      8  O   UNL     1       5.622   5.945  18.354  0.00  0.00    +0.000 OA
ATOM      9  H   UNL     1       4.812   6.500  18.335  0.00  0.00    +0.000 HD
ENDBRANCH   7   8
BRANCH   1  10
ATOM     10  C   UNL     1       3.590   4.082  17.359  0.00  0.00    +0.000 C 
BRANCH  10  15
ATOM     11  C   UNL     1       1.264   2.919  21.399  0.00  0.00    +0.000 C 
ATOM     12  N   UNL     1       2.068   2.380  20.306  0.00  0.00    +0.000 NA
ATOM     13  C   UNL     1       3.416   2.974  20.288  0.00  0.00    +0.000 C 
ATOM     14  C   UNL     1       4.262   2.499  19.075  0.00  0.00    +0.000 C 
ATOM     15  N   UNL     1       3.615   2.658  17.748  0.00  0.00    +0.000 NA
ATOM     16  C   UNL     1       2.261   2.065  17.838  0.00  0.00    +0.000 C 
ATOM     17  C   UNL     1       1.400   2.590  19.009  0.00  0.00    +0.000 C 
ENDBRANCH  10  15
ENDBRANCH   1  10
BRANCH   3  18
ATOM     18  C   UNL     1       6.080   3.571  13.225  0.00  0.00    +0.000 C 
BRANCH  18  19
ATOM     19  O   UNL     1       7.010   4.200  12.353  0.00  0.00    +0.000 OA
ATOM     20  H   UNL     1       7.076   3.633  11.563  0.00  0.00    +0.000 HD
ENDBRANCH  18  19
ENDBRANCH   3  18
TORSDOF 5
ENDMDL
