MODEL 1
REMARK VINA RESULT:      -9.1      0.000      0.000
REMARK  Name = 
REMARK  2 active torsions:
REMARK  status: ('A' for Active; 'I' for Inactive)
REMARK    1  A    between atoms: C_2  and  C_3
REMARK    2  A    between atoms: C_18  and  C_19
REMARK                            x       y       z     vdW  Elec       q    Type
REMARK                         _______ _______ _______ _____ _____    ______ ____
ROOT
ATOM      1  O   UNL     1       1.214  10.282  22.235  0.00  0.00    +0.000 OA
ATOM      2  C   UNL     1       0.962  10.571  21.065  0.00  0.00    +0.000 C 
ATOM      3  N   UNL     1       0.811   9.557  20.098  0.00  0.00    +0.000 N 
ATOM      4  C   UNL     1       0.615   9.708  18.657  0.00  0.00    +0.000 C 
ATOM      5  C   UNL     1       1.925   9.348  17.941  0.00  0.00    +0.000 C 
ATOM      6  C   UNL     1       2.458   8.021  18.429  0.00  0.00    +0.000 A 
ATOM      7  N   UNL     1       3.432   7.459  17.638  0.00  0.00    +0.000 NA
ATOM      8  C   UNL     1       3.936   6.330  18.018  0.00  0.00    +0.000 A 
ATOM      9  N   UNL     1       3.471   5.651  19.120  0.00  0.00    +0.000 N 
ATOM     10  C   UNL     1       2.479   6.141  19.921  0.00  0.00    +0.000 A 
ATOM     11  O   UNL     1       2.010   5.490  20.846  0.00  0.00    +0.000 OA
ATOM     12  C   UNL     1       1.991   7.486  19.571  0.00  0.00    +0.000 A 
ATOM     13  C   UNL     1       1.016   8.153  20.503  0.00  0.00    +0.000 C 
ATOM     14  H   UNL     1       3.783   4.718  19.345  0.00  0.00    +0.000 HD
ENDROOT
BRANCH   2  15
ATOM     15  C   UNL     1       0.826  12.039  20.716  0.00  0.00    +0.000 A 
ATOM     16  C   UNL     1       1.978  12.773  20.401  0.00  0.00    +0.000 A 
ATOM     17  C   UNL     1       1.911  14.093  19.973  0.00  0.00    +0.000 A 
ATOM     18  C   UNL     1       0.690  14.745  19.955  0.00  0.00    +0.000 A 
ATOM     19  C   UNL     1      -0.468  14.101  20.403  0.00  0.00    +0.000 A 
ATOM     20  C   UNL     1      -1.658  14.841  20.477  0.00  0.00    +0.000 A 
ATOM     21  C   UNL     1      -2.828  14.269  20.960  0.00  0.00    +0.000 A 
ATOM     22  C   UNL     1      -2.829  12.938  21.350  0.00  0.00    +0.000 A 
ATOM     23  C   UNL     1      -1.659  12.174  21.250  0.00  0.00    +0.000 A 
ATOM     24  C   UNL     1      -0.432  12.727  20.791  0.00  0.00    +0.000 A 
ENDBRANCH   2  15
BRANCH   8  25
ATOM     25  C   UNL     1       5.064   5.717  17.263  0.00  0.00    +0.000 A 
ATOM     26  C   UNL     1       5.057   5.785  15.860  0.00  0.00    +0.000 A 
ATOM     27  C   UNL     1       6.136   5.289  15.121  0.00  0.00    +0.000 A 
ATOM     28  C   UNL     1       7.228   4.731  15.783  0.00  0.00    +0.000 A 
ATOM     29  C   UNL     1       7.232   4.672  17.171  0.00  0.00    +0.000 A 
ATOM     30  F   UNL     1       8.291   4.152  17.804  0.00  0.00    +0.000 F 
ATOM     31  C   UNL     1       6.165   5.160  17.921  0.00  0.00    +0.000 A 
ENDBRANCH   8  25
TORSDOF 2
ENDMDL
MODEL 2
REMARK VINA RESULT:      -8.9      2.364      4.231
REMARK  Name = 
REMARK  2 active torsions:
REMARK  status: ('A' for Active; 'I' for Inactive)
REMARK    1  A    between atoms: C_2  and  C_3
REMARK    2  A    between atoms: C_18  and  C_19
REMARK                            x       y       z     vdW  Elec       q    Type
REMARK                         _______ _______ _______ _____ _____    ______ ____
ROOT
ATOM      1  O   UNL     1       1.020  13.925  22.158  0.00  0.00    +0.000 OA
ATOM      2  C   UNL     1       0.579  13.777  21.018  0.00  0.00    +0.000 C 
ATOM      3  N   UNL     1      -0.011  12.555  20.637  0.00  0.00    +0.000 N 
ATOM      4  C   UNL     1      -0.491  12.160  19.314  0.00  0.00    +0.000 C 
ATOM      5  C   UNL     1       0.508  11.165  18.704  0.00  0.00    +0.000 C 
ATOM      6  C   UNL     1       0.828  10.057  19.679  0.00  0.00    +0.000 A 
ATOM      7  N   UNL     1       1.445   8.958  19.131  0.00  0.00    +0.000 NA
ATOM      8  C   UNL     1       1.758   7.986  19.924  0.00  0.00    +0.000 A 
ATOM      9  N   UNL     1       1.418   7.987  21.256  0.00  0.00    +0.000 N 
ATOM     10  C   UNL     1       0.768   9.032  21.849  0.00  0.00    +0.000 A 
ATOM     11  O   UNL     1       0.389   8.986  23.012  0.00  0.00    +0.000 OA
ATOM     12  C   UNL     1       0.526  10.198  20.982  0.00  0.00    +0.000 A 
ATOM     13  C   UNL     1      -0.037  11.444  21.609  0.00  0.00    +0.000 C 
ATOM     14  H   UNL     1       1.557   7.179  21.845  0.00  0.00    +0.000 HD
ENDROOT
BRANCH   2  15
ATOM     15  C   UNL     1       0.698  14.943  20.060  0.00  0.00    +0.000 A 
ATOM     16  C   UNL     1      -0.391  15.814  19.909  0.00  0.00    +0.000 A 
ATOM     17  C   UNL     1      -0.311  16.959  19.127  0.00  0.00    +0.000 A 
ATOM     18  C   UNL     1       0.833  17.201  18.386  0.00  0.00    +0.000 A 
ATOM     19  C   UNL     1       1.890  16.285  18.385  0.00  0.00    +0.000 A 
ATOM     20  C   UNL     1       2.975  16.518  17.527  0.00  0.00    +0.000 A 
ATOM     21  C   UNL     1       4.031  15.618  17.448  0.00  0.00    +0.000 A 
ATOM     22  C   UNL     1       4.026  14.486  18.248  0.00  0.00    +0.000 A 
ATOM     23  C   UNL     1       2.967  14.255  19.136  0.00  0.00    +0.000 A 
ATOM     24  C   UNL     1       1.852  15.133  19.227  0.00  0.00    +0.000 A 
ENDBRANCH   2  15
BRANCH   8  25
ATOM     25  C   UNL     1       2.518   6.812  19.413  0.00  0.00    +0.000 A 
ATOM     26  C   UNL     1       2.507   5.620  20.157  0.00  0.00    +0.000 A 
ATOM     27  C   UNL     1       3.145   4.475  19.670  0.00  0.00    +0.000 A 
ATOM     28  C   UNL     1       3.789   4.515  18.436  0.00  0.00    +0.000 A 
ATOM     29  C   UNL     1       3.791   5.695  17.701  0.00  0.00    +0.000 A 
ATOM     30  F   UNL     1       4.395   5.725  16.506  0.00  0.00    +0.000 F 
ATOM     31  C   UNL     1       3.162   6.844  18.173  0.00  0.00    +0.000 A 
ENDBRANCH   8  25
TORSDOF 2
ENDMDL
MODEL 3
REMARK VINA RESULT:      -8.8      2.305      4.103
REMARK  Name = 
REMARK  2 active torsions:
REMARK  status: ('A' for Active; 'I' for Inactive)
REMARK    1  A    between atoms: C_2  and  C_3
REMARK    2  A    between atoms: C_18  and  C_19
REMARK                            x       y       z     vdW  Elec       q    Type
REMARK                         _______ _______ _______ _____ _____    ______ ____
ROOT
ATOM      1  O   UNL     1       1.031  13.918  22.095  0.00  0.00    +0.000 OA
ATOM      2  C   UNL     1       0.550  13.770  20.971  0.00  0.00    +0.000 C 
ATOM      3  N   UNL     1      -0.021  12.536  20.598  0.00  0.00    +0.000 N 
ATOM      4  C   UNL     1      -0.542  12.144  19.291  0.00  0.00    +0.000 C 
ATOM      5  C   UNL     1       0.458  11.184  18.629  0.00  0.00    +0.000 C 
ATOM      6  C   UNL     1       0.846  10.074  19.577  0.00  0.00    +0.000 A 
ATOM      7  N   UNL     1       1.472   8.999  18.991  0.00  0.00    +0.000 NA
ATOM      8  C   UNL     1       1.843   8.027  19.760  0.00  0.00    +0.000 A 
ATOM      9  N   UNL     1       1.555   8.003  21.104  0.00  0.00    +0.000 N 
ATOM     10  C   UNL     1       0.902   9.023  21.735  0.00  0.00    +0.000 A 
ATOM     11  O   UNL     1       0.571   8.954  22.912  0.00  0.00    +0.000 OA
ATOM     12  C   UNL     1       0.594  10.192  20.893  0.00  0.00    +0.000 A 
ATOM     13  C   UNL     1       0.022  11.415  21.557  0.00  0.00    +0.000 C 
ATOM     14  H   UNL     1       1.740   7.193  21.676  0.00  0.00    +0.000 HD
ENDROOT
BRANCH   2  15
ATOM     15  C   UNL     1       0.598  14.950  20.023  0.00  0.00    +0.000 A 
ATOM     16  C   UNL     1      -0.529  15.777  19.907  0.00  0.00    +0.000 A 
ATOM     17  C   UNL     1      -0.514  16.932  19.136  0.00  0.00    +0.000 A 
ATOM     18  C   UNL     1       0.602  17.229  18.372  0.00  0.00    +0.000 A 
ATOM     19  C   UNL     1       1.695  16.358  18.337  0.00  0.00    +0.000 A 
ATOM     20  C   UNL     1       2.750  16.644  17.458  0.00  0.00    +0.000 A 
ATOM     21  C   UNL     1       3.840  15.789  17.345  0.00  0.00    +0.000 A 
ATOM     22  C   UNL     1       3.900  14.650  18.132  0.00  0.00    +0.000 A 
ATOM     23  C   UNL     1       2.872  14.366  19.042  0.00  0.00    +0.000 A 
ATOM     24  C   UNL     1       1.724  15.196  19.167  0.00  0.00    +0.000 A 
ENDBRANCH   2  15
BRANCH   8  25
ATOM     25  C   UNL     1       2.613   6.881  19.204  0.00  0.00    +0.000 A 
ATOM     26  C   UNL     1       3.283   7.042  17.981  0.00  0.00    +0.000 A 
ATOM     27  C   UNL     1       4.079   6.014  17.467  0.00  0.00    +0.000 A 
ATOM     28  C   UNL     1       4.215   4.824  18.178  0.00  0.00    +0.000 A 
ATOM     29  C   UNL     1       3.555   4.672  19.392  0.00  0.00    +0.000 A 
ATOM     30  F   UNL     1       3.702   3.534  20.082  0.00  0.00    +0.000 F 
ATOM     31  C   UNL     1       2.757   5.686  19.916  0.00  0.00    +0.000 A 
ENDBRANCH   8  25
TORSDOF 2
ENDMDL
MODEL 4
REMARK VINA RESULT:      -8.8      1.187      1.493
REMARK  Name = 
REMARK  2 active torsions:
REMARK  status: ('A' for Active; 'I' for Inactive)
REMARK    1  A    between atoms: C_2  and  C_3
REMARK    2  A    between atoms: C_18  and  C_19
REMARK                            x       y       z     vdW  Elec       q    Type
REMARK                         _______ _______ _______ _____ _____    ______ ____
ROOT
ATOM      1  O   UNL     1       1.211   9.715  22.722  0.00  0.00    +0.000 OA
ATOM      2  C   UNL     1       0.888  10.042  21.579  0.00  0.00    +0.000 C 
ATOM      3  N   UNL     1       0.756   9.067  20.570  0.00  0.00    +0.000 N 
ATOM      4  C   UNL     1       0.485   9.272  19.149  0.00  0.00    +0.000 C 
ATOM      5  C   UNL     1       1.781   9.031  18.360  0.00  0.00    +0.000 C 
ATOM      6  C   UNL     1       2.417   7.720  18.758  0.00  0.00    +0.000 A 
ATOM      7  N   UNL     1       3.387   7.259  17.899  0.00  0.00    +0.000 NA
ATOM      8  C   UNL     1       3.978   6.149  18.201  0.00  0.00    +0.000 A 
ATOM      9  N   UNL     1       3.608   5.391  19.287  0.00  0.00    +0.000 N 
ATOM     10  C   UNL     1       2.625   5.777  20.153  0.00  0.00    +0.000 A 
ATOM     11  O   UNL     1       2.240   5.055  21.063  0.00  0.00    +0.000 OA
ATOM     12  C   UNL     1       2.038   7.103  19.891  0.00  0.00    +0.000 A 
ATOM     13  C   UNL     1       1.068   7.661  20.896  0.00  0.00    +0.000 C 
ATOM     14  H   UNL     1       3.988   4.471  19.452  0.00  0.00    +0.000 HD
ENDROOT
BRANCH   2  15
ATOM     15  C   UNL     1       0.645  11.512  21.310  0.00  0.00    +0.000 A 
ATOM     16  C   UNL     1       1.604  12.241  20.592  0.00  0.00    +0.000 A 
ATOM     17  C   UNL     1       1.394  13.564  20.223  0.00  0.00    +0.000 A 
ATOM     18  C   UNL     1       0.259  14.223  20.661  0.00  0.00    +0.000 A 
ATOM     19  C   UNL     1      -0.656  13.585  21.504  0.00  0.00    +0.000 A 
ATOM     20  C   UNL     1      -1.728  14.332  22.015  0.00  0.00    +0.000 A 
ATOM     21  C   UNL     1      -2.641  13.766  22.896  0.00  0.00    +0.000 A 
ATOM     22  C   UNL     1      -2.509  12.432  23.254  0.00  0.00    +0.000 A 
ATOM     23  C   UNL     1      -1.465  11.661  22.726  0.00  0.00    +0.000 A 
ATOM     24  C   UNL     1      -0.490  12.209  21.847  0.00  0.00    +0.000 A 
ENDBRANCH   2  15
BRANCH   8  25
ATOM     25  C   UNL     1       5.106   5.646  17.368  0.00  0.00    +0.000 A 
ATOM     26  C   UNL     1       6.302   5.271  18.001  0.00  0.00    +0.000 A 
ATOM     27  C   UNL     1       7.354   4.722  17.261  0.00  0.00    +0.000 A 
ATOM     28  C   UNL     1       7.211   4.540  15.888  0.00  0.00    +0.000 A 
ATOM     29  C   UNL     1       6.022   4.907  15.267  0.00  0.00    +0.000 A 
ATOM     30  F   UNL     1       5.881   4.713  13.950  0.00  0.00    +0.000 F 
ATOM     31  C   UNL     1       4.966   5.456  15.990  0.00  0.00    +0.000 A 
ENDBRANCH   8  25
TORSDOF 2
ENDMDL
MODEL 5
REMARK VINA RESULT:      -8.8      2.035      3.528
REMARK  Name = 
REMARK  2 active torsions:
REMARK  status: ('A' for Active; 'I' for Inactive)
REMARK    1  A    between atoms: C_2  and  C_3
REMARK    2  A    between atoms: C_18  and  C_19
REMARK                            x       y       z     vdW  Elec       q    Type
REMARK                         _______ _______ _______ _____ _____    ______ ____
ROOT
ATOM      1  O   UNL     1       1.244  12.991  21.746  0.00  0.00    +0.000 OA
ATOM      2  C   UNL     1       0.764  12.963  20.612  0.00  0.00    +0.000 C 
ATOM      3  N   UNL     1       0.271  11.755  20.078  0.00  0.00    +0.000 N 
ATOM      4  C   UNL     1      -0.233  11.506  18.729  0.00  0.00    +0.000 C 
ATOM      5  C   UNL     1       0.822  10.710  17.947  0.00  0.00    +0.000 C 
ATOM      6  C   UNL     1       1.289   9.512  18.740  0.00  0.00    +0.000 A 
ATOM      7  N   UNL     1       1.977   8.567  18.017  0.00  0.00    +0.000 NA
ATOM      8  C   UNL     1       2.416   7.527  18.650  0.00  0.00    +0.000 A 
ATOM      9  N   UNL     1       2.141   7.307  19.979  0.00  0.00    +0.000 N 
ATOM     10  C   UNL     1       1.428   8.190  20.739  0.00  0.00    +0.000 A 
ATOM     11  O   UNL     1       1.111   7.943  21.895  0.00  0.00    +0.000 OA
ATOM     12  C   UNL     1       1.038   9.437  20.059  0.00  0.00    +0.000 A 
ATOM     13  C   UNL     1       0.394  10.521  20.879  0.00  0.00    +0.000 C 
ATOM     14  H   UNL     1       2.382   6.441  20.439  0.00  0.00    +0.000 HD
ENDROOT
BRANCH   2  15
ATOM     15  C   UNL     1       0.729  14.259  19.829  0.00  0.00    +0.000 A 
ATOM     16  C   UNL     1      -0.473  14.977  19.754  0.00  0.00    +0.000 A 
ATOM     17  C   UNL     1      -0.547  16.221  19.141  0.00  0.00    +0.000 A 
ATOM     18  C   UNL     1       0.564  16.728  18.490  0.00  0.00    +0.000 A 
ATOM     19  C   UNL     1       1.745  15.983  18.408  0.00  0.00    +0.000 A 
ATOM     20  C   UNL     1       2.802  16.489  17.637  0.00  0.00    +0.000 A 
ATOM     21  C   UNL     1       3.981  15.771  17.479  0.00  0.00    +0.000 A 
ATOM     22  C   UNL     1       4.128  14.548  18.115  0.00  0.00    +0.000 A 
ATOM     23  C   UNL     1       3.095  14.043  18.917  0.00  0.00    +0.000 A 
ATOM     24  C   UNL     1       1.860  14.729  19.081  0.00  0.00    +0.000 A 
ENDBRANCH   2  15
BRANCH   8  25
ATOM     25  C   UNL     1       3.255   6.517  17.948  0.00  0.00    +0.000 A 
ATOM     26  C   UNL     1       4.382   6.951  17.231  0.00  0.00    +0.000 A 
ATOM     27  C   UNL     1       5.236   6.025  16.624  0.00  0.00    +0.000 A 
ATOM     28  C   UNL     1       4.971   4.662  16.739  0.00  0.00    +0.000 A 
ATOM     29  C   UNL     1       3.858   4.238  17.455  0.00  0.00    +0.000 A 
ATOM     30  F   UNL     1       3.616   2.927  17.579  0.00  0.00    +0.000 F 
ATOM     31  C   UNL     1       2.997   5.148  18.064  0.00  0.00    +0.000 A 
ENDBRANCH   8  25
TORSDOF 2
ENDMDL
MODEL 6
REMARK VINA RESULT:      -8.7      2.514      3.950
REMARK  Name = 
REMARK  2 active torsions:
REMARK  status: ('A' for Active; 'I' for Inactive)
REMARK    1  A    between atoms: C_2  and  C_3
REMARK    2  A    between atoms: C_18  and  C_19
REMARK                            x       y       z     vdW  Elec       q    Type
REMARK                         _______ _______ _______ _____ _____    ______ ____
ROOT
ATOM      1  O   UNL     1       1.896  13.815  21.653  0.00  0.00    +0.000 OA
ATOM      2  C   UNL     1       1.617  13.615  20.470  0.00  0.00    +0.000 C 
ATOM      3  N   UNL     1       0.865  12.482  20.097  0.00  0.00    +0.000 N 
ATOM      4  C   UNL     1       0.528  12.028  18.750  0.00  0.00    +0.000 C 
ATOM      5  C   UNL     1       1.395  10.806  18.410  0.00  0.00    +0.000 C 
ATOM      6  C   UNL     1       1.336   9.781  19.518  0.00  0.00    +0.000 A 
ATOM      7  N   UNL     1       1.804   8.533  19.181  0.00  0.00    +0.000 NA
ATOM      8  C   UNL     1       1.793   7.619  20.097  0.00  0.00    +0.000 A 
ATOM      9  N   UNL     1       1.257   7.837  21.345  0.00  0.00    +0.000 N 
ATOM     10  C   UNL     1       0.741   9.044  21.724  0.00  0.00    +0.000 A 
ATOM     11  O   UNL     1       0.185   9.202  22.803  0.00  0.00    +0.000 OA
ATOM     12  C   UNL     1       0.870  10.125  20.732  0.00  0.00    +0.000 A 
ATOM     13  C   UNL     1       0.472  11.516  21.142  0.00  0.00    +0.000 C 
ATOM     14  H   UNL     1       1.142   7.092  22.015  0.00  0.00    +0.000 HD
ENDROOT
BRANCH   2  15
ATOM     15  C   UNL     1       2.109  14.622  19.451  0.00  0.00    +0.000 A 
ATOM     16  C   UNL     1       3.435  14.544  19.002  0.00  0.00    +0.000 A 
ATOM     17  C   UNL     1       3.917  15.369  17.995  0.00  0.00    +0.000 A 
ATOM     18  C   UNL     1       3.109  16.371  17.486  0.00  0.00    +0.000 A 
ATOM     19  C   UNL     1       1.828  16.586  18.006  0.00  0.00    +0.000 A 
ATOM     20  C   UNL     1       1.095  17.687  17.539  0.00  0.00    +0.000 A 
ATOM     21  C   UNL     1      -0.163  17.979  18.053  0.00  0.00    +0.000 A 
ATOM     22  C   UNL     1      -0.714  17.155  19.022  0.00  0.00    +0.000 A 
ATOM     23  C   UNL     1      -0.010  16.031  19.475  0.00  0.00    +0.000 A 
ATOM     24  C   UNL     1       1.292  15.712  18.999  0.00  0.00    +0.000 A 
ENDBRANCH   2  15
BRANCH   8  25
ATOM     25  C   UNL     1       2.378   6.277  19.828  0.00  0.00    +0.000 A 
ATOM     26  C   UNL     1       2.024   5.203  20.662  0.00  0.00    +0.000 A 
ATOM     27  C   UNL     1       2.493   3.913  20.394  0.00  0.00    +0.000 A 
ATOM     28  C   UNL     1       3.310   3.691  19.288  0.00  0.00    +0.000 A 
ATOM     29  C   UNL     1       3.652   4.756  18.463  0.00  0.00    +0.000 A 
ATOM     30  F   UNL     1       4.422   4.535  17.390  0.00  0.00    +0.000 F 
ATOM     31  C   UNL     1       3.194   6.046  18.717  0.00  0.00    +0.000 A 
ENDBRANCH   8  25
TORSDOF 2
ENDMDL
MODEL 7
REMARK VINA RESULT:      -8.7      1.972      3.555
REMARK  Name = 
REMARK  2 active torsions:
REMARK  status: ('A' for Active; 'I' for Inactive)
REMARK    1  A    between atoms: C_2  and  C_3
REMARK    2  A    between atoms: C_18  and  C_19
REMARK                            x       y       z     vdW  Elec       q    Type
REMARK                         _______ _______ _______ _____ _____    ______ ____
ROOT
ATOM      1  O   UNL     1       1.125  13.014  21.817  0.00  0.00    +0.000 OA
ATOM      2  C   UNL     1       0.708  12.988  20.658  0.00  0.00    +0.000 C 
ATOM      3  N   UNL     1       0.235  11.783  20.099  0.00  0.00    +0.000 N 
ATOM      4  C   UNL     1      -0.196  11.536  18.725  0.00  0.00    +0.000 C 
ATOM      5  C   UNL     1       0.893  10.730  18.003  0.00  0.00    +0.000 C 
ATOM      6  C   UNL     1       1.305   9.529  18.822  0.00  0.00    +0.000 A 
ATOM      7  N   UNL     1       2.025   8.577  18.139  0.00  0.00    +0.000 NA
ATOM      8  C   UNL     1       2.419   7.535  18.797  0.00  0.00    +0.000 A 
ATOM      9  N   UNL     1       2.070   7.319  20.109  0.00  0.00    +0.000 N 
ATOM     10  C   UNL     1       1.323   8.210  20.828  0.00  0.00    +0.000 A 
ATOM     11  O   UNL     1       0.941   7.968  21.965  0.00  0.00    +0.000 OA
ATOM     12  C   UNL     1       0.983   9.459  20.126  0.00  0.00    +0.000 A 
ATOM     13  C   UNL     1       0.303  10.550  20.908  0.00  0.00    +0.000 C 
ATOM     14  H   UNL     1       2.278   6.453  20.583  0.00  0.00    +0.000 HD
ENDROOT
BRANCH   2  15
ATOM     15  C   UNL     1       0.727  14.283  19.873  0.00  0.00    +0.000 A 
ATOM     16  C   UNL     1      -0.444  15.050  19.797  0.00  0.00    +0.000 A 
ATOM     17  C   UNL     1      -0.466  16.295  19.182  0.00  0.00    +0.000 A 
ATOM     18  C   UNL     1       0.666  16.754  18.529  0.00  0.00    +0.000 A 
ATOM     19  C   UNL     1       1.814  15.961  18.448  0.00  0.00    +0.000 A 
ATOM     20  C   UNL     1       2.891  16.420  17.676  0.00  0.00    +0.000 A 
ATOM     21  C   UNL     1       4.039  15.654  17.519  0.00  0.00    +0.000 A 
ATOM     22  C   UNL     1       4.134  14.426  18.157  0.00  0.00    +0.000 A 
ATOM     23  C   UNL     1       3.082  13.967  18.961  0.00  0.00    +0.000 A 
ATOM     24  C   UNL     1       1.877  14.704  19.123  0.00  0.00    +0.000 A 
ENDBRANCH   2  15
BRANCH   8  25
ATOM     25  C   UNL     1       3.287   6.517  18.144  0.00  0.00    +0.000 A 
ATOM     26  C   UNL     1       3.113   5.163  18.475  0.00  0.00    +0.000 A 
ATOM     27  C   UNL     1       3.856   4.173  17.826  0.00  0.00    +0.000 A 
ATOM     28  C   UNL     1       4.769   4.531  16.838  0.00  0.00    +0.000 A 
ATOM     29  C   UNL     1       4.933   5.871  16.508  0.00  0.00    +0.000 A 
ATOM     30  F   UNL     1       5.798   6.211  15.544  0.00  0.00    +0.000 F 
ATOM     31  C   UNL     1       4.202   6.870  17.147  0.00  0.00    +0.000 A 
ENDBRANCH   8  25
TORSDOF 2
ENDMDL
MODEL 8
REMARK VINA RESULT:      -8.7      2.580      3.808
REMARK  Name = 
REMARK  2 active torsions:
REMARK  status: ('A' for Active; 'I' for Inactive)
REMARK    1  A    between atoms: C_2  and  C_3
REMARK    2  A    between atoms: C_18  and  C_19
REMARK                            x       y       z     vdW  Elec       q    Type
REMARK                         _______ _______ _______ _____ _____    ______ ____
ROOT
ATOM      1  O   UNL     1       2.209  13.643  21.590  0.00  0.00    +0.000 OA
ATOM      2  C   UNL     1       1.839  13.486  20.426  0.00  0.00    +0.000 C 
ATOM      3  N   UNL     1       1.048  12.374  20.073  0.00  0.00    +0.000 N 
ATOM      4  C   UNL     1       0.605  11.970  18.741  0.00  0.00    +0.000 C 
ATOM      5  C   UNL     1       1.429  10.752  18.296  0.00  0.00    +0.000 C 
ATOM      6  C   UNL     1       1.441   9.690  19.370  0.00  0.00    +0.000 A 
ATOM      7  N   UNL     1       1.867   8.450  18.957  0.00  0.00    +0.000 NA
ATOM      8  C   UNL     1       1.914   7.505  19.840  0.00  0.00    +0.000 A 
ATOM      9  N   UNL     1       1.476   7.685  21.131  0.00  0.00    +0.000 N 
ATOM     10  C   UNL     1       1.005   8.883  21.589  0.00  0.00    +0.000 A 
ATOM     11  O   UNL     1       0.533   9.010  22.711  0.00  0.00    +0.000 OA
ATOM     12  C   UNL     1       1.072   9.997  20.626  0.00  0.00    +0.000 A 
ATOM     13  C   UNL     1       0.722  11.377  21.111  0.00  0.00    +0.000 C 
ATOM     14  H   UNL     1       1.403   6.919  21.783  0.00  0.00    +0.000 HD
ENDROOT
BRANCH   2  15
ATOM     15  C   UNL     1       2.265  14.522  19.406  0.00  0.00    +0.000 A 
ATOM     16  C   UNL     1       3.569  14.474  18.891  0.00  0.00    +0.000 A 
ATOM     17  C   UNL     1       3.988  15.329  17.880  0.00  0.00    +0.000 A 
ATOM     18  C   UNL     1       3.141  16.330  17.435  0.00  0.00    +0.000 A 
ATOM     19  C   UNL     1       1.885  16.514  18.022  0.00  0.00    +0.000 A 
ATOM     20  C   UNL     1       1.113  17.613  17.618  0.00  0.00    +0.000 A 
ATOM     21  C   UNL     1      -0.121  17.875  18.200  0.00  0.00    +0.000 A 
ATOM     22  C   UNL     1      -0.612  17.021  19.176  0.00  0.00    +0.000 A 
ATOM     23  C   UNL     1       0.130  15.898  19.567  0.00  0.00    +0.000 A 
ATOM     24  C   UNL     1       1.411  15.610  19.021  0.00  0.00    +0.000 A 
ENDBRANCH   2  15
BRANCH   8  25
ATOM     25  C   UNL     1       2.461   6.167  19.484  0.00  0.00    +0.000 A 
ATOM     26  C   UNL     1       3.108   6.006  18.248  0.00  0.00    +0.000 A 
ATOM     27  C   UNL     1       3.701   4.785  17.912  0.00  0.00    +0.000 A 
ATOM     28  C   UNL     1       3.656   3.724  18.813  0.00  0.00    +0.000 A 
ATOM     29  C   UNL     1       3.020   3.891  20.038  0.00  0.00    +0.000 A 
ATOM     30  F   UNL     1       2.996   2.876  20.910  0.00  0.00    +0.000 F 
ATOM     31  C   UNL     1       2.424   5.100  20.386  0.00  0.00    +0.000 A 
ENDBRANCH   8  25
TORSDOF 2
ENDMDL
MODEL 9
REMARK VINA RESULT:      -8.7      2.570      3.513
REMARK  Name = 
REMARK  2 active torsions:
REMARK  status: ('A' for Active; 'I' for Inactive)
REMARK    1  A    between atoms: C_2  and  C_3
REMARK    2  A    between atoms: C_18  and  C_19
REMARK                            x       y       z     vdW  Elec       q    Type
REMARK                         _______ _______ _______ _____ _____    ______ ____
ROOT
ATOM      1  O   UNL     1       2.173  13.288  21.509  0.00  0.00    +0.000 OA
ATOM      2  C   UNL     1       1.846  13.194  20.325  0.00  0.00    +0.000 C 
ATOM      3  N   UNL     1       1.130  12.068  19.872  0.00  0.00    +0.000 N 
ATOM      4  C   UNL     1       0.748  11.734  18.502  0.00  0.00    +0.000 C 
ATOM      5  C   UNL     1       1.653  10.598  18.000  0.00  0.00    +0.000 C 
ATOM      6  C   UNL     1       1.696   9.465  18.999  0.00  0.00    +0.000 A 
ATOM      7  N   UNL     1       2.204   8.283  18.515  0.00  0.00    +0.000 NA
ATOM      8  C   UNL     1       2.281   7.283  19.333  0.00  0.00    +0.000 A 
ATOM      9  N   UNL     1       1.797   7.346  20.618  0.00  0.00    +0.000 N 
ATOM     10  C   UNL     1       1.246   8.481  21.142  0.00  0.00    +0.000 A 
ATOM     11  O   UNL     1       0.737   8.503  22.255  0.00  0.00    +0.000 OA
ATOM     12  C   UNL     1       1.275   9.662  20.261  0.00  0.00    +0.000 A 
ATOM     13  C   UNL     1       0.834  10.983  20.828  0.00  0.00    +0.000 C 
ATOM     14  H   UNL     1       1.750   6.533  21.213  0.00  0.00    +0.000 HD
ENDROOT
BRANCH   2  15
ATOM     15  C   UNL     1       2.240  14.321  19.394  0.00  0.00    +0.000 A 
ATOM     16  C   UNL     1       3.551  14.369  18.899  0.00  0.00    +0.000 A 
ATOM     17  C   UNL     1       3.947  15.315  17.962  0.00  0.00    +0.000 A 
ATOM     18  C   UNL     1       3.062  16.308  17.578  0.00  0.00    +0.000 A 
ATOM     19  C   UNL     1       1.791  16.393  18.155  0.00  0.00    +0.000 A 
ATOM     20  C   UNL     1       0.977  17.485  17.820  0.00  0.00    +0.000 A 
ATOM     21  C   UNL     1      -0.276  17.648  18.398  0.00  0.00    +0.000 A 
ATOM     22  C   UNL     1      -0.742  16.703  19.300  0.00  0.00    +0.000 A 
ATOM     23  C   UNL     1       0.044  15.587  19.619  0.00  0.00    +0.000 A 
ATOM     24  C   UNL     1       1.344  15.397  19.076  0.00  0.00    +0.000 A 
ENDBRANCH   2  15
BRANCH   8  25
ATOM     25  C   UNL     1       2.913   6.005  18.902  0.00  0.00    +0.000 A 
ATOM     26  C   UNL     1       4.087   5.579  19.544  0.00  0.00    +0.000 A 
ATOM     27  C   UNL     1       4.666   4.349  19.220  0.00  0.00    +0.000 A 
ATOM     28  C   UNL     1       4.069   3.536  18.259  0.00  0.00    +0.000 A 
ATOM     29  C   UNL     1       2.903   3.960  17.632  0.00  0.00    +0.000 A 
ATOM     30  F   UNL     1       2.321   3.168  16.722  0.00  0.00    +0.000 F 
ATOM     31  C   UNL     1       2.316   5.183  17.942  0.00  0.00    +0.000 A 
ENDBRANCH   8  25
TORSDOF 2
ENDMDL
