MODEL 1
REMARK VINA RESULT:      -8.5      0.000      0.000
REMARK  Name = 
REMARK  5 active torsions:
REMARK  status: ('A' for Active; 'I' for Inactive)
REMARK    1  A    between atoms: C_2  and  C_16
REMARK    2  A    between atoms: N_3  and  C_4
REMARK    3  A    between atoms: C_4  and  C_5
REMARK    4  A    between atoms: C_5  and  N_6
REMARK    5  A    between atoms: C_20  and  C_21
REMARK                            x       y       z     vdW  Elec       q    Type
REMARK                         _______ _______ _______ _____ _____    ______ ____
ROOT
ATOM      1  O   UNL     1       4.127   6.082  19.719  0.00  0.00    +0.000 OA
ATOM      2  C   UNL     1       3.133   6.179  19.007  0.00  0.00    +0.000 C 
ATOM      3  N   UNL     1       2.557   5.109  18.362  0.00  0.00    +0.000 N 
ATOM      4  H   UNL     1       1.745   5.258  17.779  0.00  0.00    +0.000 HD
ENDROOT
BRANCH   3   5
ATOM      5  C   UNL     1       3.106   3.737  18.460  0.00  0.00    +0.000 C 
ATOM      6  C   UNL     1       3.357   3.392  19.953  0.00  0.00    +0.000 C 
ATOM      7  C   UNL     1       2.065   3.323  20.779  0.00  0.00    +0.000 C 
ATOM      8  C   UNL     1       1.080   2.313  20.202  0.00  0.00    +0.000 C 
ATOM      9  C   UNL     1       0.788   2.601  18.735  0.00  0.00    +0.000 C 
ATOM     10  C   UNL     1       2.071   2.701  17.908  0.00  0.00    +0.000 C 
BRANCH   5  11
ATOM     11  C   UNL     1       4.450   3.571  17.628  0.00  0.00    +0.000 C 
BRANCH  11  12
ATOM     12  N   UNL     1       4.938   4.692  16.781  0.00  0.00    +0.000 NA
ATOM     13  C   UNL     1       4.887   4.449  15.332  0.00  0.00    +0.000 C 
ATOM     14  C   UNL     1       6.227   3.859  14.939  0.00  0.00    +0.000 C 
ATOM     15  C   UNL     1       7.190   4.600  15.836  0.00  0.00    +0.000 C 
ATOM     16  C   UNL     1       6.370   4.957  17.072  0.00  0.00    +0.000 C 
ENDBRANCH  11  12
ENDBRANCH   5  11
ENDBRANCH   3   5
BRANCH   2  17
ATOM     17  C   UNL     1       2.528   7.520  18.814  0.00  0.00    +0.000 A 
ATOM     18  C   UNL     1       2.553   8.245  17.623  0.00  0.00    +0.000 A 
ATOM     19  C   UNL     1       1.873   9.466  17.557  0.00  0.00    +0.000 A 
ATOM     20  C   UNL     1       1.175   9.960  18.673  0.00  0.00    +0.000 A 
ATOM     21  C   UNL     1       1.133   9.241  19.878  0.00  0.00    +0.000 A 
ATOM     22  C   UNL     1       1.828   8.022  19.914  0.00  0.00    +0.000 A 
BRANCH  21  23
ATOM     23  C   UNL     1       0.384   9.680  21.073  0.00  0.00    +0.000 A 
ATOM     24  N   UNL     1       0.515   8.989  22.220  0.00  0.00    +0.000 NA
ATOM     25  C   UNL     1      -0.187   9.461  23.271  0.00  0.00    +0.000 A 
ATOM     26  C   UNL     1      -0.993  10.574  23.227  0.00  0.00    +0.000 A 
ATOM     27  C   UNL     1      -1.065  11.201  22.007  0.00  0.00    +0.000 A 
ATOM     28  N   UNL     1      -0.394  10.773  20.930  0.00  0.00    +0.000 NA
ENDBRANCH  21  23
ENDBRANCH   2  17
TORSDOF 5
ENDMDL
MODEL 2
REMARK VINA RESULT:      -8.2      2.061      3.196
REMARK  Name = 
REMARK  5 active torsions:
REMARK  status: ('A' for Active; 'I' for Inactive)
REMARK    1  A    between atoms: C_2  and  C_16
REMARK    2  A    between atoms: N_3  and  C_4
REMARK    3  A    between atoms: C_4  and  C_5
REMARK    4  A    between atoms: C_5  and  N_6
REMARK    5  A    between atoms: C_20  and  C_21
REMARK                            x       y       z     vdW  Elec       q    Type
REMARK                         _______ _______ _______ _____ _____    ______ ____
ROOT
ATOM      1  O   UNL     1       2.720   7.778  18.493  0.00  0.00    +0.000 OA
ATOM      2  C   UNL     1       2.201   7.389  19.533  0.00  0.00    +0.000 C 
ATOM      3  N   UNL     1       2.380   6.123  20.042  0.00  0.00    +0.000 N 
ATOM      4  H   UNL     1       1.913   5.861  20.898  0.00  0.00    +0.000 HD
ENDROOT
BRANCH   3   5
ATOM      5  C   UNL     1       3.211   5.106  19.357  0.00  0.00    +0.000 C 
ATOM      6  C   UNL     1       3.110   3.761  20.126  0.00  0.00    +0.000 C 
ATOM      7  C   UNL     1       1.700   3.155  20.094  0.00  0.00    +0.000 C 
ATOM      8  C   UNL     1       1.210   2.941  18.667  0.00  0.00    +0.000 C 
ATOM      9  C   UNL     1       1.280   4.230  17.858  0.00  0.00    +0.000 C 
ATOM     10  C   UNL     1       2.674   4.858  17.908  0.00  0.00    +0.000 C 
BRANCH   5  11
ATOM     11  C   UNL     1       4.731   5.557  19.242  0.00  0.00    +0.000 C 
BRANCH  11  12
ATOM     12  N   UNL     1       5.443   5.428  17.942  0.00  0.00    +0.000 NA
ATOM     13  C   UNL     1       6.701   4.670  17.991  0.00  0.00    +0.000 C 
ATOM     14  C   UNL     1       7.808   5.673  18.248  0.00  0.00    +0.000 C 
ATOM     15  C   UNL     1       7.349   6.879  17.462  0.00  0.00    +0.000 C 
ATOM     16  C   UNL     1       5.828   6.773  17.444  0.00  0.00    +0.000 C 
ENDBRANCH  11  12
ENDBRANCH   5  11
ENDBRANCH   3   5
BRANCH   2  17
ATOM     17  C   UNL     1       1.319   8.322  20.277  0.00  0.00    +0.000 A 
ATOM     18  C   UNL     1       0.652   8.019  21.464  0.00  0.00    +0.000 A 
ATOM     19  C   UNL     1      -0.087   9.020  22.103  0.00  0.00    +0.000 A 
ATOM     20  C   UNL     1      -0.161  10.314  21.559  0.00  0.00    +0.000 A 
ATOM     21  C   UNL     1       0.508  10.640  20.368  0.00  0.00    +0.000 A 
ATOM     22  C   UNL     1       1.237   9.614  19.750  0.00  0.00    +0.000 A 
BRANCH  21  23
ATOM     23  C   UNL     1       0.507  11.989  19.766  0.00  0.00    +0.000 A 
ATOM     24  N   UNL     1      -0.611  12.735  19.831  0.00  0.00    +0.000 NA
ATOM     25  C   UNL     1      -0.530  13.961  19.274  0.00  0.00    +0.000 A 
ATOM     26  C   UNL     1       0.600  14.465  18.673  0.00  0.00    +0.000 A 
ATOM     27  C   UNL     1       1.683  13.620  18.652  0.00  0.00    +0.000 A 
ATOM     28  N   UNL     1       1.655  12.391  19.184  0.00  0.00    +0.000 NA
ENDBRANCH  21  23
ENDBRANCH   2  17
TORSDOF 5
ENDMDL
MODEL 3
REMARK VINA RESULT:      -8.1      0.890      3.692
REMARK  Name = 
REMARK  5 active torsions:
REMARK  status: ('A' for Active; 'I' for Inactive)
REMARK    1  A    between atoms: C_2  and  C_16
REMARK    2  A    between atoms: N_3  and  C_4
REMARK    3  A    between atoms: C_4  and  C_5
REMARK    4  A    between atoms: C_5  and  N_6
REMARK    5  A    between atoms: C_20  and  C_21
REMARK                            x       y       z     vdW  Elec       q    Type
REMARK                         _______ _______ _______ _____ _____    ______ ____
ROOT
ATOM      1  O   UNL     1       3.354   5.976  20.263  0.00  0.00    +0.000 OA
ATOM      2  C   UNL     1       3.262   6.370  19.105  0.00  0.00    +0.000 C 
ATOM      3  N   UNL     1       3.827   5.714  18.035  0.00  0.00    +0.000 N 
ATOM      4  H   UNL     1       3.725   6.097  17.106  0.00  0.00    +0.000 HD
ENDROOT
BRANCH   3   5
ATOM      5  C   UNL     1       4.619   4.473  18.198  0.00  0.00    +0.000 C 
ATOM      6  C   UNL     1       4.498   3.616  16.908  0.00  0.00    +0.000 C 
ATOM      7  C   UNL     1       5.129   4.287  15.680  0.00  0.00    +0.000 C 
ATOM      8  C   UNL     1       6.597   4.620  15.910  0.00  0.00    +0.000 C 
ATOM      9  C   UNL     1       6.784   5.466  17.164  0.00  0.00    +0.000 C 
ATOM     10  C   UNL     1       6.133   4.820  18.388  0.00  0.00    +0.000 C 
BRANCH   5  11
ATOM     11  C   UNL     1       4.152   3.628  19.460  0.00  0.00    +0.000 C 
BRANCH  11  12
ATOM     12  N   UNL     1       3.027   2.664  19.330  0.00  0.00    +0.000 NA
ATOM     13  C   UNL     1       1.805   3.208  18.720  0.00  0.00    +0.000 C 
ATOM     14  C   UNL     1       0.942   3.726  19.853  0.00  0.00    +0.000 C 
ATOM     15  C   UNL     1       1.197   2.718  20.949  0.00  0.00    +0.000 C 
ATOM     16  C   UNL     1       2.605   2.198  20.675  0.00  0.00    +0.000 C 
ENDBRANCH  11  12
ENDBRANCH   5  11
ENDBRANCH   3   5
BRANCH   2  17
ATOM     17  C   UNL     1       2.519   7.626  18.840  0.00  0.00    +0.000 A 
ATOM     18  C   UNL     1       2.416   8.248  17.596  0.00  0.00    +0.000 A 
ATOM     19  C   UNL     1       1.616   9.390  17.471  0.00  0.00    +0.000 A 
ATOM     20  C   UNL     1       0.927   9.907  18.581  0.00  0.00    +0.000 A 
ATOM     21  C   UNL     1       1.014   9.292  19.840  0.00  0.00    +0.000 A 
ATOM     22  C   UNL     1       1.826   8.151  19.934  0.00  0.00    +0.000 A 
BRANCH  21  23
ATOM     23  C   UNL     1       0.282   9.758  21.036  0.00  0.00    +0.000 A 
ATOM     24  N   UNL     1       0.340   9.028  22.165  0.00  0.00    +0.000 NA
ATOM     25  C   UNL     1      -0.340   9.526  23.219  0.00  0.00    +0.000 A 
ATOM     26  C   UNL     1      -1.054  10.701  23.194  0.00  0.00    +0.000 A 
ATOM     27  C   UNL     1      -1.056  11.364  21.992  0.00  0.00    +0.000 A 
ATOM     28  N   UNL     1      -0.404  10.912  20.912  0.00  0.00    +0.000 NA
ENDBRANCH  21  23
ENDBRANCH   2  17
TORSDOF 5
ENDMDL
MODEL 4
REMARK VINA RESULT:      -8.0      2.591      3.638
REMARK  Name = 
REMARK  5 active torsions:
REMARK  status: ('A' for Active; 'I' for Inactive)
REMARK    1  A    between atoms: C_2  and  C_16
REMARK    2  A    between atoms: N_3  and  C_4
REMARK    3  A    between atoms: C_4  and  C_5
REMARK    4  A    between atoms: C_5  and  N_6
REMARK    5  A    between atoms: C_20  and  C_21
REMARK                            x       y       z     vdW  Elec       q    Type
REMARK                         _______ _______ _______ _____ _____    ______ ____
ROOT
ATOM      1  O   UNL     1       2.661   7.930  17.869  0.00  0.00    +0.000 OA
ATOM      2  C   UNL     1       2.107   7.753  18.949  0.00  0.00    +0.000 C 
ATOM      3  N   UNL     1       2.273   6.617  19.708  0.00  0.00    +0.000 N 
ATOM      4  H   UNL     1       1.778   6.528  20.583  0.00  0.00    +0.000 HD
ENDROOT
BRANCH   3   5
ATOM      5  C   UNL     1       3.131   5.492  19.269  0.00  0.00    +0.000 C 
ATOM      6  C   UNL     1       2.928   4.290  20.230  0.00  0.00    +0.000 C 
ATOM      7  C   UNL     1       1.509   3.706  20.170  0.00  0.00    +0.000 C 
ATOM      8  C   UNL     1       1.136   3.272  18.758  0.00  0.00    +0.000 C 
ATOM      9  C   UNL     1       1.310   4.414  17.764  0.00  0.00    +0.000 C 
ATOM     10  C   UNL     1       2.712   5.022  17.836  0.00  0.00    +0.000 C 
BRANCH   5  11
ATOM     11  C   UNL     1       4.667   5.897  19.218  0.00  0.00    +0.000 C 
BRANCH  11  12
ATOM     12  N   UNL     1       5.467   5.606  17.999  0.00  0.00    +0.000 NA
ATOM     13  C   UNL     1       6.710   4.856  18.231  0.00  0.00    +0.000 C 
ATOM     14  C   UNL     1       7.807   5.879  18.441  0.00  0.00    +0.000 C 
ATOM     15  C   UNL     1       7.421   6.979  17.482  0.00  0.00    +0.000 C 
ATOM     16  C   UNL     1       5.903   6.878  17.368  0.00  0.00    +0.000 C 
ENDBRANCH  11  12
ENDBRANCH   5  11
ENDBRANCH   3   5
BRANCH   2  17
ATOM     17  C   UNL     1       1.197   8.808  19.460  0.00  0.00    +0.000 A 
ATOM     18  C   UNL     1       1.379   9.515  20.648  0.00  0.00    +0.000 A 
ATOM     19  C   UNL     1       0.484  10.541  20.972  0.00  0.00    +0.000 A 
ATOM     20  C   UNL     1      -0.586  10.855  20.117  0.00  0.00    +0.000 A 
ATOM     21  C   UNL     1      -0.782  10.159  18.913  0.00  0.00    +0.000 A 
ATOM     22  C   UNL     1       0.130   9.134  18.618  0.00  0.00    +0.000 A 
BRANCH  21  23
ATOM     23  C   UNL     1      -1.858  10.467  17.949  0.00  0.00    +0.000 A 
ATOM     24  N   UNL     1      -2.839  11.314  18.311  0.00  0.00    +0.000 NA
ATOM     25  C   UNL     1      -3.777  11.559  17.372  0.00  0.00    +0.000 A 
ATOM     26  C   UNL     1      -3.772  11.009  16.111  0.00  0.00    +0.000 A 
ATOM     27  C   UNL     1      -2.732  10.151  15.847  0.00  0.00    +0.000 A 
ATOM     28  N   UNL     1      -1.778   9.868  16.743  0.00  0.00    +0.000 NA
ENDBRANCH  21  23
ENDBRANCH   2  17
TORSDOF 5
ENDMDL
MODEL 5
REMARK VINA RESULT:      -8.0      2.230      3.281
REMARK  Name = 
REMARK  5 active torsions:
REMARK  status: ('A' for Active; 'I' for Inactive)
REMARK    1  A    between atoms: C_2  and  C_16
REMARK    2  A    between atoms: N_3  and  C_4
REMARK    3  A    between atoms: C_4  and  C_5
REMARK    4  A    between atoms: C_5  and  N_6
REMARK    5  A    between atoms: C_20  and  C_21
REMARK                            x       y       z     vdW  Elec       q    Type
REMARK                         _______ _______ _______ _____ _____    ______ ____
ROOT
ATOM      1  O   UNL     1       2.921   7.788  18.483  0.00  0.00    +0.000 OA
ATOM      2  C   UNL     1       2.296   7.427  19.474  0.00  0.00    +0.000 C 
ATOM      3  N   UNL     1       2.379   6.159  20.003  0.00  0.00    +0.000 N 
ATOM      4  H   UNL     1       1.827   5.922  20.815  0.00  0.00    +0.000 HD
ENDROOT
BRANCH   3   5
ATOM      5  C   UNL     1       3.227   5.106  19.400  0.00  0.00    +0.000 C 
ATOM      6  C   UNL     1       3.047   3.785  20.196  0.00  0.00    +0.000 C 
ATOM      7  C   UNL     1       1.628   3.209  20.090  0.00  0.00    +0.000 C 
ATOM      8  C   UNL     1       1.223   2.966  18.641  0.00  0.00    +0.000 C 
ATOM      9  C   UNL     1       1.374   4.230  17.805  0.00  0.00    +0.000 C 
ATOM     10  C   UNL     1       2.777   4.829  17.927  0.00  0.00    +0.000 C 
BRANCH   5  11
ATOM     11  C   UNL     1       4.761   5.520  19.369  0.00  0.00    +0.000 C 
BRANCH  11  12
ATOM     12  N   UNL     1       5.551   5.337  18.122  0.00  0.00    +0.000 NA
ATOM     13  C   UNL     1       6.875   4.725  18.305  0.00  0.00    +0.000 C 
ATOM     14  C   UNL     1       7.859   5.861  18.501  0.00  0.00    +0.000 C 
ATOM     15  C   UNL     1       7.325   6.926  17.573  0.00  0.00    +0.000 C 
ATOM     16  C   UNL     1       5.824   6.658  17.501  0.00  0.00    +0.000 C 
ENDBRANCH  11  12
ENDBRANCH   5  11
ENDBRANCH   3   5
BRANCH   2  17
ATOM     17  C   UNL     1       1.388   8.400  20.132  0.00  0.00    +0.000 A 
ATOM     18  C   UNL     1       1.505   8.839  21.450  0.00  0.00    +0.000 A 
ATOM     19  C   UNL     1       0.625   9.821  21.920  0.00  0.00    +0.000 A 
ATOM     20  C   UNL     1      -0.365  10.357  21.079  0.00  0.00    +0.000 A 
ATOM     21  C   UNL     1      -0.495   9.932  19.748  0.00  0.00    +0.000 A 
ATOM     22  C   UNL     1       0.399   8.944  19.308  0.00  0.00    +0.000 A 
BRANCH  21  23
ATOM     23  C   UNL     1      -1.484  10.484  18.800  0.00  0.00    +0.000 A 
ATOM     24  N   UNL     1      -1.492  10.042  17.529  0.00  0.00    +0.000 NA
ATOM     25  C   UNL     1      -2.435  10.581  16.728  0.00  0.00    +0.000 A 
ATOM     26  C   UNL     1      -3.354  11.519  17.137  0.00  0.00    +0.000 A 
ATOM     27  C   UNL     1      -3.254  11.910  18.450  0.00  0.00    +0.000 A 
ATOM     28  N   UNL     1      -2.334  11.412  19.287  0.00  0.00    +0.000 NA
ENDBRANCH  21  23
ENDBRANCH   2  17
TORSDOF 5
ENDMDL
MODEL 6
REMARK VINA RESULT:      -7.9      1.197      1.654
REMARK  Name = 
REMARK  5 active torsions:
REMARK  status: ('A' for Active; 'I' for Inactive)
REMARK    1  A    between atoms: C_2  and  C_16
REMARK    2  A    between atoms: N_3  and  C_4
REMARK    3  A    between atoms: C_4  and  C_5
REMARK    4  A    between atoms: C_5  and  N_6
REMARK    5  A    between atoms: C_20  and  C_21
REMARK                            x       y       z     vdW  Elec       q    Type
REMARK                         _______ _______ _______ _____ _____    ______ ____
ROOT
ATOM      1  O   UNL     1       3.048   6.073  20.656  0.00  0.00    +0.000 OA
ATOM      2  C   UNL     1       2.859   6.329  19.472  0.00  0.00    +0.000 C 
ATOM      3  N   UNL     1       3.201   5.475  18.448  0.00  0.00    +0.000 N 
ATOM      4  H   UNL     1       3.029   5.751  17.492  0.00  0.00    +0.000 HD
ENDROOT
BRANCH   3   5
ATOM      5  C   UNL     1       3.850   4.167  18.694  0.00  0.00    +0.000 C 
ATOM      6  C   UNL     1       3.167   3.477  19.906  0.00  0.00    +0.000 C 
ATOM      7  C   UNL     1       1.701   3.107  19.639  0.00  0.00    +0.000 C 
ATOM      8  C   UNL     1       1.559   2.206  18.419  0.00  0.00    +0.000 C 
ATOM      9  C   UNL     1       2.207   2.831  17.190  0.00  0.00    +0.000 C 
ATOM     10  C   UNL     1       3.661   3.230  17.455  0.00  0.00    +0.000 C 
BRANCH   5  11
ATOM     11  C   UNL     1       5.410   4.314  18.957  0.00  0.00    +0.000 C 
BRANCH  11  12
ATOM     12  N   UNL     1       6.317   4.684  17.838  0.00  0.00    +0.000 NA
ATOM     13  C   UNL     1       7.725   4.877  18.210  0.00  0.00    +0.000 C 
ATOM     14  C   UNL     1       7.893   6.347  18.542  0.00  0.00    +0.000 C 
ATOM     15  C   UNL     1       6.981   7.017  17.542  0.00  0.00    +0.000 C 
ATOM     16  C   UNL     1       5.895   5.984  17.257  0.00  0.00    +0.000 C 
ENDBRANCH  11  12
ENDBRANCH   5  11
ENDBRANCH   3   5
BRANCH   2  17
ATOM     17  C   UNL     1       2.247   7.633  19.118  0.00  0.00    +0.000 A 
ATOM     18  C   UNL     1       2.282   8.217  17.852  0.00  0.00    +0.000 A 
ATOM     19  C   UNL     1       1.595   9.417  17.637  0.00  0.00    +0.000 A 
ATOM     20  C   UNL     1       0.879  10.029  18.680  0.00  0.00    +0.000 A 
ATOM     21  C   UNL     1       0.826   9.454  19.959  0.00  0.00    +0.000 A 
ATOM     22  C   UNL     1       1.528   8.253  20.144  0.00  0.00    +0.000 A 
BRANCH  21  23
ATOM     23  C   UNL     1       0.058  10.021  21.086  0.00  0.00    +0.000 A 
ATOM     24  N   UNL     1       0.067   9.386  22.272  0.00  0.00    +0.000 NA
ATOM     25  C   UNL     1      -0.644   9.973  23.257  0.00  0.00    +0.000 A 
ATOM     26  C   UNL     1      -1.344  11.148  23.111  0.00  0.00    +0.000 A 
ATOM     27  C   UNL     1      -1.296  11.711  21.859  0.00  0.00    +0.000 A 
ATOM     28  N   UNL     1      -0.611  11.167  20.844  0.00  0.00    +0.000 NA
ENDBRANCH  21  23
ENDBRANCH   2  17
TORSDOF 5
ENDMDL
MODEL 7
REMARK VINA RESULT:      -7.9      2.170      3.195
REMARK  Name = 
REMARK  5 active torsions:
REMARK  status: ('A' for Active; 'I' for Inactive)
REMARK    1  A    between atoms: C_2  and  C_16
REMARK    2  A    between atoms: N_3  and  C_4
REMARK    3  A    between atoms: C_4  and  C_5
REMARK    4  A    between atoms: C_5  and  N_6
REMARK    5  A    between atoms: C_20  and  C_21
REMARK                            x       y       z     vdW  Elec       q    Type
REMARK                         _______ _______ _______ _____ _____    ______ ____
ROOT
ATOM      1  O   UNL     1       2.585   7.958  18.552  0.00  0.00    +0.000 OA
ATOM      2  C   UNL     1       2.126   7.531  19.606  0.00  0.00    +0.000 C 
ATOM      3  N   UNL     1       2.355   6.255  20.070  0.00  0.00    +0.000 N 
ATOM      4  H   UNL     1       1.937   5.961  20.941  0.00  0.00    +0.000 HD
ENDROOT
BRANCH   3   5
ATOM      5  C   UNL     1       3.170   5.275  19.317  0.00  0.00    +0.000 C 
ATOM      6  C   UNL     1       3.244   3.948  20.119  0.00  0.00    +0.000 C 
ATOM      7  C   UNL     1       1.882   3.253  20.258  0.00  0.00    +0.000 C 
ATOM      8  C   UNL     1       1.252   2.969  18.900  0.00  0.00    +0.000 C 
ATOM      9  C   UNL     1       1.146   4.238  18.063  0.00  0.00    +0.000 C 
ATOM     10  C   UNL     1       2.494   4.954  17.943  0.00  0.00    +0.000 C 
BRANCH   5  11
ATOM     11  C   UNL     1       4.634   5.817  19.022  0.00  0.00    +0.000 C 
BRANCH  11  12
ATOM     12  N   UNL     1       5.797   4.896  19.120  0.00  0.00    +0.000 NA
ATOM     13  C   UNL     1       7.060   5.524  19.533  0.00  0.00    +0.000 C 
ATOM     14  C   UNL     1       7.778   5.942  18.265  0.00  0.00    +0.000 C 
ATOM     15  C   UNL     1       7.437   4.823  17.309  0.00  0.00    +0.000 C 
ATOM     16  C   UNL     1       6.085   4.304  17.789  0.00  0.00    +0.000 C 
ENDBRANCH  11  12
ENDBRANCH   5  11
ENDBRANCH   3   5
BRANCH   2  17
ATOM     17  C   UNL     1       1.264   8.425  20.418  0.00  0.00    +0.000 A 
ATOM     18  C   UNL     1       0.500   8.022  21.513  0.00  0.00    +0.000 A 
ATOM     19  C   UNL     1      -0.208   8.987  22.239  0.00  0.00    +0.000 A 
ATOM     20  C   UNL     1      -0.153  10.343  21.873  0.00  0.00    +0.000 A 
ATOM     21  C   UNL     1       0.615  10.768  20.778  0.00  0.00    +0.000 A 
ATOM     22  C   UNL     1       1.310   9.777  20.068  0.00  0.00    +0.000 A 
BRANCH  21  23
ATOM     23  C   UNL     1       0.751  12.180  20.366  0.00  0.00    +0.000 A 
ATOM     24  N   UNL     1       1.373  13.045  21.187  0.00  0.00    +0.000 NA
ATOM     25  C   UNL     1       1.472  14.313  20.735  0.00  0.00    +0.000 A 
ATOM     26  C   UNL     1       0.990  14.742  19.520  0.00  0.00    +0.000 A 
ATOM     27  C   UNL     1       0.364  13.782  18.763  0.00  0.00    +0.000 A 
ATOM     28  N   UNL     1       0.232  12.511  19.166  0.00  0.00    +0.000 NA
ENDBRANCH  21  23
ENDBRANCH   2  17
TORSDOF 5
ENDMDL
MODEL 8
REMARK VINA RESULT:      -7.9      2.013      3.031
REMARK  Name = 
REMARK  5 active torsions:
REMARK  status: ('A' for Active; 'I' for Inactive)
REMARK    1  A    between atoms: C_2  and  C_16
REMARK    2  A    between atoms: N_3  and  C_4
REMARK    3  A    between atoms: C_4  and  C_5
REMARK    4  A    between atoms: C_5  and  N_6
REMARK    5  A    between atoms: C_20  and  C_21
REMARK                            x       y       z     vdW  Elec       q    Type
REMARK                         _______ _______ _______ _____ _____    ______ ____
ROOT
ATOM      1  O   UNL     1       2.705   7.405  18.608  0.00  0.00    +0.000 OA
ATOM      2  C   UNL     1       2.268   7.113  19.716  0.00  0.00    +0.000 C 
ATOM      3  N   UNL     1       2.466   5.887  20.309  0.00  0.00    +0.000 N 
ATOM      4  H   UNL     1       2.069   5.705  21.219  0.00  0.00    +0.000 HD
ENDROOT
BRANCH   3   5
ATOM      5  C   UNL     1       3.218   4.799  19.642  0.00  0.00    +0.000 C 
ATOM      6  C   UNL     1       3.126   3.511  20.504  0.00  0.00    +0.000 C 
ATOM      7  C   UNL     1       1.698   2.954  20.602  0.00  0.00    +0.000 C 
ATOM      8  C   UNL     1       1.109   2.667  19.227  0.00  0.00    +0.000 C 
ATOM      9  C   UNL     1       1.166   3.897  18.331  0.00  0.00    +0.000 C 
ATOM     10  C   UNL     1       2.580   4.477  18.250  0.00  0.00    +0.000 C 
BRANCH   5  11
ATOM     11  C   UNL     1       4.740   5.186  19.400  0.00  0.00    +0.000 C 
BRANCH  11  12
ATOM     12  N   UNL     1       5.278   5.238  18.015  0.00  0.00    +0.000 NA
ATOM     13  C   UNL     1       6.336   4.262  17.717  0.00  0.00    +0.000 C 
ATOM     14  C   UNL     1       7.657   4.940  18.021  0.00  0.00    +0.000 C 
ATOM     15  C   UNL     1       7.405   6.364  17.588  0.00  0.00    +0.000 C 
ATOM     16  C   UNL     1       5.903   6.563  17.767  0.00  0.00    +0.000 C 
ENDBRANCH  11  12
ENDBRANCH   5  11
ENDBRANCH   3   5
BRANCH   2  17
ATOM     17  C   UNL     1       1.469   8.123  20.452  0.00  0.00    +0.000 A 
ATOM     18  C   UNL     1       1.664   8.482  21.786  0.00  0.00    +0.000 A 
ATOM     19  C   UNL     1       0.888   9.509  22.334  0.00  0.00    +0.000 A 
ATOM     20  C   UNL     1      -0.077  10.171  21.556  0.00  0.00    +0.000 A 
ATOM     21  C   UNL     1      -0.284   9.829  20.210  0.00  0.00    +0.000 A 
ATOM     22  C   UNL     1       0.507   8.793  19.691  0.00  0.00    +0.000 A 
BRANCH  21  23
ATOM     23  C   UNL     1      -1.250  10.512  19.326  0.00  0.00    +0.000 A 
ATOM     24  N   UNL     1      -2.011  11.502  19.827  0.00  0.00    +0.000 NA
ATOM     25  C   UNL     1      -2.857  12.089  18.955  0.00  0.00    +0.000 A 
ATOM     26  C   UNL     1      -2.968  11.739  17.629  0.00  0.00    +0.000 A 
ATOM     27  C   UNL     1      -2.154  10.712  17.221  0.00  0.00    +0.000 A 
ATOM     28  N   UNL     1      -1.300  10.090  18.046  0.00  0.00    +0.000 NA
ENDBRANCH  21  23
ENDBRANCH   2  17
TORSDOF 5
ENDMDL
MODEL 9
REMARK VINA RESULT:      -7.8      1.239      1.716
REMARK  Name = 
REMARK  5 active torsions:
REMARK  status: ('A' for Active; 'I' for Inactive)
REMARK    1  A    between atoms: C_2  and  C_16
REMARK    2  A    between atoms: N_3  and  C_4
REMARK    3  A    between atoms: C_4  and  C_5
REMARK    4  A    between atoms: C_5  and  N_6
REMARK    5  A    between atoms: C_20  and  C_21
REMARK                            x       y       z     vdW  Elec       q    Type
REMARK                         _______ _______ _______ _____ _____    ______ ____
ROOT
ATOM      1  O   UNL     1       2.688   6.493  20.904  0.00  0.00    +0.000 OA
ATOM      2  C   UNL     1       2.445   6.664  19.714  0.00  0.00    +0.000 C 
ATOM      3  N   UNL     1       2.632   5.694  18.756  0.00  0.00    +0.000 N 
ATOM      4  H   UNL     1       2.424   5.904  17.790  0.00  0.00    +0.000 HD
ENDROOT
BRANCH   3   5
ATOM      5  C   UNL     1       3.165   4.352  19.083  0.00  0.00    +0.000 C 
ATOM      6  C   UNL     1       2.478   3.829  20.373  0.00  0.00    +0.000 C 
ATOM      7  C   UNL     1       0.972   3.585  20.195  0.00  0.00    +0.000 C 
ATOM      8  C   UNL     1       0.689   2.609  19.059  0.00  0.00    +0.000 C 
ATOM      9  C   UNL     1       1.336   3.070  17.759  0.00  0.00    +0.000 C 
ATOM     10  C   UNL     1       2.832   3.345  17.933  0.00  0.00    +0.000 C 
BRANCH   5  11
ATOM     11  C   UNL     1       4.743   4.367  19.273  0.00  0.00    +0.000 C 
BRANCH  11  12
ATOM     12  N   UNL     1       5.545   5.485  18.709  0.00  0.00    +0.000 NA
ATOM     13  C   UNL     1       5.821   5.393  17.268  0.00  0.00    +0.000 C 
ATOM     14  C   UNL     1       7.140   4.662  17.120  0.00  0.00    +0.000 C 
ATOM     15  C   UNL     1       7.934   5.170  18.299  0.00  0.00    +0.000 C 
ATOM     16  C   UNL     1       6.884   5.517  19.351  0.00  0.00    +0.000 C 
ENDBRANCH  11  12
ENDBRANCH   5  11
ENDBRANCH   3   5
BRANCH   2  17
ATOM     17  C   UNL     1       1.941   7.990  19.278  0.00  0.00    +0.000 A 
ATOM     18  C   UNL     1       2.063   8.508  17.988  0.00  0.00    +0.000 A 
ATOM     19  C   UNL     1       1.471   9.740  17.692  0.00  0.00    +0.000 A 
ATOM     20  C   UNL     1       0.764  10.451  18.678  0.00  0.00    +0.000 A 
ATOM     21  C   UNL     1       0.625   9.943  19.980  0.00  0.00    +0.000 A 
ATOM     22  C   UNL     1       1.233   8.707  20.246  0.00  0.00    +0.000 A 
BRANCH  21  23
ATOM     23  C   UNL     1      -0.140  10.617  21.049  0.00  0.00    +0.000 A 
ATOM     24  N   UNL     1      -0.598  11.865  20.840  0.00  0.00    +0.000 NA
ATOM     25  C   UNL     1      -1.301  12.408  21.856  0.00  0.00    +0.000 A 
ATOM     26  C   UNL     1      -1.565  11.766  23.044  0.00  0.00    +0.000 A 
ATOM     27  C   UNL     1      -1.045  10.501  23.159  0.00  0.00    +0.000 A 
ATOM     28  N   UNL     1      -0.335   9.916  22.185  0.00  0.00    +0.000 NA
ENDBRANCH  21  23
ENDBRANCH   2  17
TORSDOF 5
ENDMDL
