MODEL 1
REMARK VINA RESULT:      -8.3      0.000      0.000
REMARK  Name = 
REMARK  7 active torsions:
REMARK  status: ('A' for Active; 'I' for Inactive)
REMARK    1  A    between atoms: C_2  and  C_3
REMARK    2  A    between atoms: C_3  and  O_4
REMARK    3  A    between atoms: O_4  and  C_5
REMARK    4  A    between atoms: N_12  and  C_13
REMARK    5  A    between atoms: C_18  and  S_19
REMARK    6  A    between atoms: S_19  and  C_20
REMARK    7  A    between atoms: C_20  and  C_21
REMARK                            x       y       z     vdW  Elec       q    Type
REMARK                         _______ _______ _______ _____ _____    ______ ____
ROOT
ATOM      1  C   UNL     1       6.438   6.620  16.916  0.00  0.00    +0.000 A 
ATOM      2  C   UNL     1       5.948   6.092  15.719  0.00  0.00    +0.000 A 
ATOM      3  C   UNL     1       5.197   4.909  15.692  0.00  0.00    +0.000 A 
ATOM      4  C   UNL     1       4.916   4.234  16.891  0.00  0.00    +0.000 A 
ATOM      5  N   UNL     1       4.137   3.099  17.014  0.00  0.00    +0.000 NA
ATOM      6  C   UNL     1       4.088   2.738  18.273  0.00  0.00    +0.000 A 
ATOM      7  S   UNL     1       4.954   3.718  19.377  0.00  0.00    +0.000 S 
ATOM      8  C   UNL     1       5.446   4.742  18.079  0.00  0.00    +0.000 A 
ATOM      9  C   UNL     1       6.228   5.917  18.113  0.00  0.00    +0.000 A 
ENDROOT
BRANCH   1  12
ATOM     10  O   UNL     1       8.507   7.441  18.832  0.00  0.00    +0.000 OA
ATOM     11  C   UNL     1       8.077   8.190  17.956  0.00  0.00    +0.000 C 
ATOM     12  N   UNL     1       7.157   7.840  16.976  0.00  0.00    +0.000 N 
ATOM     13  H   UNL     1       7.101   8.448  16.166  0.00  0.00    +0.000 HD
BRANCH  11  14
ATOM     14  C   UNL     1       8.530   9.652  17.905  0.00  0.00    +0.000 C 
BRANCH  14  15
ATOM     15  O   UNL     1       9.185  10.062  19.097  0.00  0.00    +0.000 OA
BRANCH  15  16
ATOM     16  C   UNL     1       9.874  11.248  19.021  0.00  0.00    +0.000 A 
ATOM     17  C   UNL     1       9.851  12.136  17.941  0.00  0.00    +0.000 A 
ATOM     18  C   UNL     1      10.608  13.313  17.972  0.00  0.00    +0.000 A 
ATOM     19  C   UNL     1      11.385  13.611  19.088  0.00  0.00    +0.000 A 
ATOM     20 CL   UNL     1      12.327  15.049  19.112  0.00  0.00    +0.000 Cl
ATOM     21  C   UNL     1      11.397  12.748  20.181  0.00  0.00    +0.000 A 
ATOM     22  C   UNL     1      10.636  11.575  20.149  0.00  0.00    +0.000 A 
ENDBRANCH  15  16
ENDBRANCH  14  15
ENDBRANCH  11  14
ENDBRANCH   1  12
BRANCH   6  23
ATOM     23  S   UNL     1       3.142   1.357  18.784  0.00  0.00    +0.000 S 
BRANCH  23  24
ATOM     24  C   UNL     1       1.519   2.143  19.015  0.00  0.00    +0.000 C 
BRANCH  24  25
ATOM     25  C   UNL     1       1.510   3.171  20.143  0.00  0.00    +0.000 C 
ATOM     26  O   UNL     1       1.493   2.863  21.339  0.00  0.00    +0.000 OA
ATOM     27  N   UNL     1       1.557   4.498  19.767  0.00  0.00    +0.000 N 
ATOM     28  C   UNL     1       1.602   5.063  18.431  0.00  0.00    +0.000 C 
ATOM     29  C   UNL     1       2.388   6.347  18.631  0.00  0.00    +0.000 C 
ATOM     30  C   UNL     1       1.943   6.825  20.011  0.00  0.00    +0.000 C 
ATOM     31  C   UNL     1       1.601   5.547  20.771  0.00  0.00    +0.000 C 
ENDBRANCH  24  25
ENDBRANCH  23  24
ENDBRANCH   6  23
TORSDOF 7
ENDMDL
MODEL 2
REMARK VINA RESULT:      -8.3      6.022      8.527
REMARK  Name = 
REMARK  7 active torsions:
REMARK  status: ('A' for Active; 'I' for Inactive)
REMARK    1  A    between atoms: C_2  and  C_3
REMARK    2  A    between atoms: C_3  and  O_4
REMARK    3  A    between atoms: O_4  and  C_5
REMARK    4  A    between atoms: N_12  and  C_13
REMARK    5  A    between atoms: C_18  and  S_19
REMARK    6  A    between atoms: S_19  and  C_20
REMARK    7  A    between atoms: C_20  and  C_21
REMARK                            x       y       z     vdW  Elec       q    Type
REMARK                         _______ _______ _______ _____ _____    ______ ____
ROOT
ATOM      1  C   UNL     1       1.294   9.525  19.004  0.00  0.00    +0.000 A 
ATOM      2  C   UNL     1       1.194   8.730  20.149  0.00  0.00    +0.000 A 
ATOM      3  C   UNL     1       1.921   7.539  20.280  0.00  0.00    +0.000 A 
ATOM      4  C   UNL     1       2.778   7.128  19.247  0.00  0.00    +0.000 A 
ATOM      5  N   UNL     1       3.597   6.014  19.273  0.00  0.00    +0.000 NA
ATOM      6  C   UNL     1       4.259   5.932  18.145  0.00  0.00    +0.000 A 
ATOM      7  S   UNL     1       3.954   7.164  16.996  0.00  0.00    +0.000 S 
ATOM      8  C   UNL     1       2.841   7.903  18.086  0.00  0.00    +0.000 A 
ATOM      9  C   UNL     1       2.091   9.090  17.933  0.00  0.00    +0.000 A 
ENDROOT
BRANCH   1  12
ATOM     10  O   UNL     1      -1.590  10.006  18.738  0.00  0.00    +0.000 OA
ATOM     11  C   UNL     1      -0.758  10.908  18.676  0.00  0.00    +0.000 C 
ATOM     12  N   UNL     1       0.610  10.759  18.867  0.00  0.00    +0.000 N 
ATOM     13  H   UNL     1       1.137  11.602  19.064  0.00  0.00    +0.000 HD
BRANCH  11  14
ATOM     14  C   UNL     1      -1.195  12.334  18.331  0.00  0.00    +0.000 C 
BRANCH  14  15
ATOM     15  O   UNL     1      -0.908  13.260  19.371  0.00  0.00    +0.000 OA
BRANCH  15  16
ATOM     16  C   UNL     1      -1.542  13.029  20.567  0.00  0.00    +0.000 A 
ATOM     17  C   UNL     1      -0.911  12.714  21.775  0.00  0.00    +0.000 A 
ATOM     18  C   UNL     1      -1.665  12.487  22.933  0.00  0.00    +0.000 A 
ATOM     19  C   UNL     1      -3.053  12.583  22.888  0.00  0.00    +0.000 A 
ATOM     20 CL   UNL     1      -3.975  12.285  24.309  0.00  0.00    +0.000 Cl
ATOM     21  C   UNL     1      -3.692  12.922  21.698  0.00  0.00    +0.000 A 
ATOM     22  C   UNL     1      -2.936  13.153  20.544  0.00  0.00    +0.000 A 
ENDBRANCH  15  16
ENDBRANCH  14  15
ENDBRANCH  11  14
ENDBRANCH   1  12
BRANCH   6  23
ATOM     23  S   UNL     1       5.424   4.656  17.867  0.00  0.00    +0.000 S 
BRANCH  23  24
ATOM     24  C   UNL     1       4.346   3.198  17.986  0.00  0.00    +0.000 C 
BRANCH  24  25
ATOM     25  C   UNL     1       4.177   2.697  19.418  0.00  0.00    +0.000 C 
ATOM     26  O   UNL     1       5.113   2.269  20.100  0.00  0.00    +0.000 OA
ATOM     27  N   UNL     1       2.905   2.774  19.951  0.00  0.00    +0.000 N 
ATOM     28  C   UNL     1       1.688   3.259  19.330  0.00  0.00    +0.000 C 
ATOM     29  C   UNL     1       0.904   3.814  20.506  0.00  0.00    +0.000 C 
ATOM     30  C   UNL     1       1.250   2.860  21.646  0.00  0.00    +0.000 C 
ATOM     31  C   UNL     1       2.657   2.366  21.323  0.00  0.00    +0.000 C 
ENDBRANCH  24  25
ENDBRANCH  23  24
ENDBRANCH   6  23
TORSDOF 7
ENDMDL
MODEL 3
REMARK VINA RESULT:      -8.2      6.608      9.656
REMARK  Name = 
REMARK  7 active torsions:
REMARK  status: ('A' for Active; 'I' for Inactive)
REMARK    1  A    between atoms: C_2  and  C_3
REMARK    2  A    between atoms: C_3  and  O_4
REMARK    3  A    between atoms: O_4  and  C_5
REMARK    4  A    between atoms: N_12  and  C_13
REMARK    5  A    between atoms: C_18  and  S_19
REMARK    6  A    between atoms: S_19  and  C_20
REMARK    7  A    between atoms: C_20  and  C_21
REMARK                            x       y       z     vdW  Elec       q    Type
REMARK                         _______ _______ _______ _____ _____    ______ ____
ROOT
ATOM      1  C   UNL     1       0.562   9.267  20.215  0.00  0.00    +0.000 A 
ATOM      2  C   UNL     1       0.706   9.869  18.961  0.00  0.00    +0.000 A 
ATOM      3  C   UNL     1       1.580   9.351  17.996  0.00  0.00    +0.000 A 
ATOM      4  C   UNL     1       2.329   8.198  18.280  0.00  0.00    +0.000 A 
ATOM      5  N   UNL     1       3.176   7.549  17.400  0.00  0.00    +0.000 NA
ATOM      6  C   UNL     1       3.711   6.511  17.996  0.00  0.00    +0.000 A 
ATOM      7  S   UNL     1       3.243   6.244  19.620  0.00  0.00    +0.000 S 
ATOM      8  C   UNL     1       2.215   7.627  19.549  0.00  0.00    +0.000 A 
ATOM      9  C   UNL     1       1.358   8.157  20.538  0.00  0.00    +0.000 A 
ENDROOT
BRANCH   1  12
ATOM     10  O   UNL     1       0.633  11.780  21.733  0.00  0.00    +0.000 OA
ATOM     11  C   UNL     1      -0.219  10.913  21.922  0.00  0.00    +0.000 C 
ATOM     12  N   UNL     1      -0.352   9.740  21.189  0.00  0.00    +0.000 N 
ATOM     13  H   UNL     1      -1.242   9.258  21.259  0.00  0.00    +0.000 HD
BRANCH  11  14
ATOM     14  C   UNL     1      -1.227  11.063  23.064  0.00  0.00    +0.000 C 
BRANCH  14  15
ATOM     15  O   UNL     1      -1.671  12.403  23.229  0.00  0.00    +0.000 OA
BRANCH  15  16
ATOM     16  C   UNL     1      -3.029  12.595  23.152  0.00  0.00    +0.000 A 
ATOM     17  C   UNL     1      -3.907  12.646  24.239  0.00  0.00    +0.000 A 
ATOM     18  C   UNL     1      -5.279  12.837  24.037  0.00  0.00    +0.000 A 
ATOM     19  C   UNL     1      -5.777  12.986  22.745  0.00  0.00    +0.000 A 
ATOM     20 CL   UNL     1      -7.465  13.201  22.501  0.00  0.00    +0.000 Cl
ATOM     21  C   UNL     1      -4.910  12.963  21.656  0.00  0.00    +0.000 A 
ATOM     22  C   UNL     1      -3.539  12.777  21.861  0.00  0.00    +0.000 A 
ENDBRANCH  15  16
ENDBRANCH  14  15
ENDBRANCH  11  14
ENDBRANCH   1  12
BRANCH   6  23
ATOM     23  S   UNL     1       4.801   5.440  17.144  0.00  0.00    +0.000 S 
BRANCH  23  24
ATOM     24  C   UNL     1       3.975   3.846  17.422  0.00  0.00    +0.000 C 
BRANCH  24  25
ATOM     25  C   UNL     1       4.140   3.330  18.850  0.00  0.00    +0.000 C 
ATOM     26  O   UNL     1       5.235   3.231  19.411  0.00  0.00    +0.000 OA
ATOM     27  N   UNL     1       2.980   3.002  19.523  0.00  0.00    +0.000 N 
ATOM     28  C   UNL     1       1.609   3.065  19.055  0.00  0.00    +0.000 C 
ATOM     29  C   UNL     1       0.828   3.351  20.326  0.00  0.00    +0.000 C 
ATOM     30  C   UNL     1       1.589   2.569  21.394  0.00  0.00    +0.000 C 
ATOM     31  C   UNL     1       3.033   2.548  20.903  0.00  0.00    +0.000 C 
ENDBRANCH  24  25
ENDBRANCH  23  24
ENDBRANCH   6  23
TORSDOF 7
ENDMDL
MODEL 4
REMARK VINA RESULT:      -8.2      6.404      9.408
REMARK  Name = 
REMARK  7 active torsions:
REMARK  status: ('A' for Active; 'I' for Inactive)
REMARK    1  A    between atoms: C_2  and  C_3
REMARK    2  A    between atoms: C_3  and  O_4
REMARK    3  A    between atoms: O_4  and  C_5
REMARK    4  A    between atoms: N_12  and  C_13
REMARK    5  A    between atoms: C_18  and  S_19
REMARK    6  A    between atoms: S_19  and  C_20
REMARK    7  A    between atoms: C_20  and  C_21
REMARK                            x       y       z     vdW  Elec       q    Type
REMARK                         _______ _______ _______ _____ _____    ______ ____
ROOT
ATOM      1  C   UNL     1       0.930   9.441  19.208  0.00  0.00    +0.000 A 
ATOM      2  C   UNL     1       0.944   8.664  20.370  0.00  0.00    +0.000 A 
ATOM      3  C   UNL     1       1.770   7.538  20.490  0.00  0.00    +0.000 A 
ATOM      4  C   UNL     1       2.613   7.176  19.427  0.00  0.00    +0.000 A 
ATOM      5  N   UNL     1       3.520   6.133  19.437  0.00  0.00    +0.000 NA
ATOM      6  C   UNL     1       4.137   6.081  18.282  0.00  0.00    +0.000 A 
ATOM      7  S   UNL     1       3.685   7.259  17.127  0.00  0.00    +0.000 S 
ATOM      8  C   UNL     1       2.563   7.929  18.252  0.00  0.00    +0.000 A 
ATOM      9  C   UNL     1       1.714   9.048  18.111  0.00  0.00    +0.000 A 
ENDROOT
BRANCH   1  12
ATOM     10  O   UNL     1      -1.615   9.797  17.788  0.00  0.00    +0.000 OA
ATOM     11  C   UNL     1      -1.023  10.727  18.332  0.00  0.00    +0.000 C 
ATOM     12  N   UNL     1       0.142  10.612  19.080  0.00  0.00    +0.000 N 
ATOM     13  H   UNL     1       0.368  11.388  19.694  0.00  0.00    +0.000 HD
BRANCH  11  14
ATOM     14  C   UNL     1      -1.540  12.160  18.185  0.00  0.00    +0.000 C 
BRANCH  14  15
ATOM     15  O   UNL     1      -1.883  12.747  19.433  0.00  0.00    +0.000 OA
BRANCH  15  16
ATOM     16  C   UNL     1      -3.183  12.569  19.840  0.00  0.00    +0.000 A 
ATOM     17  C   UNL     1      -4.232  12.112  19.036  0.00  0.00    +0.000 A 
ATOM     18  C   UNL     1      -5.524  11.981  19.560  0.00  0.00    +0.000 A 
ATOM     19  C   UNL     1      -5.769  12.298  20.893  0.00  0.00    +0.000 A 
ATOM     20 CL   UNL     1      -7.361  12.153  21.526  0.00  0.00    +0.000 Cl
ATOM     21  C   UNL     1      -4.727  12.729  21.711  0.00  0.00    +0.000 A 
ATOM     22  C   UNL     1      -3.437  12.855  21.186  0.00  0.00    +0.000 A 
ENDBRANCH  15  16
ENDBRANCH  14  15
ENDBRANCH  11  14
ENDBRANCH   1  12
BRANCH   6  23
ATOM     23  S   UNL     1       5.390   4.897  17.976  0.00  0.00    +0.000 S 
BRANCH  23  24
ATOM     24  C   UNL     1       4.406   3.370  17.991  0.00  0.00    +0.000 C 
BRANCH  24  25
ATOM     25  C   UNL     1       4.210   2.801  19.394  0.00  0.00    +0.000 C 
ATOM     26  O   UNL     1       5.136   2.362  20.082  0.00  0.00    +0.000 OA
ATOM     27  N   UNL     1       2.923   2.829  19.896  0.00  0.00    +0.000 N 
ATOM     28  C   UNL     1       1.713   3.317  19.264  0.00  0.00    +0.000 C 
ATOM     29  C   UNL     1       0.886   3.803  20.442  0.00  0.00    +0.000 C 
ATOM     30  C   UNL     1       1.223   2.806  21.548  0.00  0.00    +0.000 C 
ATOM     31  C   UNL     1       2.647   2.354  21.241  0.00  0.00    +0.000 C 
ENDBRANCH  24  25
ENDBRANCH  23  24
ENDBRANCH   6  23
TORSDOF 7
ENDMDL
MODEL 5
REMARK VINA RESULT:      -8.0      7.017      9.987
REMARK  Name = 
REMARK  7 active torsions:
REMARK  status: ('A' for Active; 'I' for Inactive)
REMARK    1  A    between atoms: C_2  and  C_3
REMARK    2  A    between atoms: C_3  and  O_4
REMARK    3  A    between atoms: O_4  and  C_5
REMARK    4  A    between atoms: N_12  and  C_13
REMARK    5  A    between atoms: C_18  and  S_19
REMARK    6  A    between atoms: S_19  and  C_20
REMARK    7  A    between atoms: C_20  and  C_21
REMARK                            x       y       z     vdW  Elec       q    Type
REMARK                         _______ _______ _______ _____ _____    ______ ____
ROOT
ATOM      1  C   UNL     1       0.172   9.688  20.189  0.00  0.00    +0.000 A 
ATOM      2  C   UNL     1       0.384   8.725  21.179  0.00  0.00    +0.000 A 
ATOM      3  C   UNL     1       1.314   7.690  21.008  0.00  0.00    +0.000 A 
ATOM      4  C   UNL     1       2.061   7.612  19.821  0.00  0.00    +0.000 A 
ATOM      5  N   UNL     1       3.050   6.686  19.551  0.00  0.00    +0.000 NA
ATOM      6  C   UNL     1       3.536   6.904  18.353  0.00  0.00    +0.000 A 
ATOM      7  S   UNL     1       2.855   8.213  17.485  0.00  0.00    +0.000 S 
ATOM      8  C   UNL     1       1.813   8.551  18.817  0.00  0.00    +0.000 A 
ATOM      9  C   UNL     1       0.859   9.580  18.969  0.00  0.00    +0.000 A 
ENDROOT
BRANCH   1  12
ATOM     10  O   UNL     1       0.446  12.048  21.914  0.00  0.00    +0.000 OA
ATOM     11  C   UNL     1      -0.562  11.827  21.246  0.00  0.00    +0.000 C 
ATOM     12  N   UNL     1      -0.724  10.773  20.356  0.00  0.00    +0.000 N 
ATOM     13  H   UNL     1      -1.473  10.861  19.677  0.00  0.00    +0.000 HD
BRANCH  11  14
ATOM     14  C   UNL     1      -1.789  12.733  21.383  0.00  0.00    +0.000 C 
BRANCH  14  15
ATOM     15  O   UNL     1      -2.056  13.089  22.732  0.00  0.00    +0.000 OA
BRANCH  15  16
ATOM     16  C   UNL     1      -3.382  13.241  23.058  0.00  0.00    +0.000 A 
ATOM     17  C   UNL     1      -4.283  14.103  22.425  0.00  0.00    +0.000 A 
ATOM     18  C   UNL     1      -5.613  14.181  22.853  0.00  0.00    +0.000 A 
ATOM     19  C   UNL     1      -6.050  13.390  23.912  0.00  0.00    +0.000 A 
ATOM     20 CL   UNL     1      -7.680  13.503  24.446  0.00  0.00    +0.000 Cl
ATOM     21  C   UNL     1      -5.170  12.508  24.535  0.00  0.00    +0.000 A 
ATOM     22  C   UNL     1      -3.842  12.429  24.101  0.00  0.00    +0.000 A 
ENDBRANCH  15  16
ENDBRANCH  14  15
ENDBRANCH  11  14
ENDBRANCH   1  12
BRANCH   6  23
ATOM     23  S   UNL     1       4.844   5.933  17.715  0.00  0.00    +0.000 S 
BRANCH  23  24
ATOM     24  C   UNL     1       4.045   4.302  17.664  0.00  0.00    +0.000 C 
BRANCH  24  25
ATOM     25  C   UNL     1       4.106   3.567  19.001  0.00  0.00    +0.000 C 
ATOM     26  O   UNL     1       5.164   3.249  19.551  0.00  0.00    +0.000 OA
ATOM     27  N   UNL     1       2.896   3.292  19.608  0.00  0.00    +0.000 N 
ATOM     28  C   UNL     1       1.557   3.596  19.142  0.00  0.00    +0.000 C 
ATOM     29  C   UNL     1       0.783   3.790  20.435  0.00  0.00    +0.000 C 
ATOM     30  C   UNL     1       1.412   2.771  21.382  0.00  0.00    +0.000 C 
ATOM     31  C   UNL     1       2.855   2.639  20.905  0.00  0.00    +0.000 C 
ENDBRANCH  24  25
ENDBRANCH  23  24
ENDBRANCH   6  23
TORSDOF 7
ENDMDL
MODEL 6
REMARK VINA RESULT:      -7.9      5.894      8.808
REMARK  Name = 
REMARK  7 active torsions:
REMARK  status: ('A' for Active; 'I' for Inactive)
REMARK    1  A    between atoms: C_2  and  C_3
REMARK    2  A    between atoms: C_3  and  O_4
REMARK    3  A    between atoms: O_4  and  C_5
REMARK    4  A    between atoms: N_12  and  C_13
REMARK    5  A    between atoms: C_18  and  S_19
REMARK    6  A    between atoms: S_19  and  C_20
REMARK    7  A    between atoms: C_20  and  C_21
REMARK                            x       y       z     vdW  Elec       q    Type
REMARK                         _______ _______ _______ _____ _____    ______ ____
ROOT
ATOM      1  C   UNL     1       2.226   7.216  19.830  0.00  0.00    +0.000 A 
ATOM      2  C   UNL     1       2.189   8.022  18.688  0.00  0.00    +0.000 A 
ATOM      3  C   UNL     1       1.553   9.271  18.693  0.00  0.00    +0.000 A 
ATOM      4  C   UNL     1       0.943   9.738  19.869  0.00  0.00    +0.000 A 
ATOM      5  N   UNL     1       0.340  10.972  20.029  0.00  0.00    +0.000 NA
ATOM      6  C   UNL     1      -0.125  11.075  21.250  0.00  0.00    +0.000 A 
ATOM      7  S   UNL     1       0.126   9.726  22.273  0.00  0.00    +0.000 S 
ATOM      8  C   UNL     1       0.944   8.910  20.993  0.00  0.00    +0.000 A 
ATOM      9  C   UNL     1       1.557   7.638  20.990  0.00  0.00    +0.000 A 
ENDROOT
BRANCH   1  12
ATOM     10  O   UNL     1       1.594   4.736  18.390  0.00  0.00    +0.000 OA
ATOM     11  C   UNL     1       2.509   4.814  19.208  0.00  0.00    +0.000 C 
ATOM     12  N   UNL     1       2.905   5.972  19.866  0.00  0.00    +0.000 N 
ATOM     13  H   UNL     1       3.826   5.962  20.290  0.00  0.00    +0.000 HD
BRANCH  11  14
ATOM     14  C   UNL     1       3.295   3.562  19.605  0.00  0.00    +0.000 C 
BRANCH  14  15
ATOM     15  O   UNL     1       4.701   3.767  19.574  0.00  0.00    +0.000 OA
BRANCH  15  16
ATOM     16  C   UNL     1       5.244   3.992  18.333  0.00  0.00    +0.000 A 
ATOM     17  C   UNL     1       4.763   3.472  17.127  0.00  0.00    +0.000 A 
ATOM     18  C   UNL     1       5.409   3.761  15.920  0.00  0.00    +0.000 A 
ATOM     19  C   UNL     1       6.534   4.580  15.913  0.00  0.00    +0.000 A 
ATOM     20 CL   UNL     1       7.335   4.917  14.429  0.00  0.00    +0.000 Cl
ATOM     21  C   UNL     1       7.009   5.126  17.103  0.00  0.00    +0.000 A 
ATOM     22  C   UNL     1       6.358   4.839  18.308  0.00  0.00    +0.000 A 
ENDBRANCH  15  16
ENDBRANCH  14  15
ENDBRANCH  11  14
ENDBRANCH   1  12
BRANCH   6  23
ATOM     23  S   UNL     1      -0.910  12.539  21.801  0.00  0.00    +0.000 S 
BRANCH  23  24
ATOM     24  C   UNL     1      -1.679  13.099  20.252  0.00  0.00    +0.000 C 
BRANCH  24  25
ATOM     25  C   UNL     1      -3.122  12.626  20.098  0.00  0.00    +0.000 C 
ATOM     26  O   UNL     1      -4.012  12.894  20.910  0.00  0.00    +0.000 OA
ATOM     27  N   UNL     1      -3.412  11.893  18.964  0.00  0.00    +0.000 N 
ATOM     28  C   UNL     1      -2.523  11.492  17.890  0.00  0.00    +0.000 C 
ATOM     29  C   UNL     1      -3.446  11.447  16.685  0.00  0.00    +0.000 C 
ATOM     30  C   UNL     1      -4.765  10.943  17.265  0.00  0.00    +0.000 C 
ATOM     31  C   UNL     1      -4.768  11.440  18.707  0.00  0.00    +0.000 C 
ENDBRANCH  24  25
ENDBRANCH  23  24
ENDBRANCH   6  23
TORSDOF 7
ENDMDL
MODEL 7
REMARK VINA RESULT:      -7.9      6.581      9.183
REMARK  Name = 
REMARK  7 active torsions:
REMARK  status: ('A' for Active; 'I' for Inactive)
REMARK    1  A    between atoms: C_2  and  C_3
REMARK    2  A    between atoms: C_3  and  O_4
REMARK    3  A    between atoms: O_4  and  C_5
REMARK    4  A    between atoms: N_12  and  C_13
REMARK    5  A    between atoms: C_18  and  S_19
REMARK    6  A    between atoms: S_19  and  C_20
REMARK    7  A    between atoms: C_20  and  C_21
REMARK                            x       y       z     vdW  Elec       q    Type
REMARK                         _______ _______ _______ _____ _____    ______ ____
ROOT
ATOM      1  C   UNL     1       2.353   7.499  19.277  0.00  0.00    +0.000 A 
ATOM      2  C   UNL     1       2.158   8.245  18.112  0.00  0.00    +0.000 A 
ATOM      3  C   UNL     1       1.336   9.381  18.097  0.00  0.00    +0.000 A 
ATOM      4  C   UNL     1       0.693   9.792  19.277  0.00  0.00    +0.000 A 
ATOM      5  N   UNL     1      -0.089  10.922  19.416  0.00  0.00    +0.000 NA
ATOM      6  C   UNL     1      -0.530  10.998  20.648  0.00  0.00    +0.000 A 
ATOM      7  S   UNL     1      -0.043   9.744  21.706  0.00  0.00    +0.000 S 
ATOM      8  C   UNL     1       0.856   9.017  20.427  0.00  0.00    +0.000 A 
ATOM      9  C   UNL     1       1.660   7.856  20.445  0.00  0.00    +0.000 A 
ENDROOT
BRANCH   1  12
ATOM     10  O   UNL     1       1.704   4.659  18.908  0.00  0.00    +0.000 OA
ATOM     11  C   UNL     1       2.829   5.049  19.214  0.00  0.00    +0.000 C 
ATOM     12  N   UNL     1       3.218   6.377  19.331  0.00  0.00    +0.000 N 
ATOM     13  H   UNL     1       4.215   6.564  19.313  0.00  0.00    +0.000 HD
BRANCH  11  14
ATOM     14  C   UNL     1       3.931   4.037  19.539  0.00  0.00    +0.000 C 
BRANCH  14  15
ATOM     15  O   UNL     1       5.233   4.550  19.290  0.00  0.00    +0.000 OA
BRANCH  15  16
ATOM     16  C   UNL     1       5.664   4.477  17.988  0.00  0.00    +0.000 A 
ATOM     17  C   UNL     1       6.939   4.826  17.531  0.00  0.00    +0.000 A 
ATOM     18  C   UNL     1       7.261   4.720  16.173  0.00  0.00    +0.000 A 
ATOM     19  C   UNL     1       6.311   4.257  15.267  0.00  0.00    +0.000 A 
ATOM     20 CL   UNL     1       6.707   4.147  13.597  0.00  0.00    +0.000 Cl
ATOM     21  C   UNL     1       5.047   3.881  15.712  0.00  0.00    +0.000 A 
ATOM     22  C   UNL     1       4.729   3.983  17.071  0.00  0.00    +0.000 A 
ENDBRANCH  15  16
ENDBRANCH  14  15
ENDBRANCH  11  14
ENDBRANCH   1  12
BRANCH   6  23
ATOM     23  S   UNL     1      -1.517  12.343  21.177  0.00  0.00    +0.000 S 
BRANCH  23  24
ATOM     24  C   UNL     1      -2.712  12.427  19.811  0.00  0.00    +0.000 C 
BRANCH  24  25
ATOM     25  C   UNL     1      -4.147  12.644  20.287  0.00  0.00    +0.000 C 
ATOM     26  O   UNL     1      -4.430  13.063  21.413  0.00  0.00    +0.000 OA
ATOM     27  N   UNL     1      -5.146  12.378  19.371  0.00  0.00    +0.000 N 
ATOM     28  C   UNL     1      -5.024  11.902  18.006  0.00  0.00    +0.000 C 
ATOM     29  C   UNL     1      -6.230  12.522  17.322  0.00  0.00    +0.000 C 
ATOM     30  C   UNL     1      -7.307  12.492  18.403  0.00  0.00    +0.000 C 
ATOM     31  C   UNL     1      -6.539  12.601  19.717  0.00  0.00    +0.000 C 
ENDBRANCH  24  25
ENDBRANCH  23  24
ENDBRANCH   6  23
TORSDOF 7
ENDMDL
MODEL 8
REMARK VINA RESULT:      -7.8      6.141      9.533
REMARK  Name = 
REMARK  7 active torsions:
REMARK  status: ('A' for Active; 'I' for Inactive)
REMARK    1  A    between atoms: C_2  and  C_3
REMARK    2  A    between atoms: C_3  and  O_4
REMARK    3  A    between atoms: O_4  and  C_5
REMARK    4  A    between atoms: N_12  and  C_13
REMARK    5  A    between atoms: C_18  and  S_19
REMARK    6  A    between atoms: S_19  and  C_20
REMARK    7  A    between atoms: C_20  and  C_21
REMARK                            x       y       z     vdW  Elec       q    Type
REMARK                         _______ _______ _______ _____ _____    ______ ____
ROOT
ATOM      1  C   UNL     1       1.320   8.974  19.443  0.00  0.00    +0.000 A 
ATOM      2  C   UNL     1       1.194   8.140  20.557  0.00  0.00    +0.000 A 
ATOM      3  C   UNL     1       1.910   6.939  20.658  0.00  0.00    +0.000 A 
ATOM      4  C   UNL     1       2.782   6.558  19.626  0.00  0.00    +0.000 A 
ATOM      5  N   UNL     1       3.592   5.438  19.627  0.00  0.00    +0.000 NA
ATOM      6  C   UNL     1       4.272   5.390  18.507  0.00  0.00    +0.000 A 
ATOM      7  S   UNL     1       3.996   6.664  17.398  0.00  0.00    +0.000 S 
ATOM      8  C   UNL     1       2.870   7.373  18.495  0.00  0.00    +0.000 A 
ATOM      9  C   UNL     1       2.132   8.570  18.371  0.00  0.00    +0.000 A 
ENDROOT
BRANCH   1  12
ATOM     10  O   UNL     1      -0.774  10.081  21.179  0.00  0.00    +0.000 OA
ATOM     11  C   UNL     1      -0.388  10.649  20.159  0.00  0.00    +0.000 C 
ATOM     12  N   UNL     1       0.646  10.217  19.339  0.00  0.00    +0.000 N 
ATOM     13  H   UNL     1       1.042  10.903  18.705  0.00  0.00    +0.000 HD
BRANCH  11  14
ATOM     14  C   UNL     1      -1.083  11.926  19.680  0.00  0.00    +0.000 C 
BRANCH  14  15
ATOM     15  O   UNL     1      -2.464  11.727  19.411  0.00  0.00    +0.000 OA
BRANCH  15  16
ATOM     16  C   UNL     1      -2.766  11.261  18.155  0.00  0.00    +0.000 A 
ATOM     17  C   UNL     1      -1.943  10.448  17.368  0.00  0.00    +0.000 A 
ATOM     18  C   UNL     1      -2.353  10.043  16.093  0.00  0.00    +0.000 A 
ATOM     19  C   UNL     1      -3.593  10.443  15.602  0.00  0.00    +0.000 A 
ATOM     20 CL   UNL     1      -4.083   9.959  14.026  0.00  0.00    +0.000 Cl
ATOM     21  C   UNL     1      -4.432  11.232  16.384  0.00  0.00    +0.000 A 
ATOM     22  C   UNL     1      -4.022  11.631  17.661  0.00  0.00    +0.000 A 
ENDBRANCH  15  16
ENDBRANCH  14  15
ENDBRANCH  11  14
ENDBRANCH   1  12
BRANCH   6  23
ATOM     23  S   UNL     1       5.433   4.116  18.205  0.00  0.00    +0.000 S 
BRANCH  23  24
ATOM     24  C   UNL     1       5.259   3.938  16.404  0.00  0.00    +0.000 C 
BRANCH  24  25
ATOM     25  C   UNL     1       6.454   4.493  15.633  0.00  0.00    +0.000 C 
ATOM     26  O   UNL     1       7.452   4.970  16.182  0.00  0.00    +0.000 OA
ATOM     27  N   UNL     1       6.392   4.407  14.256  0.00  0.00    +0.000 N 
ATOM     28  C   UNL     1       5.331   3.869  13.427  0.00  0.00    +0.000 C 
ATOM     29  C   UNL     1       6.081   3.342  12.215  0.00  0.00    +0.000 C 
ATOM     30  C   UNL     1       7.213   4.350  12.033  0.00  0.00    +0.000 C 
ATOM     31  C   UNL     1       7.503   4.864  13.439  0.00  0.00    +0.000 C 
ENDBRANCH  24  25
ENDBRANCH  23  24
ENDBRANCH   6  23
TORSDOF 7
ENDMDL
MODEL 9
REMARK VINA RESULT:      -7.8      5.810      8.818
REMARK  Name = 
REMARK  7 active torsions:
REMARK  status: ('A' for Active; 'I' for Inactive)
REMARK    1  A    between atoms: C_2  and  C_3
REMARK    2  A    between atoms: C_3  and  O_4
REMARK    3  A    between atoms: O_4  and  C_5
REMARK    4  A    between atoms: N_12  and  C_13
REMARK    5  A    between atoms: C_18  and  S_19
REMARK    6  A    between atoms: S_19  and  C_20
REMARK    7  A    between atoms: C_20  and  C_21
REMARK                            x       y       z     vdW  Elec       q    Type
REMARK                         _______ _______ _______ _____ _____    ______ ____
ROOT
ATOM      1  C   UNL     1       2.111   7.593  19.731  0.00  0.00    +0.000 A 
ATOM      2  C   UNL     1       1.917   8.390  18.599  0.00  0.00    +0.000 A 
ATOM      3  C   UNL     1       1.117   9.541  18.640  0.00  0.00    +0.000 A 
ATOM      4  C   UNL     1       0.497   9.916  19.843  0.00  0.00    +0.000 A 
ATOM      5  N   UNL     1      -0.261  11.055  20.038  0.00  0.00    +0.000 NA
ATOM      6  C   UNL     1      -0.686  11.090  21.278  0.00  0.00    +0.000 A 
ATOM      7  S   UNL     1      -0.211   9.784  22.278  0.00  0.00    +0.000 S 
ATOM      8  C   UNL     1       0.658   9.092  20.960  0.00  0.00    +0.000 A 
ATOM      9  C   UNL     1       1.438   7.916  20.920  0.00  0.00    +0.000 A 
ENDROOT
BRANCH   1  12
ATOM     10  O   UNL     1       1.851   5.119  18.171  0.00  0.00    +0.000 OA
ATOM     11  C   UNL     1       2.732   5.284  19.013  0.00  0.00    +0.000 C 
ATOM     12  N   UNL     1       2.953   6.454  19.728  0.00  0.00    +0.000 N 
ATOM     13  H   UNL     1       3.860   6.551  20.173  0.00  0.00    +0.000 HD
BRANCH  11  14
ATOM     14  C   UNL     1       3.676   4.135  19.373  0.00  0.00    +0.000 C 
BRANCH  14  15
ATOM     15  O   UNL     1       5.042   4.527  19.362  0.00  0.00    +0.000 OA
BRANCH  15  16
ATOM     16  C   UNL     1       5.604   4.697  18.120  0.00  0.00    +0.000 A 
ATOM     17  C   UNL     1       6.573   5.650  17.788  0.00  0.00    +0.000 A 
ATOM     18  C   UNL     1       7.065   5.737  16.481  0.00  0.00    +0.000 A 
ATOM     19  C   UNL     1       6.596   4.866  15.502  0.00  0.00    +0.000 A 
ATOM     20 CL   UNL     1       7.191   4.990  13.893  0.00  0.00    +0.000 Cl
ATOM     21  C   UNL     1       5.651   3.896  15.824  0.00  0.00    +0.000 A 
ATOM     22  C   UNL     1       5.164   3.807  17.133  0.00  0.00    +0.000 A 
ENDBRANCH  15  16
ENDBRANCH  14  15
ENDBRANCH  11  14
ENDBRANCH   1  12
BRANCH   6  23
ATOM     23  S   UNL     1      -1.640  12.431  21.873  0.00  0.00    +0.000 S 
BRANCH  23  24
ATOM     24  C   UNL     1      -0.967  13.783  20.862  0.00  0.00    +0.000 C 
BRANCH  24  25
ATOM     25  C   UNL     1       0.489  14.104  21.190  0.00  0.00    +0.000 C 
ATOM     26  O   UNL     1       0.904  14.265  22.341  0.00  0.00    +0.000 OA
ATOM     27  N   UNL     1       1.360  14.174  20.120  0.00  0.00    +0.000 N 
ATOM     28  C   UNL     1       1.080  13.998  18.708  0.00  0.00    +0.000 C 
ATOM     29  C   UNL     1       2.382  13.429  18.172  0.00  0.00    +0.000 C 
ATOM     30  C   UNL     1       3.449  14.142  18.999  0.00  0.00    +0.000 C 
ATOM     31  C   UNL     1       2.774  14.426  20.337  0.00  0.00    +0.000 C 
ENDBRANCH  24  25
ENDBRANCH  23  24
ENDBRANCH   6  23
TORSDOF 7
ENDMDL
