MODEL 1
REMARK VINA RESULT:      -7.1      0.000      0.000
REMARK  Name = 
REMARK  9 active torsions:
REMARK  status: ('A' for Active; 'I' for Inactive)
REMARK    1  A    between atoms: N_1  and  CA_2
REMARK    2  A    between atoms: CA_2  and  C_3
REMARK    3  A    between atoms: CA_2  and  C_6
REMARK    4  A    between atoms: C_3  and  OXT_5
REMARK    5  A    between atoms: C_6  and  C_7
REMARK    6  A    between atoms: C_6  and  C_17
REMARK    7  A    between atoms: C_7  and  C_8
REMARK    8  A    between atoms: C_11  and  N_12
REMARK    9  A    between atoms: C_17  and  O_19
REMARK                            x       y       z     vdW  Elec       q    Type
REMARK                         _______ _______ _______ _____ _____    ______ ____
ROOT
ATOM      1  C   UNL     1       6.140   5.347  16.988  0.00  0.00    +0.000 C 
ENDROOT
BRANCH   1   2
ATOM      2  C   UNL     1       6.261   5.744  15.525  0.00  0.00    +0.000 C 
ATOM      3  O   UNL     1       7.181   5.407  14.794  0.00  0.00    +0.000 OA
BRANCH   2   4
ATOM      4  O   UNL     1       5.250   6.513  15.071  0.00  0.00    +0.000 OA
ATOM      5  H   UNL     1       5.253   7.442  15.366  0.00  0.00    +0.000 HD
ENDBRANCH   2   4
ENDBRANCH   1   2
BRANCH   1   6
ATOM      6  CA  UNL     1       7.561   5.363  17.613  0.00  0.00    +0.000 C 
BRANCH   6   7
ATOM      7  N   UNL     1       8.226   4.026  17.663  0.00  0.00    +0.000 NA
ATOM      8  H1  UNL     1       9.057   4.042  17.063  0.00  0.00    +0.000 HD
ATOM      9  H2  UNL     1       7.598   3.320  17.269  0.00  0.00    +0.000 HD
ENDBRANCH   6   7
BRANCH   6  10
ATOM     10  C   UNL     1       7.645   5.876  19.062  0.00  0.00    +0.000 C 
ATOM     11  O   UNL     1       7.146   5.352  20.049  0.00  0.00    +0.000 OA
BRANCH  10  12
ATOM     12  OXT UNL     1       8.395   7.006  19.123  0.00  0.00    +0.000 OA
ATOM     13  HXT UNL     1       9.342   6.722  19.186  0.00  0.00    +0.000 HD
ENDBRANCH  10  12
ENDBRANCH   6  10
ENDBRANCH   1   6
BRANCH   1  14
ATOM     14  C   UNL     1       5.097   6.289  17.654  0.00  0.00    +0.000 C 
BRANCH  14  15
ATOM     15  C   UNL     1       3.851   5.584  18.151  0.00  0.00    +0.000 A 
ATOM     16  C   UNL     1       3.358   5.837  19.443  0.00  0.00    +0.000 A 
ATOM     17  C   UNL     1       2.372   5.020  19.996  0.00  0.00    +0.000 A 
ATOM     18  C   UNL     1       1.866   3.952  19.248  0.00  0.00    +0.000 A 
ATOM     19  C   UNL     1       2.276   3.753  17.924  0.00  0.00    +0.000 A 
ATOM     20  C   UNL     1       3.256   4.581  17.375  0.00  0.00    +0.000 A 
BRANCH  18  21
ATOM     21  N   UNL     1       0.941   2.999  19.874  0.00  0.00    +0.000 N 
ATOM     22  O   UNL     1       0.158   2.384  19.137  0.00  0.00    +0.000 OA
ATOM     23  O   UNL     1       0.986   2.879  21.107  0.00  0.00    +0.000 OA
ENDBRANCH  18  21
ENDBRANCH  14  15
ENDBRANCH   1  14
TORSDOF 9
ENDMDL
MODEL 2
REMARK VINA RESULT:      -7.0      2.024      6.276
REMARK  Name = 
REMARK  9 active torsions:
REMARK  status: ('A' for Active; 'I' for Inactive)
REMARK    1  A    between atoms: N_1  and  CA_2
REMARK    2  A    between atoms: CA_2  and  C_3
REMARK    3  A    between atoms: CA_2  and  C_6
REMARK    4  A    between atoms: C_3  and  OXT_5
REMARK    5  A    between atoms: C_6  and  C_7
REMARK    6  A    between atoms: C_6  and  C_17
REMARK    7  A    between atoms: C_7  and  C_8
REMARK    8  A    between atoms: C_11  and  N_12
REMARK    9  A    between atoms: C_17  and  O_19
REMARK                            x       y       z     vdW  Elec       q    Type
REMARK                         _______ _______ _______ _____ _____    ______ ____
ROOT
ATOM      1  C   UNL     1       2.673   3.430  19.993  0.00  0.00    +0.000 C 
ENDROOT
BRANCH   1   2
ATOM      2  C   UNL     1       1.572   3.030  20.965  0.00  0.00    +0.000 C 
ATOM      3  O   UNL     1       1.769   2.472  22.034  0.00  0.00    +0.000 OA
BRANCH   2   4
ATOM      4  O   UNL     1       0.326   3.348  20.558  0.00  0.00    +0.000 OA
ATOM      5  H   UNL     1      -0.404   2.910  21.033  0.00  0.00    +0.000 HD
ENDBRANCH   2   4
ENDBRANCH   1   2
BRANCH   1   6
ATOM      6  CA  UNL     1       2.438   2.674  18.658  0.00  0.00    +0.000 C 
BRANCH   6   7
ATOM      7  N   UNL     1       1.596   1.448  18.786  0.00  0.00    +0.000 NA
ATOM      8  H1  UNL     1       0.620   1.689  18.582  0.00  0.00    +0.000 HD
ATOM      9  H2  UNL     1       1.616   1.121  19.756  0.00  0.00    +0.000 HD
ENDBRANCH   6   7
BRANCH   6  10
ATOM     10  C   UNL     1       3.709   2.181  17.941  0.00  0.00    +0.000 C 
ATOM     11  O   UNL     1       4.378   2.809  17.132  0.00  0.00    +0.000 OA
BRANCH  10  12
ATOM     12  OXT UNL     1       4.031   0.929  18.356  0.00  0.00    +0.000 OA
ATOM     13  HXT UNL     1       3.208   0.381  18.293  0.00  0.00    +0.000 HD
ENDBRANCH  10  12
ENDBRANCH   6  10
ENDBRANCH   1   6
BRANCH   1  14
ATOM     14  C   UNL     1       2.685   4.983  19.900  0.00  0.00    +0.000 C 
BRANCH  14  15
ATOM     15  C   UNL     1       3.875   5.552  19.155  0.00  0.00    +0.000 A 
ATOM     16  C   UNL     1       3.686   6.328  17.998  0.00  0.00    +0.000 A 
ATOM     17  C   UNL     1       4.766   6.643  17.173  0.00  0.00    +0.000 A 
ATOM     18  C   UNL     1       6.045   6.190  17.515  0.00  0.00    +0.000 A 
ATOM     19  C   UNL     1       6.261   5.504  18.716  0.00  0.00    +0.000 A 
ATOM     20  C   UNL     1       5.176   5.202  19.540  0.00  0.00    +0.000 A 
BRANCH  18  21
ATOM     21  N   UNL     1       7.160   6.386  16.579  0.00  0.00    +0.000 N 
ATOM     22  O   UNL     1       7.883   7.378  16.742  0.00  0.00    +0.000 OA
ATOM     23  O   UNL     1       7.300   5.555  15.670  0.00  0.00    +0.000 OA
ENDBRANCH  18  21
ENDBRANCH  14  15
ENDBRANCH   1  14
TORSDOF 9
ENDMDL
MODEL 3
REMARK VINA RESULT:      -6.9      1.223      1.629
REMARK  Name = 
REMARK  9 active torsions:
REMARK  status: ('A' for Active; 'I' for Inactive)
REMARK    1  A    between atoms: N_1  and  CA_2
REMARK    2  A    between atoms: CA_2  and  C_3
REMARK    3  A    between atoms: CA_2  and  C_6
REMARK    4  A    between atoms: C_3  and  OXT_5
REMARK    5  A    between atoms: C_6  and  C_7
REMARK    6  A    between atoms: C_6  and  C_17
REMARK    7  A    between atoms: C_7  and  C_8
REMARK    8  A    between atoms: C_11  and  N_12
REMARK    9  A    between atoms: C_17  and  O_19
REMARK                            x       y       z     vdW  Elec       q    Type
REMARK                         _______ _______ _______ _____ _____    ______ ____
ROOT
ATOM      1  C   UNL     1       5.486   5.875  17.115  0.00  0.00    +0.000 C 
ENDROOT
BRANCH   1   2
ATOM      2  C   UNL     1       5.540   6.015  15.601  0.00  0.00    +0.000 C 
ATOM      3  O   UNL     1       5.096   6.973  14.984  0.00  0.00    +0.000 OA
BRANCH   2   4
ATOM      4  O   UNL     1       6.132   4.984  14.965  0.00  0.00    +0.000 OA
ATOM      5  H   UNL     1       6.039   4.969  13.995  0.00  0.00    +0.000 HD
ENDBRANCH   2   4
ENDBRANCH   1   2
BRANCH   1   6
ATOM      6  CA  UNL     1       6.866   6.296  17.689  0.00  0.00    +0.000 C 
BRANCH   6   7
ATOM      7  N   UNL     1       7.757   6.981  16.706  0.00  0.00    +0.000 NA
ATOM      8  H1  UNL     1       8.281   6.275  16.180  0.00  0.00    +0.000 HD
ATOM      9  H2  UNL     1       8.452   7.541  17.209  0.00  0.00    +0.000 HD
ENDBRANCH   6   7
BRANCH   6  10
ATOM     10  C   UNL     1       7.733   5.150  18.243  0.00  0.00    +0.000 C 
ATOM     11  O   UNL     1       8.130   5.029  19.394  0.00  0.00    +0.000 OA
BRANCH  10  12
ATOM     12  OXT UNL     1       7.988   4.236  17.272  0.00  0.00    +0.000 OA
ATOM     13  HXT UNL     1       8.762   3.697  17.576  0.00  0.00    +0.000 HD
ENDBRANCH  10  12
ENDBRANCH   6  10
ENDBRANCH   1   6
BRANCH   1  14
ATOM     14  C   UNL     1       4.263   6.688  17.627  0.00  0.00    +0.000 C 
BRANCH  14  15
ATOM     15  C   UNL     1       3.212   5.853  18.330  0.00  0.00    +0.000 A 
ATOM     16  C   UNL     1       3.189   5.774  19.734  0.00  0.00    +0.000 A 
ATOM     17  C   UNL     1       2.395   4.823  20.375  0.00  0.00    +0.000 A 
ATOM     18  C   UNL     1       1.609   3.956  19.609  0.00  0.00    +0.000 A 
ATOM     19  C   UNL     1       1.546   4.093  18.217  0.00  0.00    +0.000 A 
ATOM     20  C   UNL     1       2.337   5.053  17.584  0.00  0.00    +0.000 A 
BRANCH  18  21
ATOM     21  N   UNL     1       0.888   2.857  20.264  0.00  0.00    +0.000 N 
ATOM     22  O   UNL     1       1.074   2.686  21.477  0.00  0.00    +0.000 OA
ATOM     23  O   UNL     1       0.148   2.154  19.561  0.00  0.00    +0.000 OA
ENDBRANCH  18  21
ENDBRANCH  14  15
ENDBRANCH   1  14
TORSDOF 9
ENDMDL
MODEL 4
REMARK VINA RESULT:      -6.9      2.332      6.303
REMARK  Name = 
REMARK  9 active torsions:
REMARK  status: ('A' for Active; 'I' for Inactive)
REMARK    1  A    between atoms: N_1  and  CA_2
REMARK    2  A    between atoms: CA_2  and  C_3
REMARK    3  A    between atoms: CA_2  and  C_6
REMARK    4  A    between atoms: C_3  and  OXT_5
REMARK    5  A    between atoms: C_6  and  C_7
REMARK    6  A    between atoms: C_6  and  C_17
REMARK    7  A    between atoms: C_7  and  C_8
REMARK    8  A    between atoms: C_11  and  N_12
REMARK    9  A    between atoms: C_17  and  O_19
REMARK                            x       y       z     vdW  Elec       q    Type
REMARK                         _______ _______ _______ _____ _____    ______ ____
ROOT
ATOM      1  C   UNL     1       3.148   4.274  19.607  0.00  0.00    +0.000 C 
ENDROOT
BRANCH   1   2
ATOM      2  C   UNL     1       1.896   4.694  20.364  0.00  0.00    +0.000 C 
ATOM      3  O   UNL     1       1.566   5.855  20.554  0.00  0.00    +0.000 OA
BRANCH   2   4
ATOM      4  O   UNL     1       1.149   3.668  20.819  0.00  0.00    +0.000 OA
ATOM      5  H   UNL     1       1.602   3.038  21.409  0.00  0.00    +0.000 HD
ENDBRANCH   2   4
ENDBRANCH   1   2
BRANCH   1   6
ATOM      6  CA  UNL     1       2.709   3.632  18.264  0.00  0.00    +0.000 C 
BRANCH   6   7
ATOM      7  N   UNL     1       1.339   4.023  17.814  0.00  0.00    +0.000 NA
ATOM      8  H1  UNL     1       1.210   3.730  16.840  0.00  0.00    +0.000 HD
ATOM      9  H2  UNL     1       1.258   5.044  17.821  0.00  0.00    +0.000 HD
ENDBRANCH   6   7
BRANCH   6  10
ATOM     10  C   UNL     1       2.683   2.093  18.240  0.00  0.00    +0.000 C 
ATOM     11  O   UNL     1       3.629   1.353  18.002  0.00  0.00    +0.000 OA
BRANCH  10  12
ATOM     12  OXT UNL     1       1.446   1.633  18.558  0.00  0.00    +0.000 OA
ATOM     13  HXT UNL     1       1.274   0.841  17.987  0.00  0.00    +0.000 HD
ENDBRANCH  10  12
ENDBRANCH   6  10
ENDBRANCH   1   6
BRANCH   1  14
ATOM     14  C   UNL     1       4.076   5.517  19.492  0.00  0.00    +0.000 C 
BRANCH  14  15
ATOM     15  C   UNL     1       4.957   5.524  18.261  0.00  0.00    +0.000 A 
ATOM     16  C   UNL     1       4.554   6.208  17.101  0.00  0.00    +0.000 A 
ATOM     17  C   UNL     1       5.229   6.016  15.895  0.00  0.00    +0.000 A 
ATOM     18  C   UNL     1       6.322   5.143  15.852  0.00  0.00    +0.000 A 
ATOM     19  C   UNL     1       6.795   4.535  17.021  0.00  0.00    +0.000 A 
ATOM     20  C   UNL     1       6.119   4.741  18.225  0.00  0.00    +0.000 A 
BRANCH  18  21
ATOM     21  N   UNL     1       6.943   4.818  14.562  0.00  0.00    +0.000 N 
ATOM     22  O   UNL     1       7.885   5.526  14.179  0.00  0.00    +0.000 OA
ATOM     23  O   UNL     1       6.475   3.865  13.922  0.00  0.00    +0.000 OA
ENDBRANCH  18  21
ENDBRANCH  14  15
ENDBRANCH   1  14
TORSDOF 9
ENDMDL
MODEL 5
REMARK VINA RESULT:      -6.9      2.374      6.255
REMARK  Name = 
REMARK  9 active torsions:
REMARK  status: ('A' for Active; 'I' for Inactive)
REMARK    1  A    between atoms: N_1  and  CA_2
REMARK    2  A    between atoms: CA_2  and  C_3
REMARK    3  A    between atoms: CA_2  and  C_6
REMARK    4  A    between atoms: C_3  and  OXT_5
REMARK    5  A    between atoms: C_6  and  C_7
REMARK    6  A    between atoms: C_6  and  C_17
REMARK    7  A    between atoms: C_7  and  C_8
REMARK    8  A    between atoms: C_11  and  N_12
REMARK    9  A    between atoms: C_17  and  O_19
REMARK                            x       y       z     vdW  Elec       q    Type
REMARK                         _______ _______ _______ _____ _____    ______ ____
ROOT
ATOM      1  C   UNL     1       3.635   4.062  19.415  0.00  0.00    +0.000 C 
ENDROOT
BRANCH   1   2
ATOM      2  C   UNL     1       4.075   2.635  19.121  0.00  0.00    +0.000 C 
ATOM      3  O   UNL     1       3.547   1.911  18.289  0.00  0.00    +0.000 OA
BRANCH   2   4
ATOM      4  O   UNL     1       5.122   2.212  19.857  0.00  0.00    +0.000 OA
ATOM      5  H   UNL     1       4.935   2.013  20.793  0.00  0.00    +0.000 HD
ENDBRANCH   2   4
ENDBRANCH   1   2
BRANCH   1   6
ATOM      6  CA  UNL     1       2.798   4.051  20.722  0.00  0.00    +0.000 C 
BRANCH   6   7
ATOM      7  N   UNL     1       2.483   2.685  21.238  0.00  0.00    +0.000 NA
ATOM      8  H1  UNL     1       3.352   2.146  21.312  0.00  0.00    +0.000 HD
ATOM      9  H2  UNL     1       1.895   2.193  20.559  0.00  0.00    +0.000 HD
ENDBRANCH   6   7
BRANCH   6  10
ATOM     10  C   UNL     1       1.427   4.745  20.640  0.00  0.00    +0.000 C 
ATOM     11  O   UNL     1       1.208   5.942  20.766  0.00  0.00    +0.000 OA
BRANCH  10  12
ATOM     12  OXT UNL     1       0.453   3.839  20.366  0.00  0.00    +0.000 OA
ATOM     13  HXT UNL     1       0.512   3.132  21.057  0.00  0.00    +0.000 HD
ENDBRANCH  10  12
ENDBRANCH   6  10
ENDBRANCH   1   6
BRANCH   1  14
ATOM     14  C   UNL     1       4.906   4.959  19.431  0.00  0.00    +0.000 C 
BRANCH  14  15
ATOM     15  C   UNL     1       5.547   5.153  18.072  0.00  0.00    +0.000 A 
ATOM     16  C   UNL     1       4.795   5.653  16.996  0.00  0.00    +0.000 A 
ATOM     17  C   UNL     1       5.298   5.601  15.695  0.00  0.00    +0.000 A 
ATOM     18  C   UNL     1       6.568   5.058  15.473  0.00  0.00    +0.000 A 
ATOM     19  C   UNL     1       7.367   4.650  16.548  0.00  0.00    +0.000 A 
ATOM     20  C   UNL     1       6.859   4.715  17.847  0.00  0.00    +0.000 A 
BRANCH  18  21
ATOM     21  N   UNL     1       7.044   4.860  14.099  0.00  0.00    +0.000 N 
ATOM     22  O   UNL     1       7.953   5.595  13.690  0.00  0.00    +0.000 OA
ATOM     23  O   UNL     1       6.495   3.979  13.420  0.00  0.00    +0.000 OA
ENDBRANCH  18  21
ENDBRANCH  14  15
ENDBRANCH   1  14
TORSDOF 9
ENDMDL
MODEL 6
REMARK VINA RESULT:      -6.9      0.957      1.460
REMARK  Name = 
REMARK  9 active torsions:
REMARK  status: ('A' for Active; 'I' for Inactive)
REMARK    1  A    between atoms: N_1  and  CA_2
REMARK    2  A    between atoms: CA_2  and  C_3
REMARK    3  A    between atoms: CA_2  and  C_6
REMARK    4  A    between atoms: C_3  and  OXT_5
REMARK    5  A    between atoms: C_6  and  C_7
REMARK    6  A    between atoms: C_6  and  C_17
REMARK    7  A    between atoms: C_7  and  C_8
REMARK    8  A    between atoms: C_11  and  N_12
REMARK    9  A    between atoms: C_17  and  O_19
REMARK                            x       y       z     vdW  Elec       q    Type
REMARK                         _______ _______ _______ _____ _____    ______ ____
ROOT
ATOM      1  C   UNL     1       6.027   5.392  17.169  0.00  0.00    +0.000 C 
ENDROOT
BRANCH   1   2
ATOM      2  C   UNL     1       5.947   5.897  15.736  0.00  0.00    +0.000 C 
ATOM      3  O   UNL     1       5.140   6.728  15.344  0.00  0.00    +0.000 OA
BRANCH   2   4
ATOM      4  O   UNL     1       6.858   5.356  14.902  0.00  0.00    +0.000 OA
ATOM      5  H   UNL     1       7.622   5.919  14.679  0.00  0.00    +0.000 HD
ENDBRANCH   2   4
ENDBRANCH   1   2
BRANCH   1   6
ATOM      6  CA  UNL     1       7.516   5.411  17.607  0.00  0.00    +0.000 C 
BRANCH   6   7
ATOM      7  N   UNL     1       8.170   4.068  17.620  0.00  0.00    +0.000 NA
ATOM      8  H1  UNL     1       7.446   3.343  17.566  0.00  0.00    +0.000 HD
ATOM      9  H2  UNL     1       8.649   3.932  18.514  0.00  0.00    +0.000 HD
ENDBRANCH   6   7
BRANCH   6  10
ATOM     10  C   UNL     1       7.788   5.972  19.015  0.00  0.00    +0.000 C 
ATOM     11  O   UNL     1       7.548   5.416  20.078  0.00  0.00    +0.000 OA
BRANCH  10  12
ATOM     12  OXT UNL     1       8.379   7.191  18.933  0.00  0.00    +0.000 OA
ATOM     13  HXT UNL     1       8.397   7.442  17.975  0.00  0.00    +0.000 HD
ENDBRANCH  10  12
ENDBRANCH   6  10
ENDBRANCH   1   6
BRANCH   1  14
ATOM     14  C   UNL     1       5.056   6.249  18.031  0.00  0.00    +0.000 C 
BRANCH  14  15
ATOM     15  C   UNL     1       4.204   5.445  18.992  0.00  0.00    +0.000 A 
ATOM     16  C   UNL     1       4.473   4.083  19.213  0.00  0.00    +0.000 A 
ATOM     17  C   UNL     1       3.554   3.282  19.893  0.00  0.00    +0.000 A 
ATOM     18  C   UNL     1       2.366   3.850  20.366  0.00  0.00    +0.000 A 
ATOM     19  C   UNL     1       2.135   5.225  20.240  0.00  0.00    +0.000 A 
ATOM     20  C   UNL     1       3.063   6.020  19.567  0.00  0.00    +0.000 A 
BRANCH  18  21
ATOM     21  N   UNL     1       1.330   2.988  20.947  0.00  0.00    +0.000 N 
ATOM     22  O   UNL     1       0.339   2.725  20.251  0.00  0.00    +0.000 OA
ATOM     23  O   UNL     1       1.499   2.587  22.108  0.00  0.00    +0.000 OA
ENDBRANCH  18  21
ENDBRANCH  14  15
ENDBRANCH   1  14
TORSDOF 9
ENDMDL
MODEL 7
REMARK VINA RESULT:      -6.9      2.104      6.100
REMARK  Name = 
REMARK  9 active torsions:
REMARK  status: ('A' for Active; 'I' for Inactive)
REMARK    1  A    between atoms: N_1  and  CA_2
REMARK    2  A    between atoms: CA_2  and  C_3
REMARK    3  A    between atoms: CA_2  and  C_6
REMARK    4  A    between atoms: C_3  and  OXT_5
REMARK    5  A    between atoms: C_6  and  C_7
REMARK    6  A    between atoms: C_6  and  C_17
REMARK    7  A    between atoms: C_7  and  C_8
REMARK    8  A    between atoms: C_11  and  N_12
REMARK    9  A    between atoms: C_17  and  O_19
REMARK                            x       y       z     vdW  Elec       q    Type
REMARK                         _______ _______ _______ _____ _____    ______ ____
ROOT
ATOM      1  C   UNL     1       2.943   3.659  20.435  0.00  0.00    +0.000 C 
ENDROOT
BRANCH   1   2
ATOM      2  C   UNL     1       1.511   3.556  20.939  0.00  0.00    +0.000 C 
ATOM      3  O   UNL     1       0.569   4.173  20.462  0.00  0.00    +0.000 OA
BRANCH   2   4
ATOM      4  O   UNL     1       1.343   2.709  21.974  0.00  0.00    +0.000 OA
ATOM      5  H   UNL     1       1.942   2.838  22.733  0.00  0.00    +0.000 HD
ENDBRANCH   2   4
ENDBRANCH   1   2
BRANCH   1   6
ATOM      6  CA  UNL     1       3.130   2.626  19.292  0.00  0.00    +0.000 C 
BRANCH   6   7
ATOM      7  N   UNL     1       1.942   1.751  19.054  0.00  0.00    +0.000 NA
ATOM      8  H1  UNL     1       1.919   1.480  18.066  0.00  0.00    +0.000 HD
ATOM      9  H2  UNL     1       1.087   2.285  19.228  0.00  0.00    +0.000 HD
ENDBRANCH   6   7
BRANCH   6  10
ATOM     10  C   UNL     1       4.293   1.634  19.475  0.00  0.00    +0.000 C 
ATOM     11  O   UNL     1       5.110   1.632  20.386  0.00  0.00    +0.000 OA
BRANCH  10  12
ATOM     12  OXT UNL     1       4.285   0.706  18.485  0.00  0.00    +0.000 OA
ATOM     13  HXT UNL     1       3.807   1.106  17.715  0.00  0.00    +0.000 HD
ENDBRANCH  10  12
ENDBRANCH   6  10
ENDBRANCH   1   6
BRANCH   1  14
ATOM     14  C   UNL     1       3.210   5.144  20.057  0.00  0.00    +0.000 C 
BRANCH  14  15
ATOM     15  C   UNL     1       4.187   5.329  18.914  0.00  0.00    +0.000 A 
ATOM     16  C   UNL     1       3.721   5.583  17.612  0.00  0.00    +0.000 A 
ATOM     17  C   UNL     1       4.588   5.506  16.522  0.00  0.00    +0.000 A 
ATOM     18  C   UNL     1       5.933   5.186  16.737  0.00  0.00    +0.000 A 
ATOM     19  C   UNL     1       6.430   5.032  18.037  0.00  0.00    +0.000 A 
ATOM     20  C   UNL     1       5.557   5.120  19.122  0.00  0.00    +0.000 A 
BRANCH  18  21
ATOM     21  N   UNL     1       6.818   4.956  15.588  0.00  0.00    +0.000 N 
ATOM     22  O   UNL     1       6.642   3.927  14.921  0.00  0.00    +0.000 OA
ATOM     23  O   UNL     1       7.701   5.796  15.364  0.00  0.00    +0.000 OA
ENDBRANCH  18  21
ENDBRANCH  14  15
ENDBRANCH   1  14
TORSDOF 9
ENDMDL
MODEL 8
REMARK VINA RESULT:      -6.8      0.935      2.872
REMARK  Name = 
REMARK  9 active torsions:
REMARK  status: ('A' for Active; 'I' for Inactive)
REMARK    1  A    between atoms: N_1  and  CA_2
REMARK    2  A    between atoms: CA_2  and  C_3
REMARK    3  A    between atoms: CA_2  and  C_6
REMARK    4  A    between atoms: C_3  and  OXT_5
REMARK    5  A    between atoms: C_6  and  C_7
REMARK    6  A    between atoms: C_6  and  C_17
REMARK    7  A    between atoms: C_7  and  C_8
REMARK    8  A    between atoms: C_11  and  N_12
REMARK    9  A    between atoms: C_17  and  O_19
REMARK                            x       y       z     vdW  Elec       q    Type
REMARK                         _______ _______ _______ _____ _____    ______ ____
ROOT
ATOM      1  C   UNL     1       6.583   6.113  17.242  0.00  0.00    +0.000 C 
ENDROOT
BRANCH   1   2
ATOM      2  C   UNL     1       7.395   6.306  18.514  0.00  0.00    +0.000 C 
ATOM      3  O   UNL     1       7.367   5.544  19.470  0.00  0.00    +0.000 OA
BRANCH   2   4
ATOM      4  O   UNL     1       8.177   7.405  18.515  0.00  0.00    +0.000 OA
ATOM      5  H   UNL     1       7.732   8.246  18.725  0.00  0.00    +0.000 HD
ENDBRANCH   2   4
ENDBRANCH   1   2
BRANCH   1   6
ATOM      6  CA  UNL     1       6.791   4.655  16.751  0.00  0.00    +0.000 C 
BRANCH   6   7
ATOM      7  N   UNL     1       8.059   4.023  17.223  0.00  0.00    +0.000 NA
ATOM      8  H1  UNL     1       8.254   4.338  18.179  0.00  0.00    +0.000 HD
ATOM      9  H2  UNL     1       8.839   4.353  16.646  0.00  0.00    +0.000 HD
ENDBRANCH   6   7
BRANCH   6  10
ATOM     10  C   UNL     1       6.827   4.467  15.223  0.00  0.00    +0.000 C 
ATOM     11  O   UNL     1       6.193   3.644  14.576  0.00  0.00    +0.000 OA
BRANCH  10  12
ATOM     12  OXT UNL     1       7.652   5.381  14.652  0.00  0.00    +0.000 OA
ATOM     13  HXT UNL     1       8.411   4.880  14.258  0.00  0.00    +0.000 HD
ENDBRANCH  10  12
ENDBRANCH   6  10
ENDBRANCH   1   6
BRANCH   1  14
ATOM     14  C   UNL     1       5.113   6.522  17.548  0.00  0.00    +0.000 C 
BRANCH  14  15
ATOM     15  C   UNL     1       4.260   5.402  18.107  0.00  0.00    +0.000 A 
ATOM     16  C   UNL     1       3.611   4.503  17.243  0.00  0.00    +0.000 A 
ATOM     17  C   UNL     1       2.635   3.633  17.731  0.00  0.00    +0.000 A 
ATOM     18  C   UNL     1       2.316   3.653  19.093  0.00  0.00    +0.000 A 
ATOM     19  C   UNL     1       3.027   4.472  19.979  0.00  0.00    +0.000 A 
ATOM     20  C   UNL     1       4.009   5.332  19.484  0.00  0.00    +0.000 A 
BRANCH  18  21
ATOM     21  N   UNL     1       1.189   2.853  19.588  0.00  0.00    +0.000 N 
ATOM     22  O   UNL     1       0.369   2.435  18.759  0.00  0.00    +0.000 OA
ATOM     23  O   UNL     1       1.116   2.657  20.810  0.00  0.00    +0.000 OA
ENDBRANCH  18  21
ENDBRANCH  14  15
ENDBRANCH   1  14
TORSDOF 9
ENDMDL
MODEL 9
REMARK VINA RESULT:      -6.8      1.584      2.154
REMARK  Name = 
REMARK  9 active torsions:
REMARK  status: ('A' for Active; 'I' for Inactive)
REMARK    1  A    between atoms: N_1  and  CA_2
REMARK    2  A    between atoms: CA_2  and  C_3
REMARK    3  A    between atoms: CA_2  and  C_6
REMARK    4  A    between atoms: C_3  and  OXT_5
REMARK    5  A    between atoms: C_6  and  C_7
REMARK    6  A    between atoms: C_6  and  C_17
REMARK    7  A    between atoms: C_7  and  C_8
REMARK    8  A    between atoms: C_11  and  N_12
REMARK    9  A    between atoms: C_17  and  O_19
REMARK                            x       y       z     vdW  Elec       q    Type
REMARK                         _______ _______ _______ _____ _____    ______ ____
ROOT
ATOM      1  C   UNL     1       6.276   4.275  16.071  0.00  0.00    +0.000 C 
ENDROOT
BRANCH   1   2
ATOM      2  C   UNL     1       6.416   4.345  14.557  0.00  0.00    +0.000 C 
ATOM      3  O   UNL     1       6.756   5.347  13.944  0.00  0.00    +0.000 OA
BRANCH   2   4
ATOM      4  O   UNL     1       6.137   3.191  13.917  0.00  0.00    +0.000 OA
ATOM      5  H   UNL     1       5.271   2.790  14.117  0.00  0.00    +0.000 HD
ENDBRANCH   2   4
ENDBRANCH   1   2
BRANCH   1   6
ATOM      6  CA  UNL     1       7.518   4.956  16.705  0.00  0.00    +0.000 C 
BRANCH   6   7
ATOM      7  N   UNL     1       8.197   4.139  17.756  0.00  0.00    +0.000 NA
ATOM      8  H1  UNL     1       8.767   3.417  17.303  0.00  0.00    +0.000 HD
ATOM      9  H2  UNL     1       7.492   3.646  18.310  0.00  0.00    +0.000 HD
ENDBRANCH   6   7
BRANCH   6  10
ATOM     10  C   UNL     1       7.257   6.308  17.393  0.00  0.00    +0.000 C 
ATOM     11  O   UNL     1       7.017   7.372  16.839  0.00  0.00    +0.000 OA
BRANCH  10  12
ATOM     12  OXT UNL     1       7.293   6.167  18.743  0.00  0.00    +0.000 OA
ATOM     13  HXT UNL     1       8.067   6.693  19.069  0.00  0.00    +0.000 HD
ENDBRANCH  10  12
ENDBRANCH   6  10
ENDBRANCH   1   6
BRANCH   1  14
ATOM     14  C   UNL     1       4.898   4.890  16.451  0.00  0.00    +0.000 C 
BRANCH  14  15
ATOM     15  C   UNL     1       4.165   4.144  17.546  0.00  0.00    +0.000 A 
ATOM     16  C   UNL     1       2.761   4.080  17.546  0.00  0.00    +0.000 A 
ATOM     17  C   UNL     1       2.073   3.616  18.669  0.00  0.00    +0.000 A 
ATOM     18  C   UNL     1       2.796   3.201  19.793  0.00  0.00    +0.000 A 
ATOM     19  C   UNL     1       4.195   3.165  19.766  0.00  0.00    +0.000 A 
ATOM     20  C   UNL     1       4.874   3.622  18.636  0.00  0.00    +0.000 A 
BRANCH  18  21
ATOM     21  N   UNL     1       2.083   2.856  21.028  0.00  0.00    +0.000 N 
ATOM     22  O   UNL     1       2.747   2.406  21.973  0.00  0.00    +0.000 OA
ATOM     23  O   UNL     1       0.854   3.019  21.048  0.00  0.00    +0.000 OA
ENDBRANCH  18  21
ENDBRANCH  14  15
ENDBRANCH   1  14
TORSDOF 9
ENDMDL
