MODEL 1
REMARK VINA RESULT:      -7.8      0.000      0.000
REMARK  Name = 
REMARK  4 active torsions:
REMARK  status: ('A' for Active; 'I' for Inactive)
REMARK    1  A    between atoms: C_1  and  C_2
REMARK    2  A    between atoms: C_4  and  C_5
REMARK    3  A    between atoms: C_8  and  C_9
REMARK    4  A    between atoms: N_11  and  C_12
REMARK                            x       y       z     vdW  Elec       q    Type
REMARK                         _______ _______ _______ _____ _____    ______ ____
ROOT
ATOM      1  C   UNL     1       1.820   8.808  18.353  0.00  0.00    +0.000 C 
ATOM      2  O   UNL     1       1.995   9.168  17.189  0.00  0.00    +0.000 OA
ATOM      3  N   UNL     1       2.293   7.603  18.876  0.00  0.00    +0.000 N 
ATOM      4  H   UNL     1       1.938   7.333  19.789  0.00  0.00    +0.000 HD
ENDROOT
BRANCH   1  12
ATOM      5  C   UNL     1      -2.397  13.539  21.858  0.00  0.00    +0.000 C 
ATOM      6  C   UNL     1      -1.483  12.384  21.524  0.00  0.00    +0.000 A 
ATOM      7  C   UNL     1      -1.158  11.454  22.654  0.00  0.00    +0.000 A 
ATOM      8  C   UNL     1      -0.350  10.423  22.363  0.00  0.00    +0.000 A 
ATOM      9  C   UNL     1       0.078   9.406  23.375  0.00  0.00    +0.000 C 
ATOM     10  N   UNL     1       0.112  10.292  21.052  0.00  0.00    +0.000 N 
ATOM     11  N   UNL     1       0.908   9.335  20.550  0.00  0.00    +0.000 NA
ATOM     12  C   UNL     1       1.025   9.669  19.258  0.00  0.00    +0.000 A 
ATOM     13  N   UNL     1       0.349  10.822  18.911  0.00  0.00    +0.000 NA
ATOM     14  C   UNL     1      -0.227  11.196  20.043  0.00  0.00    +0.000 A 
ATOM     15  N   UNL     1      -1.044  12.265  20.301  0.00  0.00    +0.000 NA
ENDBRANCH   1  12
BRANCH   3  16
ATOM     16  C   UNL     1       3.061   6.671  18.125  0.00  0.00    +0.000 A 
ATOM     17  C   UNL     1       2.709   5.301  18.060  0.00  0.00    +0.000 A 
ATOM     18  C   UNL     1       3.497   4.356  17.399  0.00  0.00    +0.000 A 
ATOM     19  C   UNL     1       4.646   4.806  16.802  0.00  0.00    +0.000 A 
ATOM     20  C   UNL     1       4.995   6.136  16.825  0.00  0.00    +0.000 A 
ATOM     21  C   UNL     1       4.215   7.098  17.453  0.00  0.00    +0.000 A 
ATOM     22  O   UNL     1       6.183   6.352  16.192  0.00  0.00    +0.000 OA
ATOM     23  C   UNL     1       6.558   5.000  15.838  0.00  0.00    +0.000 C 
ATOM     24  O   UNL     1       5.547   4.028  16.152  0.00  0.00    +0.000 OA
ENDBRANCH   3  16
TORSDOF 2
ENDMDL
MODEL 2
REMARK VINA RESULT:      -7.7      1.065      1.944
REMARK  Name = 
REMARK  4 active torsions:
REMARK  status: ('A' for Active; 'I' for Inactive)
REMARK    1  A    between atoms: C_1  and  C_2
REMARK    2  A    between atoms: C_4  and  C_5
REMARK    3  A    between atoms: C_8  and  C_9
REMARK    4  A    between atoms: N_11  and  C_12
REMARK                            x       y       z     vdW  Elec       q    Type
REMARK                         _______ _______ _______ _____ _____    ______ ____
ROOT
ATOM      1  C   UNL     1       2.195   8.325  18.134  0.00  0.00    +0.000 C 
ATOM      2  O   UNL     1       2.552   8.810  17.061  0.00  0.00    +0.000 OA
ATOM      3  N   UNL     1       2.545   7.044  18.565  0.00  0.00    +0.000 N 
ATOM      4  H   UNL     1       2.051   6.686  19.377  0.00  0.00    +0.000 HD
ENDROOT
BRANCH   1  12
ATOM      5  C   UNL     1      -1.639  11.670  23.287  0.00  0.00    +0.000 C 
ATOM      6  C   UNL     1      -1.059  11.245  21.959  0.00  0.00    +0.000 A 
ATOM      7  C   UNL     1      -1.515  12.025  20.762  0.00  0.00    +0.000 A 
ATOM      8  C   UNL     1      -1.000  11.656  19.580  0.00  0.00    +0.000 A 
ATOM      9  C   UNL     1      -1.354  12.325  18.287  0.00  0.00    +0.000 C 
ATOM     10  N   UNL     1      -0.091  10.597  19.554  0.00  0.00    +0.000 N 
ATOM     11  N   UNL     1       0.547  10.084  18.490  0.00  0.00    +0.000 NA
ATOM     12  C   UNL     1       1.304   9.112  19.016  0.00  0.00    +0.000 A 
ATOM     13  N   UNL     1       1.162   8.964  20.381  0.00  0.00    +0.000 NA
ATOM     14  C   UNL     1       0.292   9.908  20.707  0.00  0.00    +0.000 A 
ATOM     15  N   UNL     1      -0.215  10.250  21.932  0.00  0.00    +0.000 NA
ENDBRANCH   1  12
BRANCH   3  16
ATOM     16  C   UNL     1       3.384   6.168  17.821  0.00  0.00    +0.000 A 
ATOM     17  C   UNL     1       3.093   4.788  17.698  0.00  0.00    +0.000 A 
ATOM     18  C   UNL     1       3.949   3.898  17.045  0.00  0.00    +0.000 A 
ATOM     19  C   UNL     1       5.102   4.414  16.514  0.00  0.00    +0.000 A 
ATOM     20  C   UNL     1       5.394   5.756  16.594  0.00  0.00    +0.000 A 
ATOM     21  C   UNL     1       4.547   6.664  17.216  0.00  0.00    +0.000 A 
ATOM     22  O   UNL     1       6.598   6.040  16.023  0.00  0.00    +0.000 OA
ATOM     23  C   UNL     1       7.045   4.717  15.644  0.00  0.00    +0.000 C 
ATOM     24  O   UNL     1       6.064   3.694  15.882  0.00  0.00    +0.000 OA
ENDBRANCH   3  16
TORSDOF 2
ENDMDL
MODEL 3
REMARK VINA RESULT:      -7.6      2.726      8.600
REMARK  Name = 
REMARK  4 active torsions:
REMARK  status: ('A' for Active; 'I' for Inactive)
REMARK    1  A    between atoms: C_1  and  C_2
REMARK    2  A    between atoms: C_4  and  C_5
REMARK    3  A    between atoms: C_8  and  C_9
REMARK    4  A    between atoms: N_11  and  C_12
REMARK                            x       y       z     vdW  Elec       q    Type
REMARK                         _______ _______ _______ _____ _____    ______ ____
ROOT
ATOM      1  C   UNL     1       1.939   7.213  19.974  0.00  0.00    +0.000 C 
ATOM      2  O   UNL     1       1.466   6.512  20.868  0.00  0.00    +0.000 OA
ATOM      3  N   UNL     1       1.706   8.584  19.852  0.00  0.00    +0.000 N 
ATOM      4  H   UNL     1       1.999   9.020  18.982  0.00  0.00    +0.000 HD
ENDROOT
BRANCH   1  12
ATOM      5  C   UNL     1       6.427   5.113  14.693  0.00  0.00    +0.000 C 
ATOM      6  C   UNL     1       5.423   5.125  15.821  0.00  0.00    +0.000 A 
ATOM      7  C   UNL     1       4.960   3.783  16.304  0.00  0.00    +0.000 A 
ATOM      8  C   UNL     1       4.072   3.786  17.309  0.00  0.00    +0.000 A 
ATOM      9  C   UNL     1       3.504   2.534  17.904  0.00  0.00    +0.000 C 
ATOM     10  N   UNL     1       3.659   5.015  17.824  0.00  0.00    +0.000 N 
ATOM     11  N   UNL     1       2.797   5.240  18.830  0.00  0.00    +0.000 NA
ATOM     12  C   UNL     1       2.771   6.576  18.928  0.00  0.00    +0.000 A 
ATOM     13  N   UNL     1       3.568   7.224  18.006  0.00  0.00    +0.000 NA
ATOM     14  C   UNL     1       4.126   6.234  17.328  0.00  0.00    +0.000 A 
ATOM     15  N   UNL     1       5.029   6.273  16.298  0.00  0.00    +0.000 NA
ENDBRANCH   1  12
BRANCH   3  16
ATOM     16  C   UNL     1       0.919   9.330  20.773  0.00  0.00    +0.000 A 
ATOM     17  C   UNL     1       0.878   9.001  22.149  0.00  0.00    +0.000 A 
ATOM     18  C   UNL     1       0.047   9.667  23.054  0.00  0.00    +0.000 A 
ATOM     19  C   UNL     1      -0.743  10.671  22.556  0.00  0.00    +0.000 A 
ATOM     20  C   UNL     1      -0.699  11.029  21.228  0.00  0.00    +0.000 A 
ATOM     21  C   UNL     1       0.137  10.400  20.316  0.00  0.00    +0.000 A 
ATOM     22  O   UNL     1      -1.583  12.029  20.952  0.00  0.00    +0.000 OA
ATOM     23  C   UNL     1      -2.222  12.199  22.239  0.00  0.00    +0.000 C 
ATOM     24  O   UNL     1      -1.635  11.395  23.276  0.00  0.00    +0.000 OA
ENDBRANCH   3  16
TORSDOF 2
ENDMDL
MODEL 4
REMARK VINA RESULT:      -7.6      2.610      8.584
REMARK  Name = 
REMARK  4 active torsions:
REMARK  status: ('A' for Active; 'I' for Inactive)
REMARK    1  A    between atoms: C_1  and  C_2
REMARK    2  A    between atoms: C_4  and  C_5
REMARK    3  A    between atoms: C_8  and  C_9
REMARK    4  A    between atoms: N_11  and  C_12
REMARK                            x       y       z     vdW  Elec       q    Type
REMARK                         _______ _______ _______ _____ _____    ______ ____
ROOT
ATOM      1  C   UNL     1       2.134   7.642  19.131  0.00  0.00    +0.000 C 
ATOM      2  O   UNL     1       1.854   7.168  20.231  0.00  0.00    +0.000 OA
ATOM      3  N   UNL     1       1.599   8.833  18.635  0.00  0.00    +0.000 N 
ATOM      4  H   UNL     1       1.764   9.032  17.653  0.00  0.00    +0.000 HD
ENDROOT
BRANCH   1  12
ATOM      5  C   UNL     1       7.106   4.995  14.580  0.00  0.00    +0.000 C 
ATOM      6  C   UNL     1       5.989   5.126  15.587  0.00  0.00    +0.000 A 
ATOM      7  C   UNL     1       5.445   3.842  16.138  0.00  0.00    +0.000 A 
ATOM      8  C   UNL     1       4.455   3.951  17.037  0.00  0.00    +0.000 A 
ATOM      9  C   UNL     1       3.797   2.769  17.679  0.00  0.00    +0.000 C 
ATOM     10  N   UNL     1       4.019   5.229  17.390  0.00  0.00    +0.000 N 
ATOM     11  N   UNL     1       3.062   5.559  18.272  0.00  0.00    +0.000 NA
ATOM     12  C   UNL     1       3.057   6.899  18.244  0.00  0.00    +0.000 A 
ATOM     13  N   UNL     1       3.963   7.447  17.358  0.00  0.00    +0.000 NA
ATOM     14  C   UNL     1       4.566   6.389  16.838  0.00  0.00    +0.000 A 
ATOM     15  N   UNL     1       5.574   6.320  15.912  0.00  0.00    +0.000 NA
ENDBRANCH   1  12
BRANCH   3  16
ATOM     16  C   UNL     1       0.693   9.649  19.367  0.00  0.00    +0.000 A 
ATOM     17  C   UNL     1      -0.344  10.367  18.724  0.00  0.00    +0.000 A 
ATOM     18  C   UNL     1      -1.190  11.240  19.413  0.00  0.00    +0.000 A 
ATOM     19  C   UNL     1      -0.981  11.380  20.760  0.00  0.00    +0.000 A 
ATOM     20  C   UNL     1       0.000  10.672  21.414  0.00  0.00    +0.000 A 
ATOM     21  C   UNL     1       0.836   9.780  20.756  0.00  0.00    +0.000 A 
ATOM     22  O   UNL     1       0.044  10.986  22.740  0.00  0.00    +0.000 OA
ATOM     23  C   UNL     1      -0.971  12.015  22.815  0.00  0.00    +0.000 C 
ATOM     24  O   UNL     1      -1.678  12.209  21.578  0.00  0.00    +0.000 OA
ENDBRANCH   3  16
TORSDOF 2
ENDMDL
MODEL 5
REMARK VINA RESULT:      -7.5      1.441      2.095
REMARK  Name = 
REMARK  4 active torsions:
REMARK  status: ('A' for Active; 'I' for Inactive)
REMARK    1  A    between atoms: C_1  and  C_2
REMARK    2  A    between atoms: C_4  and  C_5
REMARK    3  A    between atoms: C_8  and  C_9
REMARK    4  A    between atoms: N_11  and  C_12
REMARK                            x       y       z     vdW  Elec       q    Type
REMARK                         _______ _______ _______ _____ _____    ______ ____
ROOT
ATOM      1  C   UNL     1       2.182   7.403  19.684  0.00  0.00    +0.000 C 
ATOM      2  O   UNL     1       2.469   6.472  20.436  0.00  0.00    +0.000 OA
ATOM      3  N   UNL     1       2.616   7.498  18.360  0.00  0.00    +0.000 N 
ATOM      4  H   UNL     1       2.468   8.389  17.895  0.00  0.00    +0.000 HD
ENDROOT
BRANCH   1  12
ATOM      5  C   UNL     1      -1.329  12.659  23.216  0.00  0.00    +0.000 C 
ATOM      6  C   UNL     1      -0.792  11.747  22.140  0.00  0.00    +0.000 A 
ATOM      7  C   UNL     1      -1.178  12.090  20.732  0.00  0.00    +0.000 A 
ATOM      8  C   UNL     1      -0.700  11.286  19.771  0.00  0.00    +0.000 A 
ATOM      9  C   UNL     1      -0.995  11.484  18.316  0.00  0.00    +0.000 C 
ATOM     10  N   UNL     1       0.111  10.214  20.146  0.00  0.00    +0.000 N 
ATOM     11  N   UNL     1       0.699   9.307  19.350  0.00  0.00    +0.000 NA
ATOM     12  C   UNL     1       1.367   8.523  20.206  0.00  0.00    +0.000 A 
ATOM     13  N   UNL     1       1.213   8.877  21.532  0.00  0.00    +0.000 NA
ATOM     14  C   UNL     1       0.432   9.945  21.478  0.00  0.00    +0.000 A 
ATOM     15  N   UNL     1      -0.041  10.739  22.490  0.00  0.00    +0.000 NA
ENDBRANCH   1  12
BRANCH   3  16
ATOM     16  C   UNL     1       3.413   6.506  17.723  0.00  0.00    +0.000 A 
ATOM     17  C   UNL     1       3.048   5.139  17.739  0.00  0.00    +0.000 A 
ATOM     18  C   UNL     1       3.860   4.141  17.195  0.00  0.00    +0.000 A 
ATOM     19  C   UNL     1       5.045   4.536  16.631  0.00  0.00    +0.000 A 
ATOM     20  C   UNL     1       5.409   5.861  16.577  0.00  0.00    +0.000 A 
ATOM     21  C   UNL     1       4.608   6.873  17.088  0.00  0.00    +0.000 A 
ATOM     22  O   UNL     1       6.633   6.020  15.998  0.00  0.00    +0.000 OA
ATOM     23  C   UNL     1       7.011   4.642  15.766  0.00  0.00    +0.000 C 
ATOM     24  O   UNL     1       5.972   3.704  16.092  0.00  0.00    +0.000 OA
ENDBRANCH   3  16
TORSDOF 2
ENDMDL
MODEL 6
REMARK VINA RESULT:      -7.4      1.272      1.305
REMARK  Name = 
REMARK  4 active torsions:
REMARK  status: ('A' for Active; 'I' for Inactive)
REMARK    1  A    between atoms: C_1  and  C_2
REMARK    2  A    between atoms: C_4  and  C_5
REMARK    3  A    between atoms: C_8  and  C_9
REMARK    4  A    between atoms: N_11  and  C_12
REMARK                            x       y       z     vdW  Elec       q    Type
REMARK                         _______ _______ _______ _____ _____    ______ ____
ROOT
ATOM      1  C   UNL     1       2.317   7.408  19.268  0.00  0.00    +0.000 C 
ATOM      2  O   UNL     1       2.466   6.437  20.008  0.00  0.00    +0.000 OA
ATOM      3  N   UNL     1       2.861   7.501  17.985  0.00  0.00    +0.000 N 
ATOM      4  H   UNL     1       2.824   8.413  17.540  0.00  0.00    +0.000 HD
ENDROOT
BRANCH   1  12
ATOM      5  C   UNL     1      -1.454  13.440  20.623  0.00  0.00    +0.000 C 
ATOM      6  C   UNL     1      -0.737  12.118  20.762  0.00  0.00    +0.000 A 
ATOM      7  C   UNL     1      -0.802  11.474  22.115  0.00  0.00    +0.000 A 
ATOM      8  C   UNL     1      -0.171  10.297  22.244  0.00  0.00    +0.000 A 
ATOM      9  C   UNL     1      -0.133   9.524  23.526  0.00  0.00    +0.000 C 
ATOM     10  N   UNL     1       0.480   9.768  21.128  0.00  0.00    +0.000 N 
ATOM     11  N   UNL     1       1.152   8.609  21.039  0.00  0.00    +0.000 NA
ATOM     12  C   UNL     1       1.557   8.578  19.762  0.00  0.00    +0.000 A 
ATOM     13  N   UNL     1       1.189   9.688  19.028  0.00  0.00    +0.000 NA
ATOM     14  C   UNL     1       0.506  10.420  19.894  0.00  0.00    +0.000 A 
ATOM     15  N   UNL     1      -0.121  11.626  19.723  0.00  0.00    +0.000 NA
ENDBRANCH   1  12
BRANCH   3  16
ATOM     16  C   UNL     1       3.623   6.463  17.380  0.00  0.00    +0.000 A 
ATOM     17  C   UNL     1       3.306   5.097  17.580  0.00  0.00    +0.000 A 
ATOM     18  C   UNL     1       4.092   4.063  17.065  0.00  0.00    +0.000 A 
ATOM     19  C   UNL     1       5.202   4.420  16.344  0.00  0.00    +0.000 A 
ATOM     20  C   UNL     1       5.515   5.739  16.110  0.00  0.00    +0.000 A 
ATOM     21  C   UNL     1       4.736   6.783  16.590  0.00  0.00    +0.000 A 
ATOM     22  O   UNL     1       6.669   5.859  15.395  0.00  0.00    +0.000 OA
ATOM     23  C   UNL     1       7.066   4.473  15.274  0.00  0.00    +0.000 C 
ATOM     24  O   UNL     1       6.096   3.554  15.805  0.00  0.00    +0.000 OA
ENDBRANCH   3  16
TORSDOF 2
ENDMDL
MODEL 7
REMARK VINA RESULT:      -7.4      2.824      8.609
REMARK  Name = 
REMARK  4 active torsions:
REMARK  status: ('A' for Active; 'I' for Inactive)
REMARK    1  A    between atoms: C_1  and  C_2
REMARK    2  A    between atoms: C_4  and  C_5
REMARK    3  A    between atoms: C_8  and  C_9
REMARK    4  A    between atoms: N_11  and  C_12
REMARK                            x       y       z     vdW  Elec       q    Type
REMARK                         _______ _______ _______ _____ _____    ______ ____
ROOT
ATOM      1  C   UNL     1       2.025   8.192  18.807  0.00  0.00    +0.000 C 
ATOM      2  O   UNL     1       1.751   7.921  19.976  0.00  0.00    +0.000 OA
ATOM      3  N   UNL     1       1.499   9.284  18.115  0.00  0.00    +0.000 N 
ATOM      4  H   UNL     1       1.656   9.306  17.112  0.00  0.00    +0.000 HD
ENDROOT
BRANCH   1  12
ATOM      5  C   UNL     1       7.069   4.711  14.949  0.00  0.00    +0.000 C 
ATOM      6  C   UNL     1       5.875   5.033  15.815  0.00  0.00    +0.000 A 
ATOM      7  C   UNL     1       5.105   3.857  16.339  0.00  0.00    +0.000 A 
ATOM      8  C   UNL     1       4.046   4.136  17.113  0.00  0.00    +0.000 A 
ATOM      9  C   UNL     1       3.168   3.082  17.712  0.00  0.00    +0.000 C 
ATOM     10  N   UNL     1       3.750   5.476  17.373  0.00  0.00    +0.000 N 
ATOM     11  N   UNL     1       2.754   5.968  18.128  0.00  0.00    +0.000 NA
ATOM     12  C   UNL     1       2.933   7.294  18.057  0.00  0.00    +0.000 A 
ATOM     13  N   UNL     1       3.997   7.677  17.265  0.00  0.00    +0.000 NA
ATOM     14  C   UNL     1       4.506   6.528  16.852  0.00  0.00    +0.000 A 
ATOM     15  N   UNL     1       5.591   6.284  16.052  0.00  0.00    +0.000 NA
ENDBRANCH   1  12
BRANCH   3  16
ATOM     16  C   UNL     1       0.607  10.226  18.700  0.00  0.00    +0.000 A 
ATOM     17  C   UNL     1       1.007  11.058  19.774  0.00  0.00    +0.000 A 
ATOM     18  C   UNL     1       0.123  11.927  20.417  0.00  0.00    +0.000 A 
ATOM     19  C   UNL     1      -1.171  11.952  19.964  0.00  0.00    +0.000 A 
ATOM     20  C   UNL     1      -1.577  11.175  18.904  0.00  0.00    +0.000 A 
ATOM     21  C   UNL     1      -0.711  10.323  18.233  0.00  0.00    +0.000 A 
ATOM     22  O   UNL     1      -2.905  11.340  18.644  0.00  0.00    +0.000 OA
ATOM     23  C   UNL     1      -3.284  12.251  19.703  0.00  0.00    +0.000 C 
ATOM     24  O   UNL     1      -2.171  12.702  20.492  0.00  0.00    +0.000 OA
ENDBRANCH   3  16
TORSDOF 2
ENDMDL
MODEL 8
REMARK VINA RESULT:      -7.3      2.601      8.440
REMARK  Name = 
REMARK  4 active torsions:
REMARK  status: ('A' for Active; 'I' for Inactive)
REMARK    1  A    between atoms: C_1  and  C_2
REMARK    2  A    between atoms: C_4  and  C_5
REMARK    3  A    between atoms: C_8  and  C_9
REMARK    4  A    between atoms: N_11  and  C_12
REMARK                            x       y       z     vdW  Elec       q    Type
REMARK                         _______ _______ _______ _____ _____    ______ ____
ROOT
ATOM      1  C   UNL     1       1.839   8.303  18.903  0.00  0.00    +0.000 C 
ATOM      2  O   UNL     1       1.202   9.128  18.250  0.00  0.00    +0.000 OA
ATOM      3  N   UNL     1       1.814   8.225  20.297  0.00  0.00    +0.000 N 
ATOM      4  H   UNL     1       2.510   7.627  20.732  0.00  0.00    +0.000 HD
ENDROOT
BRANCH   1  12
ATOM      5  C   UNL     1       6.856   4.530  15.293  0.00  0.00    +0.000 C 
ATOM      6  C   UNL     1       5.635   4.923  16.090  0.00  0.00    +0.000 A 
ATOM      7  C   UNL     1       4.753   3.798  16.541  0.00  0.00    +0.000 A 
ATOM      8  C   UNL     1       3.669   4.140  17.254  0.00  0.00    +0.000 A 
ATOM      9  C   UNL     1       2.682   3.142  17.775  0.00  0.00    +0.000 C 
ATOM     10  N   UNL     1       3.453   5.493  17.523  0.00  0.00    +0.000 N 
ATOM     11  N   UNL     1       2.449   6.044  18.224  0.00  0.00    +0.000 NA
ATOM     12  C   UNL     1       2.726   7.354  18.192  0.00  0.00    +0.000 A 
ATOM     13  N   UNL     1       3.862   7.673  17.476  0.00  0.00    +0.000 NA
ATOM     14  C   UNL     1       4.313   6.496  17.071  0.00  0.00    +0.000 A 
ATOM     15  N   UNL     1       5.427   6.188  16.335  0.00  0.00    +0.000 NA
ENDBRANCH   1  12
BRANCH   3  16
ATOM     16  C   UNL     1       1.019   9.075  21.116  0.00  0.00    +0.000 A 
ATOM     17  C   UNL     1       0.057   8.553  22.013  0.00  0.00    +0.000 A 
ATOM     18  C   UNL     1      -0.792   9.372  22.761  0.00  0.00    +0.000 A 
ATOM     19  C   UNL     1      -0.659  10.727  22.597  0.00  0.00    +0.000 A 
ATOM     20  C   UNL     1       0.288  11.260  21.754  0.00  0.00    +0.000 A 
ATOM     21  C   UNL     1       1.160  10.467  21.019  0.00  0.00    +0.000 A 
ATOM     22  O   UNL     1       0.224  12.621  21.727  0.00  0.00    +0.000 OA
ATOM     23  C   UNL     1      -0.910  12.862  22.594  0.00  0.00    +0.000 C 
ATOM     24  O   UNL     1      -1.420  11.668  23.209  0.00  0.00    +0.000 OA
ENDBRANCH   3  16
TORSDOF 2
ENDMDL
MODEL 9
REMARK VINA RESULT:      -7.2      3.015      8.490
REMARK  Name = 
REMARK  4 active torsions:
REMARK  status: ('A' for Active; 'I' for Inactive)
REMARK    1  A    between atoms: C_1  and  C_2
REMARK    2  A    between atoms: C_4  and  C_5
REMARK    3  A    between atoms: C_8  and  C_9
REMARK    4  A    between atoms: N_11  and  C_12
REMARK                            x       y       z     vdW  Elec       q    Type
REMARK                         _______ _______ _______ _____ _____    ______ ____
ROOT
ATOM      1  C   UNL     1       1.928   8.336  18.882  0.00  0.00    +0.000 C 
ATOM      2  O   UNL     1       1.681   8.179  20.077  0.00  0.00    +0.000 OA
ATOM      3  N   UNL     1       1.424   9.386  18.112  0.00  0.00    +0.000 N 
ATOM      4  H   UNL     1       1.550   9.315  17.107  0.00  0.00    +0.000 HD
ENDROOT
BRANCH   1  12
ATOM      5  C   UNL     1       6.774   4.294  15.329  0.00  0.00    +0.000 C 
ATOM      6  C   UNL     1       5.575   4.752  16.124  0.00  0.00    +0.000 A 
ATOM      7  C   UNL     1       4.655   3.671  16.608  0.00  0.00    +0.000 A 
ATOM      8  C   UNL     1       3.590   4.070  17.319  0.00  0.00    +0.000 A 
ATOM      9  C   UNL     1       2.570   3.122  17.871  0.00  0.00    +0.000 C 
ATOM     10  N   UNL     1       3.426   5.436  17.557  0.00  0.00    +0.000 N 
ATOM     11  N   UNL     1       2.449   6.041  18.252  0.00  0.00    +0.000 NA
ATOM     12  C   UNL     1       2.774   7.339  18.188  0.00  0.00    +0.000 A 
ATOM     13  N   UNL     1       3.916   7.597  17.457  0.00  0.00    +0.000 NA
ATOM     14  C   UNL     1       4.320   6.395  17.076  0.00  0.00    +0.000 A 
ATOM     15  N   UNL     1       5.416   6.029  16.341  0.00  0.00    +0.000 NA
ENDBRANCH   1  12
BRANCH   3  16
ATOM     16  C   UNL     1       0.591  10.413  18.637  0.00  0.00    +0.000 A 
ATOM     17  C   UNL     1      -0.819  10.288  18.653  0.00  0.00    +0.000 A 
ATOM     18  C   UNL     1      -1.657  11.319  19.085  0.00  0.00    +0.000 A 
ATOM     19  C   UNL     1      -1.058  12.479  19.504  0.00  0.00    +0.000 A 
ATOM     20  C   UNL     1       0.311  12.614  19.526  0.00  0.00    +0.000 A 
ATOM     21  C   UNL     1       1.165  11.595  19.126  0.00  0.00    +0.000 A 
ATOM     22  O   UNL     1       0.683  13.854  19.952  0.00  0.00    +0.000 OA
ATOM     23  C   UNL     1      -0.607  14.487  20.125  0.00  0.00    +0.000 C 
ATOM     24  O   UNL     1      -1.713  13.593  19.918  0.00  0.00    +0.000 OA
ENDBRANCH   3  16
TORSDOF 2
ENDMDL
