MODEL 1
REMARK VINA RESULT:      -7.7      0.000      0.000
REMARK  Name = 
REMARK  8 active torsions:
REMARK  status: ('A' for Active; 'I' for Inactive)
REMARK    1  A    between atoms: C_1  and  S_2
REMARK    2  A    between atoms: S_2  and  N_5
REMARK    3  A    between atoms: N_8  and  C_9
REMARK    4  A    between atoms: C_14  and  N_15
REMARK    5  A    between atoms: N_15  and  C_16
REMARK    6  A    between atoms: C_16  and  N_18
REMARK    7  A    between atoms: C_19  and  C_21
REMARK    8  A    between atoms: C_26  and  N_27
REMARK                            x       y       z     vdW  Elec       q    Type
REMARK                         _______ _______ _______ _____ _____    ______ ____
ROOT
ATOM      1  N   UNL     1       2.781   6.282  20.207  0.00  0.00    +0.000 N 
ATOM      2  H   UNL     1       3.387   6.590  20.967  0.00  0.00    +0.000 HD
ENDROOT
BRANCH   1   8
ATOM      3  C   UNL     1       3.125   3.934  19.513  0.00  0.00    +0.000 A 
ATOM      4  C   UNL     1       2.803   2.584  19.793  0.00  0.00    +0.000 A 
ATOM      5  C   UNL     1       1.908   2.208  20.798  0.00  0.00    +0.000 A 
ATOM      6  C   UNL     1       1.270   3.178  21.547  0.00  0.00    +0.000 A 
ATOM      7  C   UNL     1       1.517   4.519  21.275  0.00  0.00    +0.000 A 
ATOM      8  C   UNL     1       2.426   4.912  20.274  0.00  0.00    +0.000 A 
BRANCH   3  12
ATOM      9  N   UNL     1       5.847   5.443  16.636  0.00  0.00    +0.000 NA
ATOM     10  C   UNL     1       4.587   4.777  16.200  0.00  0.00    +0.000 C 
ATOM     11  C   UNL     1       4.127   3.683  17.201  0.00  0.00    +0.000 C 
ATOM     12  N   UNL     1       4.112   4.226  18.574  0.00  0.00    +0.000 N 
ATOM     13  C   UNL     1       5.416   4.777  18.999  0.00  0.00    +0.000 C 
ATOM     14  C   UNL     1       5.813   5.908  18.045  0.00  0.00    +0.000 C 
BRANCH   9  16
ATOM     15  C   UNL     1       6.834   4.299  14.377  0.00  0.00    +0.000 C 
ATOM     16  S   UNL     1       7.304   5.127  15.882  0.00  0.00    +0.000 S 
ATOM     17  O   UNL     1       8.037   4.178  16.691  0.00  0.00    +0.000 OA
ATOM     18  O   UNL     1       7.886   6.400  15.500  0.00  0.00    +0.000 OA
ENDBRANCH   9  16
ENDBRANCH   3  12
ENDBRANCH   1   8
BRANCH   1  19
ATOM     19  C   UNL     1       2.319   7.254  19.347  0.00  0.00    +0.000 C 
ATOM     20  S   UNL     1       2.457   7.265  17.676  0.00  0.00    +0.000 S 
BRANCH  19  21
ATOM     21  N   UNL     1       1.723   8.356  19.937  0.00  0.00    +0.000 N 
ATOM     22  C   UNL     1       0.707   8.361  20.877  0.00  0.00    +0.000 C 
ATOM     23  O   UNL     1       0.293   7.327  21.400  0.00  0.00    +0.000 OA
ATOM     24  H   UNL     1       2.075   9.235  19.563  0.00  0.00    +0.000 HD
BRANCH  22  25
ATOM     25  C   UNL     1       0.173   9.656  21.384  0.00  0.00    +0.000 A 
ATOM     26  C   UNL     1      -0.419   9.584  22.661  0.00  0.00    +0.000 A 
ATOM     27  C   UNL     1      -0.997  10.704  23.264  0.00  0.00    +0.000 A 
ATOM     28  C   UNL     1      -0.995  11.929  22.605  0.00  0.00    +0.000 A 
ATOM     29  C   UNL     1      -0.442  12.028  21.332  0.00  0.00    +0.000 A 
ATOM     30  C   UNL     1       0.122  10.890  20.726  0.00  0.00    +0.000 A 
BRANCH  30  31
ATOM     31  N   UNL     1       0.587  11.052  19.367  0.00  0.00    +0.000 N 
ATOM     32  O   UNL     1       1.670  11.630  19.214  0.00  0.00    +0.000 OA
ATOM     33  O   UNL     1      -0.150  10.641  18.464  0.00  0.00    +0.000 OA
ENDBRANCH  30  31
ENDBRANCH  22  25
ENDBRANCH  19  21
ENDBRANCH   1  19
TORSDOF 7
ENDMDL
MODEL 2
REMARK VINA RESULT:      -7.7      3.590      8.841
REMARK  Name = 
REMARK  8 active torsions:
REMARK  status: ('A' for Active; 'I' for Inactive)
REMARK    1  A    between atoms: C_1  and  S_2
REMARK    2  A    between atoms: S_2  and  N_5
REMARK    3  A    between atoms: N_8  and  C_9
REMARK    4  A    between atoms: C_14  and  N_15
REMARK    5  A    between atoms: N_15  and  C_16
REMARK    6  A    between atoms: C_16  and  N_18
REMARK    7  A    between atoms: C_19  and  C_21
REMARK    8  A    between atoms: C_26  and  N_27
REMARK                            x       y       z     vdW  Elec       q    Type
REMARK                         _______ _______ _______ _____ _____    ______ ____
ROOT
ATOM      1  N   UNL     1       1.291   9.860  19.161  0.00  0.00    +0.000 N 
ATOM      2  H   UNL     1       2.140  10.264  18.765  0.00  0.00    +0.000 HD
ENDROOT
BRANCH   1   8
ATOM      3  C   UNL     1      -0.079  11.894  18.843  0.00  0.00    +0.000 A 
ATOM      4  C   UNL     1      -1.229  12.429  18.217  0.00  0.00    +0.000 A 
ATOM      5  C   UNL     1      -2.115  11.655  17.464  0.00  0.00    +0.000 A 
ATOM      6  C   UNL     1      -1.901  10.296  17.335  0.00  0.00    +0.000 A 
ATOM      7  C   UNL     1      -0.811   9.717  17.974  0.00  0.00    +0.000 A 
ATOM      8  C   UNL     1       0.097  10.487  18.726  0.00  0.00    +0.000 A 
BRANCH   3  12
ATOM      9  N   UNL     1       2.157  14.957  20.736  0.00  0.00    +0.000 NA
ATOM     10  C   UNL     1       2.225  14.783  19.257  0.00  0.00    +0.000 C 
ATOM     11  C   UNL     1       2.025  13.303  18.834  0.00  0.00    +0.000 C 
ATOM     12  N   UNL     1       0.819  12.748  19.480  0.00  0.00    +0.000 N 
ATOM     13  C   UNL     1       0.848  12.847  20.954  0.00  0.00    +0.000 C 
ATOM     14  C   UNL     1       0.965  14.322  21.352  0.00  0.00    +0.000 C 
BRANCH   9  16
ATOM     15  C   UNL     1       4.838  15.283  20.434  0.00  0.00    +0.000 C 
ATOM     16  S   UNL     1       3.531  15.241  21.643  0.00  0.00    +0.000 S 
ATOM     17  O   UNL     1       3.759  14.094  22.493  0.00  0.00    +0.000 OA
ATOM     18  O   UNL     1       3.423  16.580  22.195  0.00  0.00    +0.000 OA
ENDBRANCH   9  16
ENDBRANCH   3  12
ENDBRANCH   1   8
BRANCH   1  19
ATOM     19  C   UNL     1       1.443   8.724  19.925  0.00  0.00    +0.000 C 
ATOM     20  S   UNL     1       0.811   8.451  21.454  0.00  0.00    +0.000 S 
BRANCH  19  21
ATOM     21  N   UNL     1       2.239   7.729  19.386  0.00  0.00    +0.000 N 
ATOM     22  C   UNL     1       2.668   7.611  18.074  0.00  0.00    +0.000 C 
ATOM     23  O   UNL     1       2.472   8.493  17.239  0.00  0.00    +0.000 OA
ATOM     24  H   UNL     1       2.463   7.001  20.061  0.00  0.00    +0.000 HD
BRANCH  22  25
ATOM     25  C   UNL     1       3.508   6.449  17.671  0.00  0.00    +0.000 A 
ATOM     26  C   UNL     1       4.742   6.796  17.085  0.00  0.00    +0.000 A 
ATOM     27  C   UNL     1       5.631   5.822  16.622  0.00  0.00    +0.000 A 
ATOM     28  C   UNL     1       5.310   4.474  16.736  0.00  0.00    +0.000 A 
ATOM     29  C   UNL     1       4.088   4.099  17.286  0.00  0.00    +0.000 A 
ATOM     30  C   UNL     1       3.191   5.087  17.734  0.00  0.00    +0.000 A 
BRANCH  30  31
ATOM     31  N   UNL     1       1.906   4.621  18.201  0.00  0.00    +0.000 N 
ATOM     32  O   UNL     1       1.101   4.251  17.337  0.00  0.00    +0.000 OA
ATOM     33  O   UNL     1       1.694   4.667  19.418  0.00  0.00    +0.000 OA
ENDBRANCH  30  31
ENDBRANCH  22  25
ENDBRANCH  19  21
ENDBRANCH   1  19
TORSDOF 7
ENDMDL
MODEL 3
REMARK VINA RESULT:      -7.7      3.573      8.801
REMARK  Name = 
REMARK  8 active torsions:
REMARK  status: ('A' for Active; 'I' for Inactive)
REMARK    1  A    between atoms: C_1  and  S_2
REMARK    2  A    between atoms: S_2  and  N_5
REMARK    3  A    between atoms: N_8  and  C_9
REMARK    4  A    between atoms: C_14  and  N_15
REMARK    5  A    between atoms: N_15  and  C_16
REMARK    6  A    between atoms: C_16  and  N_18
REMARK    7  A    between atoms: C_19  and  C_21
REMARK    8  A    between atoms: C_26  and  N_27
REMARK                            x       y       z     vdW  Elec       q    Type
REMARK                         _______ _______ _______ _____ _____    ______ ____
ROOT
ATOM      1  N   UNL     1       1.303   9.705  18.788  0.00  0.00    +0.000 N 
ATOM      2  H   UNL     1       2.070   9.966  18.169  0.00  0.00    +0.000 HD
ENDROOT
BRANCH   1   8
ATOM      3  C   UNL     1      -0.061  11.767  18.747  0.00  0.00    +0.000 A 
ATOM      4  C   UNL     1      -1.253  12.358  18.265  0.00  0.00    +0.000 A 
ATOM      5  C   UNL     1      -2.212  11.651  17.534  0.00  0.00    +0.000 A 
ATOM      6  C   UNL     1      -2.028  10.305  17.283  0.00  0.00    +0.000 A 
ATOM      7  C   UNL     1      -0.895   9.670  17.780  0.00  0.00    +0.000 A 
ATOM      8  C   UNL     1       0.085  10.373  18.507  0.00  0.00    +0.000 A 
BRANCH   3  12
ATOM      9  N   UNL     1       2.384  14.674  20.629  0.00  0.00    +0.000 NA
ATOM     10  C   UNL     1       2.377  14.546  19.143  0.00  0.00    +0.000 C 
ATOM     11  C   UNL     1       2.097  13.091  18.683  0.00  0.00    +0.000 C 
ATOM     12  N   UNL     1       0.900  12.563  19.367  0.00  0.00    +0.000 N 
ATOM     13  C   UNL     1       1.000  12.611  20.841  0.00  0.00    +0.000 C 
ATOM     14  C   UNL     1       1.197  14.066  21.279  0.00  0.00    +0.000 C 
BRANCH   9  16
ATOM     15  C   UNL     1       3.406  16.096  22.707  0.00  0.00    +0.000 C 
ATOM     16  S   UNL     1       3.809  14.871  21.478  0.00  0.00    +0.000 S 
ATOM     17  O   UNL     1       4.791  15.452  20.588  0.00  0.00    +0.000 OA
ATOM     18  O   UNL     1       4.074  13.632  22.186  0.00  0.00    +0.000 OA
ENDBRANCH   9  16
ENDBRANCH   3  12
ENDBRANCH   1   8
BRANCH   1  19
ATOM     19  C   UNL     1       1.543   8.682  19.678  0.00  0.00    +0.000 C 
ATOM     20  S   UNL     1       1.065   8.615  21.283  0.00  0.00    +0.000 S 
BRANCH  19  21
ATOM     21  N   UNL     1       2.298   7.625  19.201  0.00  0.00    +0.000 N 
ATOM     22  C   UNL     1       2.839   7.479  17.935  0.00  0.00    +0.000 C 
ATOM     23  O   UNL     1       2.802   8.381  17.098  0.00  0.00    +0.000 OA
ATOM     24  H   UNL     1       2.393   6.876  19.884  0.00  0.00    +0.000 HD
BRANCH  22  25
ATOM     25  C   UNL     1       3.611   6.251  17.595  0.00  0.00    +0.000 A 
ATOM     26  C   UNL     1       4.878   6.495  17.028  0.00  0.00    +0.000 A 
ATOM     27  C   UNL     1       5.711   5.450  16.622  0.00  0.00    +0.000 A 
ATOM     28  C   UNL     1       5.301   4.130  16.778  0.00  0.00    +0.000 A 
ATOM     29  C   UNL     1       4.044   3.856  17.310  0.00  0.00    +0.000 A 
ATOM     30  C   UNL     1       3.205   4.916  17.700  0.00  0.00    +0.000 A 
BRANCH  30  31
ATOM     31  N   UNL     1       1.881   4.551  18.151  0.00  0.00    +0.000 N 
ATOM     32  O   UNL     1       1.682   4.582  19.372  0.00  0.00    +0.000 OA
ATOM     33  O   UNL     1       1.067   4.198  17.292  0.00  0.00    +0.000 OA
ENDBRANCH  30  31
ENDBRANCH  22  25
ENDBRANCH  19  21
ENDBRANCH   1  19
TORSDOF 7
ENDMDL
MODEL 4
REMARK VINA RESULT:      -7.7      3.496      8.838
REMARK  Name = 
REMARK  8 active torsions:
REMARK  status: ('A' for Active; 'I' for Inactive)
REMARK    1  A    between atoms: C_1  and  S_2
REMARK    2  A    between atoms: S_2  and  N_5
REMARK    3  A    between atoms: N_8  and  C_9
REMARK    4  A    between atoms: C_14  and  N_15
REMARK    5  A    between atoms: N_15  and  C_16
REMARK    6  A    between atoms: C_16  and  N_18
REMARK    7  A    between atoms: C_19  and  C_21
REMARK    8  A    between atoms: C_26  and  N_27
REMARK                            x       y       z     vdW  Elec       q    Type
REMARK                         _______ _______ _______ _____ _____    ______ ____
ROOT
ATOM      1  N   UNL     1       1.391  10.083  19.707  0.00  0.00    +0.000 N 
ATOM      2  H   UNL     1       2.297  10.551  19.678  0.00  0.00    +0.000 HD
ENDROOT
BRANCH   1   8
ATOM      3  C   UNL     1       0.261  11.545  21.350  0.00  0.00    +0.000 A 
ATOM      4  C   UNL     1      -0.577  11.576  22.490  0.00  0.00    +0.000 A 
ATOM      5  C   UNL     1      -1.023  10.420  23.137  0.00  0.00    +0.000 A 
ATOM      6  C   UNL     1      -0.618   9.180  22.684  0.00  0.00    +0.000 A 
ATOM      7  C   UNL     1       0.246   9.102  21.597  0.00  0.00    +0.000 A 
ATOM      8  C   UNL     1       0.693  10.257  20.928  0.00  0.00    +0.000 A 
BRANCH   3  12
ATOM      9  N   UNL     1       1.197  14.782  18.778  0.00  0.00    +0.000 NA
ATOM     10  C   UNL     1       2.288  13.974  19.396  0.00  0.00    +0.000 C 
ATOM     11  C   UNL     1       1.881  13.407  20.782  0.00  0.00    +0.000 C 
ATOM     12  N   UNL     1       0.570  12.734  20.691  0.00  0.00    +0.000 N 
ATOM     13  C   UNL     1      -0.502  13.609  20.175  0.00  0.00    +0.000 C 
ATOM     14  C   UNL     1      -0.117  14.094  18.773  0.00  0.00    +0.000 C 
BRANCH   9  16
ATOM     15  C   UNL     1      -0.356  16.940  18.215  0.00  0.00    +0.000 C 
ATOM     16  S   UNL     1       1.284  16.448  18.707  0.00  0.00    +0.000 S 
ATOM     17  O   UNL     1       2.187  16.811  17.638  0.00  0.00    +0.000 OA
ATOM     18  O   UNL     1       1.483  16.936  20.060  0.00  0.00    +0.000 OA
ENDBRANCH   9  16
ENDBRANCH   3  12
ENDBRANCH   1   8
BRANCH   1  19
ATOM     19  C   UNL     1       0.960   9.491  18.541  0.00  0.00    +0.000 C 
ATOM     20  S   UNL     1      -0.496   9.761  17.756  0.00  0.00    +0.000 S 
BRANCH  19  21
ATOM     21  N   UNL     1       1.805   8.541  17.992  0.00  0.00    +0.000 N 
ATOM     22  C   UNL     1       2.449   7.507  18.650  0.00  0.00    +0.000 C 
ATOM     23  O   UNL     1       2.229   7.242  19.831  0.00  0.00    +0.000 OA
ATOM     24  H   UNL     1       1.975   8.698  17.001  0.00  0.00    +0.000 HD
BRANCH  22  25
ATOM     25  C   UNL     1       3.345   6.589  17.890  0.00  0.00    +0.000 A 
ATOM     26  C   UNL     1       4.420   7.228  17.241  0.00  0.00    +0.000 A 
ATOM     27  C   UNL     1       5.332   6.514  16.459  0.00  0.00    +0.000 A 
ATOM     28  C   UNL     1       5.193   5.138  16.310  0.00  0.00    +0.000 A 
ATOM     29  C   UNL     1       4.126   4.481  16.916  0.00  0.00    +0.000 A 
ATOM     30  C   UNL     1       3.204   5.212  17.687  0.00  0.00    +0.000 A 
BRANCH  30  31
ATOM     31  N   UNL     1       2.072   4.474  18.202  0.00  0.00    +0.000 N 
ATOM     32  O   UNL     1       1.092   4.368  17.454  0.00  0.00    +0.000 OA
ATOM     33  O   UNL     1       2.154   4.045  19.358  0.00  0.00    +0.000 OA
ENDBRANCH  30  31
ENDBRANCH  22  25
ENDBRANCH  19  21
ENDBRANCH   1  19
TORSDOF 7
ENDMDL
MODEL 5
REMARK VINA RESULT:      -7.7      3.497      8.746
REMARK  Name = 
REMARK  8 active torsions:
REMARK  status: ('A' for Active; 'I' for Inactive)
REMARK    1  A    between atoms: C_1  and  S_2
REMARK    2  A    between atoms: S_2  and  N_5
REMARK    3  A    between atoms: N_8  and  C_9
REMARK    4  A    between atoms: C_14  and  N_15
REMARK    5  A    between atoms: N_15  and  C_16
REMARK    6  A    between atoms: C_16  and  N_18
REMARK    7  A    between atoms: C_19  and  C_21
REMARK    8  A    between atoms: C_26  and  N_27
REMARK                            x       y       z     vdW  Elec       q    Type
REMARK                         _______ _______ _______ _____ _____    ______ ____
ROOT
ATOM      1  N   UNL     1       1.463  10.035  19.756  0.00  0.00    +0.000 N 
ATOM      2  H   UNL     1       2.399  10.440  19.762  0.00  0.00    +0.000 HD
ENDROOT
BRANCH   1   8
ATOM      3  C   UNL     1       0.330  11.542  21.356  0.00  0.00    +0.000 A 
ATOM      4  C   UNL     1      -0.534  11.605  22.475  0.00  0.00    +0.000 A 
ATOM      5  C   UNL     1      -1.025  10.468  23.123  0.00  0.00    +0.000 A 
ATOM      6  C   UNL     1      -0.639   9.213  22.692  0.00  0.00    +0.000 A 
ATOM      7  C   UNL     1       0.248   9.103  21.627  0.00  0.00    +0.000 A 
ATOM      8  C   UNL     1       0.740  10.239  20.958  0.00  0.00    +0.000 A 
BRANCH   3  12
ATOM      9  N   UNL     1       1.445  14.719  18.782  0.00  0.00    +0.000 NA
ATOM     10  C   UNL     1       2.489  13.930  19.495  0.00  0.00    +0.000 C 
ATOM     11  C   UNL     1       1.984  13.395  20.862  0.00  0.00    +0.000 C 
ATOM     12  N   UNL     1       0.684  12.715  20.693  0.00  0.00    +0.000 N 
ATOM     13  C   UNL     1      -0.349  13.575  20.080  0.00  0.00    +0.000 C 
ATOM     14  C   UNL     1       0.135  14.027  18.698  0.00  0.00    +0.000 C 
BRANCH   9  16
ATOM     15  C   UNL     1       2.806  16.668  17.464  0.00  0.00    +0.000 C 
ATOM     16  S   UNL     1       1.534  16.384  18.677  0.00  0.00    +0.000 S 
ATOM     17  O   UNL     1       2.015  16.893  19.942  0.00  0.00    +0.000 OA
ATOM     18  O   UNL     1       0.287  16.855  18.100  0.00  0.00    +0.000 OA
ENDBRANCH   9  16
ENDBRANCH   3  12
ENDBRANCH   1   8
BRANCH   1  19
ATOM     19  C   UNL     1       1.030   9.490  18.568  0.00  0.00    +0.000 C 
ATOM     20  S   UNL     1      -0.405   9.832  17.770  0.00  0.00    +0.000 S 
BRANCH  19  21
ATOM     21  N   UNL     1       1.849   8.526  18.005  0.00  0.00    +0.000 N 
ATOM     22  C   UNL     1       2.482   7.478  18.651  0.00  0.00    +0.000 C 
ATOM     23  O   UNL     1       2.271   7.213  19.834  0.00  0.00    +0.000 OA
ATOM     24  H   UNL     1       2.009   8.684  17.013  0.00  0.00    +0.000 HD
BRANCH  22  25
ATOM     25  C   UNL     1       3.350   6.547  17.877  0.00  0.00    +0.000 A 
ATOM     26  C   UNL     1       4.432   7.167  17.221  0.00  0.00    +0.000 A 
ATOM     27  C   UNL     1       5.321   6.438  16.426  0.00  0.00    +0.000 A 
ATOM     28  C   UNL     1       5.152   5.066  16.270  0.00  0.00    +0.000 A 
ATOM     29  C   UNL     1       4.078   4.428  16.883  0.00  0.00    +0.000 A 
ATOM     30  C   UNL     1       3.179   5.174  17.668  0.00  0.00    +0.000 A 
BRANCH  30  31
ATOM     31  N   UNL     1       2.037   4.457  18.189  0.00  0.00    +0.000 N 
ATOM     32  O   UNL     1       2.133   4.024  19.345  0.00  0.00    +0.000 OA
ATOM     33  O   UNL     1       1.075   4.295  17.431  0.00  0.00    +0.000 OA
ENDBRANCH  30  31
ENDBRANCH  22  25
ENDBRANCH  19  21
ENDBRANCH   1  19
TORSDOF 7
ENDMDL
MODEL 6
REMARK VINA RESULT:      -7.6      0.770      1.217
REMARK  Name = 
REMARK  8 active torsions:
REMARK  status: ('A' for Active; 'I' for Inactive)
REMARK    1  A    between atoms: C_1  and  S_2
REMARK    2  A    between atoms: S_2  and  N_5
REMARK    3  A    between atoms: N_8  and  C_9
REMARK    4  A    between atoms: C_14  and  N_15
REMARK    5  A    between atoms: N_15  and  C_16
REMARK    6  A    between atoms: C_16  and  N_18
REMARK    7  A    between atoms: C_19  and  C_21
REMARK    8  A    between atoms: C_26  and  N_27
REMARK                            x       y       z     vdW  Elec       q    Type
REMARK                         _______ _______ _______ _____ _____    ______ ____
ROOT
ATOM      1  N   UNL     1       3.066   6.314  20.175  0.00  0.00    +0.000 N 
ATOM      2  H   UNL     1       3.758   6.674  20.832  0.00  0.00    +0.000 HD
ENDROOT
BRANCH   1   8
ATOM      3  C   UNL     1       3.396   3.954  19.513  0.00  0.00    +0.000 A 
ATOM      4  C   UNL     1       3.175   2.606  19.882  0.00  0.00    +0.000 A 
ATOM      5  C   UNL     1       2.458   2.237  21.023  0.00  0.00    +0.000 A 
ATOM      6  C   UNL     1       1.902   3.212  21.830  0.00  0.00    +0.000 A 
ATOM      7  C   UNL     1       2.051   4.549  21.480  0.00  0.00    +0.000 A 
ATOM      8  C   UNL     1       2.781   4.935  20.339  0.00  0.00    +0.000 A 
BRANCH   3  12
ATOM      9  N   UNL     1       6.116   4.197  16.272  0.00  0.00    +0.000 NA
ATOM     10  C   UNL     1       6.553   4.569  17.648  0.00  0.00    +0.000 C 
ATOM     11  C   UNL     1       5.386   5.144  18.495  0.00  0.00    +0.000 C 
ATOM     12  N   UNL     1       4.217   4.245  18.425  0.00  0.00    +0.000 N 
ATOM     13  C   UNL     1       3.755   3.993  17.045  0.00  0.00    +0.000 C 
ATOM     14  C   UNL     1       4.896   3.352  16.247  0.00  0.00    +0.000 C 
BRANCH   9  16
ATOM     15  C   UNL     1       6.281   4.030  13.564  0.00  0.00    +0.000 C 
ATOM     16  S   UNL     1       6.534   5.124  14.946  0.00  0.00    +0.000 S 
ATOM     17  O   UNL     1       7.949   5.413  15.022  0.00  0.00    +0.000 OA
ATOM     18  O   UNL     1       5.553   6.188  14.828  0.00  0.00    +0.000 OA
ENDBRANCH   9  16
ENDBRANCH   3  12
ENDBRANCH   1   8
BRANCH   1  19
ATOM     19  C   UNL     1       2.451   7.232  19.354  0.00  0.00    +0.000 C 
ATOM     20  S   UNL     1       2.409   7.211  17.678  0.00  0.00    +0.000 S 
BRANCH  19  21
ATOM     21  N   UNL     1       1.848   8.306  19.986  0.00  0.00    +0.000 N 
ATOM     22  C   UNL     1       0.741   8.281  20.817  0.00  0.00    +0.000 C 
ATOM     23  O   UNL     1       0.227   7.228  21.193  0.00  0.00    +0.000 OA
ATOM     24  H   UNL     1       2.276   9.195  19.736  0.00  0.00    +0.000 HD
BRANCH  22  25
ATOM     25  C   UNL     1       0.216   9.552  21.391  0.00  0.00    +0.000 A 
ATOM     26  C   UNL     1      -0.416   9.409  22.643  0.00  0.00    +0.000 A 
ATOM     27  C   UNL     1      -0.991  10.500  23.300  0.00  0.00    +0.000 A 
ATOM     28  C   UNL     1      -0.945  11.765  22.724  0.00  0.00    +0.000 A 
ATOM     29  C   UNL     1      -0.351  11.934  21.476  0.00  0.00    +0.000 A 
ATOM     30  C   UNL     1       0.210  10.826  20.814  0.00  0.00    +0.000 A 
BRANCH  30  31
ATOM     31  N   UNL     1       0.720  11.066  19.483  0.00  0.00    +0.000 N 
ATOM     32  O   UNL     1       1.646  11.880  19.381  0.00  0.00    +0.000 OA
ATOM     33  O   UNL     1       0.166  10.476  18.549  0.00  0.00    +0.000 OA
ENDBRANCH  30  31
ENDBRANCH  22  25
ENDBRANCH  19  21
ENDBRANCH   1  19
TORSDOF 7
ENDMDL
MODEL 7
REMARK VINA RESULT:      -7.5      3.462      8.678
REMARK  Name = 
REMARK  8 active torsions:
REMARK  status: ('A' for Active; 'I' for Inactive)
REMARK    1  A    between atoms: C_1  and  S_2
REMARK    2  A    between atoms: S_2  and  N_5
REMARK    3  A    between atoms: N_8  and  C_9
REMARK    4  A    between atoms: C_14  and  N_15
REMARK    5  A    between atoms: N_15  and  C_16
REMARK    6  A    between atoms: C_16  and  N_18
REMARK    7  A    between atoms: C_19  and  C_21
REMARK    8  A    between atoms: C_26  and  N_27
REMARK                            x       y       z     vdW  Elec       q    Type
REMARK                         _______ _______ _______ _____ _____    ______ ____
ROOT
ATOM      1  N   UNL     1       1.514   9.958  19.764  0.00  0.00    +0.000 N 
ATOM      2  H   UNL     1       2.482  10.278  19.791  0.00  0.00    +0.000 HD
ENDROOT
BRANCH   1   8
ATOM      3  C   UNL     1       0.431  11.622  21.238  0.00  0.00    +0.000 A 
ATOM      4  C   UNL     1      -0.459  11.803  22.323  0.00  0.00    +0.000 A 
ATOM      5  C   UNL     1      -1.037  10.738  23.019  0.00  0.00    +0.000 A 
ATOM      6  C   UNL     1      -0.718   9.439  22.674  0.00  0.00    +0.000 A 
ATOM      7  C   UNL     1       0.191   9.213  21.646  0.00  0.00    +0.000 A 
ATOM      8  C   UNL     1       0.771  10.276  20.928  0.00  0.00    +0.000 A 
BRANCH   3  12
ATOM      9  N   UNL     1       1.504  15.362  19.555  0.00  0.00    +0.000 NA
ATOM     10  C   UNL     1       0.205  14.723  19.199  0.00  0.00    +0.000 C 
ATOM     11  C   UNL     1       0.284  13.174  19.242  0.00  0.00    +0.000 C 
ATOM     12  N   UNL     1       0.875  12.731  20.520  0.00  0.00    +0.000 N 
ATOM     13  C   UNL     1       2.212  13.307  20.776  0.00  0.00    +0.000 C 
ATOM     14  C   UNL     1       2.097  14.835  20.810  0.00  0.00    +0.000 C 
BRANCH   9  16
ATOM     15  C   UNL     1       3.798  16.802  19.331  0.00  0.00    +0.000 C 
ATOM     16  S   UNL     1       2.470  16.075  18.394  0.00  0.00    +0.000 S 
ATOM     17  O   UNL     1       1.725  17.154  17.784  0.00  0.00    +0.000 OA
ATOM     18  O   UNL     1       3.050  15.012  17.593  0.00  0.00    +0.000 OA
ENDBRANCH   9  16
ENDBRANCH   3  12
ENDBRANCH   1   8
BRANCH   1  19
ATOM     19  C   UNL     1       1.075   9.404  18.582  0.00  0.00    +0.000 C 
ATOM     20  S   UNL     1      -0.367   9.734  17.793  0.00  0.00    +0.000 S 
BRANCH  19  21
ATOM     21  N   UNL     1       1.896   8.442  18.019  0.00  0.00    +0.000 N 
ATOM     22  C   UNL     1       2.503   7.375  18.657  0.00  0.00    +0.000 C 
ATOM     23  O   UNL     1       2.265   7.090  19.830  0.00  0.00    +0.000 OA
ATOM     24  H   UNL     1       2.079   8.617  17.033  0.00  0.00    +0.000 HD
BRANCH  22  25
ATOM     25  C   UNL     1       3.378   6.449  17.883  0.00  0.00    +0.000 A 
ATOM     26  C   UNL     1       4.464   7.074  17.238  0.00  0.00    +0.000 A 
ATOM     27  C   UNL     1       5.358   6.351  16.445  0.00  0.00    +0.000 A 
ATOM     28  C   UNL     1       5.192   4.980  16.280  0.00  0.00    +0.000 A 
ATOM     29  C   UNL     1       4.115   4.337  16.882  0.00  0.00    +0.000 A 
ATOM     30  C   UNL     1       3.209   5.078  17.665  0.00  0.00    +0.000 A 
BRANCH  30  31
ATOM     31  N   UNL     1       2.065   4.356  18.175  0.00  0.00    +0.000 N 
ATOM     32  O   UNL     1       1.080   4.278  17.430  0.00  0.00    +0.000 OA
ATOM     33  O   UNL     1       2.142   3.912  19.325  0.00  0.00    +0.000 OA
ENDBRANCH  30  31
ENDBRANCH  22  25
ENDBRANCH  19  21
ENDBRANCH   1  19
TORSDOF 7
ENDMDL
MODEL 8
REMARK VINA RESULT:      -7.5      0.882      1.048
REMARK  Name = 
REMARK  8 active torsions:
REMARK  status: ('A' for Active; 'I' for Inactive)
REMARK    1  A    between atoms: C_1  and  S_2
REMARK    2  A    between atoms: S_2  and  N_5
REMARK    3  A    between atoms: N_8  and  C_9
REMARK    4  A    between atoms: C_14  and  N_15
REMARK    5  A    between atoms: N_15  and  C_16
REMARK    6  A    between atoms: C_16  and  N_18
REMARK    7  A    between atoms: C_19  and  C_21
REMARK    8  A    between atoms: C_26  and  N_27
REMARK                            x       y       z     vdW  Elec       q    Type
REMARK                         _______ _______ _______ _____ _____    ______ ____
ROOT
ATOM      1  N   UNL     1       2.809   6.003  20.354  0.00  0.00    +0.000 N 
ATOM      2  H   UNL     1       3.507   6.182  21.076  0.00  0.00    +0.000 HD
ENDROOT
BRANCH   1   8
ATOM      3  C   UNL     1       3.050   3.728  19.415  0.00  0.00    +0.000 A 
ATOM      4  C   UNL     1       2.671   2.372  19.552  0.00  0.00    +0.000 A 
ATOM      5  C   UNL     1       1.761   1.930  20.517  0.00  0.00    +0.000 A 
ATOM      6  C   UNL     1       1.166   2.842  21.367  0.00  0.00    +0.000 A 
ATOM      7  C   UNL     1       1.471   4.192  21.237  0.00  0.00    +0.000 A 
ATOM      8  C   UNL     1       2.395   4.649  20.278  0.00  0.00    +0.000 A 
BRANCH   3  12
ATOM      9  N   UNL     1       5.855   5.419  16.724  0.00  0.00    +0.000 NA
ATOM     10  C   UNL     1       4.544   4.916  16.224  0.00  0.00    +0.000 C 
ATOM     11  C   UNL     1       4.012   3.730  17.072  0.00  0.00    +0.000 C 
ATOM     12  N   UNL     1       4.049   4.075  18.507  0.00  0.00    +0.000 N 
ATOM     13  C   UNL     1       5.394   4.463  18.980  0.00  0.00    +0.000 C 
ATOM     14  C   UNL     1       5.868   5.684  18.185  0.00  0.00    +0.000 C 
BRANCH   9  16
ATOM     15  C   UNL     1       6.743   4.259  14.433  0.00  0.00    +0.000 C 
ATOM     16  S   UNL     1       7.277   5.105  15.906  0.00  0.00    +0.000 S 
ATOM     17  O   UNL     1       8.054   4.170  16.689  0.00  0.00    +0.000 OA
ATOM     18  O   UNL     1       7.832   6.379  15.485  0.00  0.00    +0.000 OA
ENDBRANCH   9  16
ENDBRANCH   3  12
ENDBRANCH   1   8
BRANCH   1  19
ATOM     19  C   UNL     1       2.308   7.099  19.688  0.00  0.00    +0.000 C 
ATOM     20  S   UNL     1       2.579   7.510  18.085  0.00  0.00    +0.000 S 
BRANCH  19  21
ATOM     21  N   UNL     1       1.541   7.971  20.441  0.00  0.00    +0.000 N 
ATOM     22  C   UNL     1       1.056   9.211  20.060  0.00  0.00    +0.000 C 
ATOM     23  O   UNL     1       1.162   9.630  18.908  0.00  0.00    +0.000 OA
ATOM     24  H   UNL     1       1.390   7.636  21.390  0.00  0.00    +0.000 HD
BRANCH  22  25
ATOM     25  C   UNL     1       0.260  10.023  21.023  0.00  0.00    +0.000 A 
ATOM     26  C   UNL     1      -0.009   9.380  22.247  0.00  0.00    +0.000 A 
ATOM     27  C   UNL     1      -0.771   9.994  23.244  0.00  0.00    +0.000 A 
ATOM     28  C   UNL     1      -1.282  11.272  23.044  0.00  0.00    +0.000 A 
ATOM     29  C   UNL     1      -1.056  11.924  21.835  0.00  0.00    +0.000 A 
ATOM     30  C   UNL     1      -0.301  11.290  20.830  0.00  0.00    +0.000 A 
BRANCH  30  31
ATOM     31  N   UNL     1      -0.195  11.992  19.571  0.00  0.00    +0.000 N 
ATOM     32  O   UNL     1      -1.087  11.780  18.740  0.00  0.00    +0.000 OA
ATOM     33  O   UNL     1       0.796  12.712  19.406  0.00  0.00    +0.000 OA
ENDBRANCH  30  31
ENDBRANCH  22  25
ENDBRANCH  19  21
ENDBRANCH   1  19
TORSDOF 7
ENDMDL
MODEL 9
REMARK VINA RESULT:      -7.5      3.426      8.737
REMARK  Name = 
REMARK  8 active torsions:
REMARK  status: ('A' for Active; 'I' for Inactive)
REMARK    1  A    between atoms: C_1  and  S_2
REMARK    2  A    between atoms: S_2  and  N_5
REMARK    3  A    between atoms: N_8  and  C_9
REMARK    4  A    between atoms: C_14  and  N_15
REMARK    5  A    between atoms: N_15  and  C_16
REMARK    6  A    between atoms: C_16  and  N_18
REMARK    7  A    between atoms: C_19  and  C_21
REMARK    8  A    between atoms: C_26  and  N_27
REMARK                            x       y       z     vdW  Elec       q    Type
REMARK                         _______ _______ _______ _____ _____    ______ ____
ROOT
ATOM      1  N   UNL     1       1.291   9.769  18.940  0.00  0.00    +0.000 N 
ATOM      2  H   UNL     1       2.086  10.008  18.347  0.00  0.00    +0.000 HD
ENDROOT
BRANCH   1   8
ATOM      3  C   UNL     1      -0.061  11.829  18.722  0.00  0.00    +0.000 A 
ATOM      4  C   UNL     1      -1.233  12.392  18.164  0.00  0.00    +0.000 A 
ATOM      5  C   UNL     1      -2.169  11.642  17.446  0.00  0.00    +0.000 A 
ATOM      6  C   UNL     1      -1.984  10.282  17.288  0.00  0.00    +0.000 A 
ATOM      7  C   UNL     1      -0.872   9.677  17.862  0.00  0.00    +0.000 A 
ATOM      8  C   UNL     1       0.086  10.422  18.576  0.00  0.00    +0.000 A 
BRANCH   3  12
ATOM      9  N   UNL     1       2.313  14.823  20.558  0.00  0.00    +0.000 NA
ATOM     10  C   UNL     1       2.276  14.700  19.072  0.00  0.00    +0.000 C 
ATOM     11  C   UNL     1       2.043  13.236  18.613  0.00  0.00    +0.000 C 
ATOM     12  N   UNL     1       0.883  12.660  19.323  0.00  0.00    +0.000 N 
ATOM     13  C   UNL     1       1.016  12.707  20.794  0.00  0.00    +0.000 C 
ATOM     14  C   UNL     1       1.165  14.168  21.233  0.00  0.00    +0.000 C 
BRANCH   9  16
ATOM     15  C   UNL     1       3.815  16.841  21.586  0.00  0.00    +0.000 C 
ATOM     16  S   UNL     1       3.748  15.074  21.374  0.00  0.00    +0.000 S 
ATOM     17  O   UNL     1       4.839  14.698  20.502  0.00  0.00    +0.000 OA
ATOM     18  O   UNL     1       3.607  14.495  22.698  0.00  0.00    +0.000 OA
ENDBRANCH   9  16
ENDBRANCH   3  12
ENDBRANCH   1   8
BRANCH   1  19
ATOM     19  C   UNL     1       1.490   8.785  19.882  0.00  0.00    +0.000 C 
ATOM     20  S   UNL     1       1.269   8.919  21.538  0.00  0.00    +0.000 S 
BRANCH  19  21
ATOM     21  N   UNL     1       1.968   7.575  19.406  0.00  0.00    +0.000 N 
ATOM     22  C   UNL     1       2.607   7.338  18.202  0.00  0.00    +0.000 C 
ATOM     23  O   UNL     1       2.942   8.249  17.445  0.00  0.00    +0.000 OA
ATOM     24  H   UNL     1       1.752   6.800  20.030  0.00  0.00    +0.000 HD
BRANCH  22  25
ATOM     25  C   UNL     1       3.033   5.954  17.849  0.00  0.00    +0.000 A 
ATOM     26  C   UNL     1       2.186   4.940  18.339  0.00  0.00    +0.000 A 
ATOM     27  C   UNL     1       2.463   3.587  18.124  0.00  0.00    +0.000 A 
ATOM     28  C   UNL     1       3.595   3.213  17.408  0.00  0.00    +0.000 A 
ATOM     29  C   UNL     1       4.466   4.189  16.933  0.00  0.00    +0.000 A 
ATOM     30  C   UNL     1       4.187   5.548  17.170  0.00  0.00    +0.000 A 
BRANCH  30  31
ATOM     31  N   UNL     1       5.188   6.493  16.730  0.00  0.00    +0.000 N 
ATOM     32  O   UNL     1       5.987   6.895  17.585  0.00  0.00    +0.000 OA
ATOM     33  O   UNL     1       5.143   6.858  15.550  0.00  0.00    +0.000 OA
ENDBRANCH  30  31
ENDBRANCH  22  25
ENDBRANCH  19  21
ENDBRANCH   1  19
TORSDOF 7
ENDMDL
