MODEL 1
REMARK VINA RESULT:      -6.3      0.000      0.000
REMARK  Name = 
REMARK  6 active torsions:
REMARK  status: ('A' for Active; 'I' for Inactive)
REMARK    1  A    between atoms: C_1  and  C_2
REMARK    2  A    between atoms: C_4  and  C_5
REMARK    3  A    between atoms: C_5  and  N_6
REMARK    4  A    between atoms: N_6  and  C_7
REMARK    5  A    between atoms: C_7  and  C_8
REMARK    6  A    between atoms: C_7  and  C_9
REMARK                            x       y       z     vdW  Elec       q    Type
REMARK                         _______ _______ _______ _____ _____    ______ ____
ROOT
ATOM      1  N   UNL     1       4.832   5.547  18.690  0.00  0.00    +0.000 NA
ATOM      2  H   UNL     1       5.761   5.958  18.586  0.00  0.00    +0.000 HD
ENDROOT
BRANCH   1   3
ATOM      3  C   UNL     1       3.930   6.126  17.681  0.00  0.00    +0.000 C 
ATOM      4  C   UNL     1       4.768   6.807  16.594  0.00  0.00    +0.000 C 
BRANCH   3   5
ATOM      5  C   UNL     1       2.935   7.097  18.302  0.00  0.00    +0.000 A 
ATOM      6  C   UNL     1       2.489   6.895  19.619  0.00  0.00    +0.000 A 
ATOM      7  C   UNL     1       1.691   7.847  20.256  0.00  0.00    +0.000 A 
ATOM      8  C   UNL     1       1.324   9.007  19.576  0.00  0.00    +0.000 A 
ATOM      9 BR   UNL     1       0.308  10.332  20.464  0.00  0.00    +0.000 Br
ATOM     10  C   UNL     1       1.720   9.207  18.257  0.00  0.00    +0.000 A 
ATOM     11  C   UNL     1       2.520   8.255  17.621  0.00  0.00    +0.000 A 
ENDBRANCH   3   5
ENDBRANCH   1   3
BRANCH   1  12
ATOM     12  C   UNL     1       4.979   4.097  18.530  0.00  0.00    +0.000 C 
BRANCH  12  16
ATOM     13  C   UNL     1       1.383   2.619  21.621  0.00  0.00    +0.000 C 
ATOM     14  C   UNL     1       2.122   2.809  20.344  0.00  0.00    +0.000 A 
ATOM     15  N   UNL     1       3.253   3.472  20.223  0.00  0.00    +0.000 NA
ATOM     16  C   UNL     1       3.685   3.438  18.901  0.00  0.00    +0.000 A 
ATOM     17  C   UNL     1       2.842   2.758  18.039  0.00  0.00    +0.000 A 
ATOM     18  S   UNL     1       1.504   2.124  18.893  0.00  0.00    +0.000 S 
ENDBRANCH  12  16
ENDBRANCH   1  12
TORSDOF 4
ENDMDL
MODEL 2
REMARK VINA RESULT:      -6.2      0.175      1.186
REMARK  Name = 
REMARK  6 active torsions:
REMARK  status: ('A' for Active; 'I' for Inactive)
REMARK    1  A    between atoms: C_1  and  C_2
REMARK    2  A    between atoms: C_4  and  C_5
REMARK    3  A    between atoms: C_5  and  N_6
REMARK    4  A    between atoms: N_6  and  C_7
REMARK    5  A    between atoms: C_7  and  C_8
REMARK    6  A    between atoms: C_7  and  C_9
REMARK                            x       y       z     vdW  Elec       q    Type
REMARK                         _______ _______ _______ _____ _____    ______ ____
ROOT
ATOM      1  N   UNL     1       4.834   5.467  18.569  0.00  0.00    +0.000 NA
ATOM      2  H   UNL     1       5.778   5.821  18.405  0.00  0.00    +0.000 HD
ENDROOT
BRANCH   1   3
ATOM      3  C   UNL     1       3.900   6.127  17.642  0.00  0.00    +0.000 C 
ATOM      4  C   UNL     1       4.697   6.751  16.491  0.00  0.00    +0.000 C 
BRANCH   3   5
ATOM      5  C   UNL     1       3.043   7.169  18.349  0.00  0.00    +0.000 A 
ATOM      6  C   UNL     1       2.624   8.317  17.656  0.00  0.00    +0.000 A 
ATOM      7  C   UNL     1       1.723   9.212  18.238  0.00  0.00    +0.000 A 
ATOM      8  C   UNL     1       1.241   8.969  19.523  0.00  0.00    +0.000 A 
ATOM      9 BR   UNL     1      -0.037  10.138  20.280  0.00  0.00    +0.000 Br
ATOM     10  C   UNL     1       1.676   7.859  20.242  0.00  0.00    +0.000 A 
ATOM     11  C   UNL     1       2.575   6.964  19.659  0.00  0.00    +0.000 A 
ENDBRANCH   3   5
ENDBRANCH   1   3
BRANCH   1  12
ATOM     12  C   UNL     1       4.874   4.015  18.368  0.00  0.00    +0.000 C 
BRANCH  12  16
ATOM     13  C   UNL     1       1.342   2.696  21.600  0.00  0.00    +0.000 C 
ATOM     14  C   UNL     1       2.029   2.871  20.292  0.00  0.00    +0.000 A 
ATOM     15  N   UNL     1       3.195   3.461  20.131  0.00  0.00    +0.000 NA
ATOM     16  C   UNL     1       3.559   3.434  18.788  0.00  0.00    +0.000 A 
ATOM     17  C   UNL     1       2.631   2.834  17.953  0.00  0.00    +0.000 A 
ATOM     18  S   UNL     1       1.297   2.267  18.859  0.00  0.00    +0.000 S 
ENDBRANCH  12  16
ENDBRANCH   1  12
TORSDOF 4
ENDMDL
MODEL 3
REMARK VINA RESULT:      -6.2      2.169      3.734
REMARK  Name = 
REMARK  6 active torsions:
REMARK  status: ('A' for Active; 'I' for Inactive)
REMARK    1  A    between atoms: C_1  and  C_2
REMARK    2  A    between atoms: C_4  and  C_5
REMARK    3  A    between atoms: C_5  and  N_6
REMARK    4  A    between atoms: N_6  and  C_7
REMARK    5  A    between atoms: C_7  and  C_8
REMARK    6  A    between atoms: C_7  and  C_9
REMARK                            x       y       z     vdW  Elec       q    Type
REMARK                         _______ _______ _______ _____ _____    ______ ____
ROOT
ATOM      1  N   UNL     1       2.603   3.907  18.513  0.00  0.00    +0.000 NA
ATOM      2  H   UNL     1       1.796   3.291  18.409  0.00  0.00    +0.000 HD
ENDROOT
BRANCH   1   3
ATOM      3  C   UNL     1       2.497   4.634  19.789  0.00  0.00    +0.000 C 
ATOM      4  C   UNL     1       1.349   4.038  20.610  0.00  0.00    +0.000 C 
BRANCH   3   5
ATOM      5  C   UNL     1       2.305   6.129  19.574  0.00  0.00    +0.000 A 
ATOM      6  C   UNL     1       2.557   6.693  18.312  0.00  0.00    +0.000 A 
ATOM      7  C   UNL     1       2.252   8.030  18.055  0.00  0.00    +0.000 A 
ATOM      8  C   UNL     1       1.701   8.820  19.062  0.00  0.00    +0.000 A 
ATOM      9 BR   UNL     1       1.216  10.609  18.691  0.00  0.00    +0.000 Br
ATOM     10  C   UNL     1       1.482   8.292  20.332  0.00  0.00    +0.000 A 
ATOM     11  C   UNL     1       1.785   6.953  20.588  0.00  0.00    +0.000 A 
ENDBRANCH   3   5
ENDBRANCH   1   3
BRANCH   1  12
ATOM     12  C   UNL     1       3.802   3.064  18.458  0.00  0.00    +0.000 C 
BRANCH  12  16
ATOM     13  C   UNL     1       7.869   5.829  19.151  0.00  0.00    +0.000 C 
ATOM     14  C   UNL     1       6.772   5.134  18.424  0.00  0.00    +0.000 A 
ATOM     15  N   UNL     1       5.849   4.388  18.996  0.00  0.00    +0.000 NA
ATOM     16  C   UNL     1       4.965   3.908  18.035  0.00  0.00    +0.000 A 
ATOM     17  C   UNL     1       5.263   4.291  16.737  0.00  0.00    +0.000 A 
ATOM     18  S   UNL     1       6.650   5.291  16.717  0.00  0.00    +0.000 S 
ENDBRANCH  12  16
ENDBRANCH   1  12
TORSDOF 4
ENDMDL
MODEL 4
REMARK VINA RESULT:      -6.2      2.763      4.667
REMARK  Name = 
REMARK  6 active torsions:
REMARK  status: ('A' for Active; 'I' for Inactive)
REMARK    1  A    between atoms: C_1  and  C_2
REMARK    2  A    between atoms: C_4  and  C_5
REMARK    3  A    between atoms: C_5  and  N_6
REMARK    4  A    between atoms: N_6  and  C_7
REMARK    5  A    between atoms: C_7  and  C_8
REMARK    6  A    between atoms: C_7  and  C_9
REMARK                            x       y       z     vdW  Elec       q    Type
REMARK                         _______ _______ _______ _____ _____    ______ ____
ROOT
ATOM      1  N   UNL     1       4.445   4.437  16.237  0.00  0.00    +0.000 NA
ATOM      2  H   UNL     1       3.989   4.000  15.434  0.00  0.00    +0.000 HD
ENDROOT
BRANCH   1   3
ATOM      3  C   UNL     1       3.878   3.883  17.478  0.00  0.00    +0.000 C 
ATOM      4  C   UNL     1       2.786   2.870  17.119  0.00  0.00    +0.000 C 
BRANCH   3   5
ATOM      5  C   UNL     1       3.339   4.977  18.390  0.00  0.00    +0.000 A 
ATOM      6  C   UNL     1       3.265   6.301  17.927  0.00  0.00    +0.000 A 
ATOM      7  C   UNL     1       2.644   7.291  18.692  0.00  0.00    +0.000 A 
ATOM      8  C   UNL     1       2.100   6.965  19.933  0.00  0.00    +0.000 A 
ATOM      9 BR   UNL     1       1.192   8.287  20.934  0.00  0.00    +0.000 Br
ATOM     10  C   UNL     1       2.200   5.668  20.429  0.00  0.00    +0.000 A 
ATOM     11  C   UNL     1       2.819   4.679  19.662  0.00  0.00    +0.000 A 
ENDBRANCH   3   5
ENDBRANCH   1   3
BRANCH   1  12
ATOM     12  C   UNL     1       5.881   4.167  16.120  0.00  0.00    +0.000 C 
BRANCH  12  16
ATOM     13  C   UNL     1       7.792   8.504  17.606  0.00  0.00    +0.000 C 
ATOM     14  C   UNL     1       7.448   7.057  17.638  0.00  0.00    +0.000 A 
ATOM     15  N   UNL     1       6.735   6.435  16.722  0.00  0.00    +0.000 NA
ATOM     16  C   UNL     1       6.621   5.086  17.044  0.00  0.00    +0.000 A 
ATOM     17  C   UNL     1       7.242   4.724  18.227  0.00  0.00    +0.000 A 
ATOM     18  S   UNL     1       8.006   6.078  18.936  0.00  0.00    +0.000 S 
ENDBRANCH  12  16
ENDBRANCH   1  12
TORSDOF 4
ENDMDL
MODEL 5
REMARK VINA RESULT:      -6.2      3.990      5.649
REMARK  Name = 
REMARK  6 active torsions:
REMARK  status: ('A' for Active; 'I' for Inactive)
REMARK    1  A    between atoms: C_1  and  C_2
REMARK    2  A    between atoms: C_4  and  C_5
REMARK    3  A    between atoms: C_5  and  N_6
REMARK    4  A    between atoms: N_6  and  C_7
REMARK    5  A    between atoms: C_7  and  C_8
REMARK    6  A    between atoms: C_7  and  C_9
REMARK                            x       y       z     vdW  Elec       q    Type
REMARK                         _______ _______ _______ _____ _____    ______ ____
ROOT
ATOM      1  N   UNL     1       6.802   4.329  18.500  0.00  0.00    +0.000 NA
ATOM      2  H   UNL     1       6.200   3.606  18.102  0.00  0.00    +0.000 HD
ENDROOT
BRANCH   1   3
ATOM      3  C   UNL     1       7.446   5.079  17.409  0.00  0.00    +0.000 C 
ATOM      4  C   UNL     1       7.325   6.579  17.696  0.00  0.00    +0.000 C 
BRANCH   3   5
ATOM      5  C   UNL     1       6.853   4.725  16.052  0.00  0.00    +0.000 A 
ATOM      6  C   UNL     1       7.518   5.110  14.876  0.00  0.00    +0.000 A 
ATOM      7  C   UNL     1       7.068   4.675  13.628  0.00  0.00    +0.000 A 
ATOM      8  C   UNL     1       5.942   3.858  13.545  0.00  0.00    +0.000 A 
ATOM      9 BR   UNL     1       5.379   3.206  11.862  0.00  0.00    +0.000 Br
ATOM     10  C   UNL     1       5.245   3.499  14.695  0.00  0.00    +0.000 A 
ATOM     11  C   UNL     1       5.696   3.933  15.943  0.00  0.00    +0.000 A 
ENDBRANCH   3   5
ENDBRANCH   1   3
BRANCH   1  12
ATOM     12  C   UNL     1       5.954   5.188  19.332  0.00  0.00    +0.000 C 
BRANCH  12  16
ATOM     13  C   UNL     1       1.989   2.196  19.318  0.00  0.00    +0.000 C 
ATOM     14  C   UNL     1       2.796   3.430  19.115  0.00  0.00    +0.000 A 
ATOM     15  N   UNL     1       4.067   3.556  19.438  0.00  0.00    +0.000 NA
ATOM     16  C   UNL     1       4.520   4.826  19.094  0.00  0.00    +0.000 A 
ATOM     17  C   UNL     1       3.556   5.647  18.531  0.00  0.00    +0.000 A 
ATOM     18  S   UNL     1       2.069   4.814  18.401  0.00  0.00    +0.000 S 
ENDBRANCH  12  16
ENDBRANCH   1  12
TORSDOF 4
ENDMDL
MODEL 6
REMARK VINA RESULT:      -6.1      2.344      3.965
REMARK  Name = 
REMARK  6 active torsions:
REMARK  status: ('A' for Active; 'I' for Inactive)
REMARK    1  A    between atoms: C_1  and  C_2
REMARK    2  A    between atoms: C_4  and  C_5
REMARK    3  A    between atoms: C_5  and  N_6
REMARK    4  A    between atoms: N_6  and  C_7
REMARK    5  A    between atoms: C_7  and  C_8
REMARK    6  A    between atoms: C_7  and  C_9
REMARK                            x       y       z     vdW  Elec       q    Type
REMARK                         _______ _______ _______ _____ _____    ______ ____
ROOT
ATOM      1  N   UNL     1       2.651   5.064  18.248  0.00  0.00    +0.000 NA
ATOM      2  H   UNL     1       1.672   4.780  18.188  0.00  0.00    +0.000 HD
ENDROOT
BRANCH   1   3
ATOM      3  C   UNL     1       2.859   5.831  19.487  0.00  0.00    +0.000 C 
ATOM      4  C   UNL     1       2.236   5.065  20.659  0.00  0.00    +0.000 C 
BRANCH   3   5
ATOM      5  C   UNL     1       2.289   7.240  19.383  0.00  0.00    +0.000 A 
ATOM      6  C   UNL     1       2.321   7.918  18.153  0.00  0.00    +0.000 A 
ATOM      7  C   UNL     1       1.679   9.148  18.000  0.00  0.00    +0.000 A 
ATOM      8  C   UNL     1       1.006   9.716  19.081  0.00  0.00    +0.000 A 
ATOM      9 BR   UNL     1       0.072  11.343  18.853  0.00  0.00    +0.000 Br
ATOM     10  C   UNL     1       0.997   9.080  20.319  0.00  0.00    +0.000 A 
ATOM     11  C   UNL     1       1.638   7.848  20.470  0.00  0.00    +0.000 A 
ENDBRANCH   3   5
ENDBRANCH   1   3
BRANCH   1  12
ATOM     12  C   UNL     1       3.460   3.842  18.215  0.00  0.00    +0.000 C 
BRANCH  12  16
ATOM     13  C   UNL     1       6.663   4.346  14.452  0.00  0.00    +0.000 C 
ATOM     14  C   UNL     1       6.154   4.355  15.851  0.00  0.00    +0.000 A 
ATOM     15  N   UNL     1       4.914   4.079  16.199  0.00  0.00    +0.000 NA
ATOM     16  C   UNL     1       4.781   4.156  17.582  0.00  0.00    +0.000 A 
ATOM     17  C   UNL     1       5.939   4.518  18.251  0.00  0.00    +0.000 A 
ATOM     18  S   UNL     1       7.222   4.736  17.142  0.00  0.00    +0.000 S 
ENDBRANCH  12  16
ENDBRANCH   1  12
TORSDOF 4
ENDMDL
MODEL 7
REMARK VINA RESULT:      -6.1      2.723      4.418
REMARK  Name = 
REMARK  6 active torsions:
REMARK  status: ('A' for Active; 'I' for Inactive)
REMARK    1  A    between atoms: C_1  and  C_2
REMARK    2  A    between atoms: C_4  and  C_5
REMARK    3  A    between atoms: C_5  and  N_6
REMARK    4  A    between atoms: N_6  and  C_7
REMARK    5  A    between atoms: C_7  and  C_8
REMARK    6  A    between atoms: C_7  and  C_9
REMARK                            x       y       z     vdW  Elec       q    Type
REMARK                         _______ _______ _______ _____ _____    ______ ____
ROOT
ATOM      1  N   UNL     1       4.127   4.758  16.498  0.00  0.00    +0.000 NA
ATOM      2  H   UNL     1       3.611   4.419  15.685  0.00  0.00    +0.000 HD
ENDROOT
BRANCH   1   3
ATOM      3  C   UNL     1       3.530   4.197  17.721  0.00  0.00    +0.000 C 
ATOM      4  C   UNL     1       2.555   3.080  17.333  0.00  0.00    +0.000 C 
BRANCH   3   5
ATOM      5  C   UNL     1       2.840   5.267  18.556  0.00  0.00    +0.000 A 
ATOM      6  C   UNL     1       2.269   4.929  19.795  0.00  0.00    +0.000 A 
ATOM      7  C   UNL     1       1.760   5.917  20.639  0.00  0.00    +0.000 A 
ATOM      8  C   UNL     1       1.808   7.253  20.247  0.00  0.00    +0.000 A 
ATOM      9 BR   UNL     1       1.189   8.598  21.422  0.00  0.00    +0.000 Br
ATOM     10  C   UNL     1       2.332   7.606  19.006  0.00  0.00    +0.000 A 
ATOM     11  C   UNL     1       2.843   6.617  18.163  0.00  0.00    +0.000 A 
ENDBRANCH   3   5
ENDBRANCH   1   3
BRANCH   1  12
ATOM     12  C   UNL     1       5.524   4.345  16.328  0.00  0.00    +0.000 C 
BRANCH  12  16
ATOM     13  C   UNL     1       7.875   8.520  17.634  0.00  0.00    +0.000 C 
ATOM     14  C   UNL     1       7.413   7.108  17.708  0.00  0.00    +0.000 A 
ATOM     15  N   UNL     1       6.598   6.539  16.844  0.00  0.00    +0.000 NA
ATOM     16  C   UNL     1       6.390   5.208  17.193  0.00  0.00    +0.000 A 
ATOM     17  C   UNL     1       7.047   4.806  18.345  0.00  0.00    +0.000 A 
ATOM     18  S   UNL     1       7.963   6.099  18.987  0.00  0.00    +0.000 S 
ENDBRANCH  12  16
ENDBRANCH   1  12
TORSDOF 4
ENDMDL
MODEL 8
REMARK VINA RESULT:      -6.1      3.864      5.457
REMARK  Name = 
REMARK  6 active torsions:
REMARK  status: ('A' for Active; 'I' for Inactive)
REMARK    1  A    between atoms: C_1  and  C_2
REMARK    2  A    between atoms: C_4  and  C_5
REMARK    3  A    between atoms: C_5  and  N_6
REMARK    4  A    between atoms: N_6  and  C_7
REMARK    5  A    between atoms: C_7  and  C_8
REMARK    6  A    between atoms: C_7  and  C_9
REMARK                            x       y       z     vdW  Elec       q    Type
REMARK                         _______ _______ _______ _____ _____    ______ ____
ROOT
ATOM      1  N   UNL     1       6.505   4.365  18.707  0.00  0.00    +0.000 NA
ATOM      2  H   UNL     1       5.947   3.617  18.293  0.00  0.00    +0.000 HD
ENDROOT
BRANCH   1   3
ATOM      3  C   UNL     1       7.352   4.971  17.667  0.00  0.00    +0.000 C 
ATOM      4  C   UNL     1       7.300   6.497  17.806  0.00  0.00    +0.000 C 
BRANCH   3   5
ATOM      5  C   UNL     1       6.936   4.529  16.270  0.00  0.00    +0.000 A 
ATOM      6  C   UNL     1       5.884   3.612  16.111  0.00  0.00    +0.000 A 
ATOM      7  C   UNL     1       5.394   3.303  14.841  0.00  0.00    +0.000 A 
ATOM      8  C   UNL     1       5.959   3.902  13.717  0.00  0.00    +0.000 A 
ATOM      9 BR   UNL     1       5.245   3.543  12.004  0.00  0.00    +0.000 Br
ATOM     10  C   UNL     1       7.030   4.782  13.850  0.00  0.00    +0.000 A 
ATOM     11  C   UNL     1       7.518   5.093  15.121  0.00  0.00    +0.000 A 
ENDBRANCH   3   5
ENDBRANCH   1   3
BRANCH   1  12
ATOM     12  C   UNL     1       5.569   5.334  19.288  0.00  0.00    +0.000 C 
BRANCH  12  16
ATOM     13  C   UNL     1       1.501   2.557  19.926  0.00  0.00    +0.000 C 
ATOM     14  C   UNL     1       2.392   3.599  19.347  0.00  0.00    +0.000 A 
ATOM     15  N   UNL     1       3.605   3.872  19.780  0.00  0.00    +0.000 NA
ATOM     16  C   UNL     1       4.170   4.881  19.005  0.00  0.00    +0.000 A 
ATOM     17  C   UNL     1       3.345   5.365  18.003  0.00  0.00    +0.000 A 
ATOM     18  S   UNL     1       1.852   4.532  18.009  0.00  0.00    +0.000 S 
ENDBRANCH  12  16
ENDBRANCH   1  12
TORSDOF 4
ENDMDL
MODEL 9
REMARK VINA RESULT:      -6.0      2.219      3.622
REMARK  Name = 
REMARK  6 active torsions:
REMARK  status: ('A' for Active; 'I' for Inactive)
REMARK    1  A    between atoms: C_1  and  C_2
REMARK    2  A    between atoms: C_4  and  C_5
REMARK    3  A    between atoms: C_5  and  N_6
REMARK    4  A    between atoms: N_6  and  C_7
REMARK    5  A    between atoms: C_7  and  C_8
REMARK    6  A    between atoms: C_7  and  C_9
REMARK                            x       y       z     vdW  Elec       q    Type
REMARK                         _______ _______ _______ _____ _____    ______ ____
ROOT
ATOM      1  N   UNL     1       2.713   4.048  18.737  0.00  0.00    +0.000 NA
ATOM      2  H   UNL     1       1.946   3.392  18.897  0.00  0.00    +0.000 HD
ENDROOT
BRANCH   1   3
ATOM      3  C   UNL     1       2.823   4.958  19.889  0.00  0.00    +0.000 C 
ATOM      4  C   UNL     1       2.069   4.352  21.077  0.00  0.00    +0.000 C 
BRANCH   3   5
ATOM      5  C   UNL     1       2.306   6.352  19.558  0.00  0.00    +0.000 A 
ATOM      6  C   UNL     1       1.722   7.138  20.566  0.00  0.00    +0.000 A 
ATOM      7  C   UNL     1       1.373   8.467  20.320  0.00  0.00    +0.000 A 
ATOM      8  C   UNL     1       1.595   9.019  19.060  0.00  0.00    +0.000 A 
ATOM      9 BR   UNL     1       1.194  10.840  18.749  0.00  0.00    +0.000 Br
ATOM     10  C   UNL     1       2.134   8.244  18.036  0.00  0.00    +0.000 A 
ATOM     11  C   UNL     1       2.486   6.916  18.283  0.00  0.00    +0.000 A 
ENDBRANCH   3   5
ENDBRANCH   1   3
BRANCH   1  12
ATOM     12  C   UNL     1       3.930   3.252  18.546  0.00  0.00    +0.000 C 
BRANCH  12  16
ATOM     13  C   UNL     1       8.074   5.922  19.158  0.00  0.00    +0.000 C 
ATOM     14  C   UNL     1       6.891   5.335  18.472  0.00  0.00    +0.000 A 
ATOM     15  N   UNL     1       6.038   4.500  19.029  0.00  0.00    +0.000 NA
ATOM     16  C   UNL     1       5.040   4.165  18.120  0.00  0.00    +0.000 A 
ATOM     17  C   UNL     1       5.180   4.748  16.872  0.00  0.00    +0.000 A 
ATOM     18  S   UNL     1       6.561   5.753  16.838  0.00  0.00    +0.000 S 
ENDBRANCH  12  16
ENDBRANCH   1  12
TORSDOF 4
ENDMDL
