MODEL 1
REMARK VINA RESULT:      -7.6      0.000      0.000
REMARK  Name = 
REMARK  6 active torsions:
REMARK  status: ('A' for Active; 'I' for Inactive)
REMARK    1  A    between atoms: C_2  and  C_3
REMARK    2  A    between atoms: C_2  and  C_11
REMARK    3  A    between atoms: C_3  and  C_4
REMARK    4  A    between atoms: C_4  and  N_5
REMARK    5  A    between atoms: C_14  and  O_15
REMARK    6  A    between atoms: O_15  and  C_16
REMARK                            x       y       z     vdW  Elec       q    Type
REMARK                         _______ _______ _______ _____ _____    ______ ____
ROOT
ATOM      1  C   UNL     1       0.677  10.357  19.832  0.00  0.00    +0.000 A 
ATOM      2  C   UNL     1       1.254   9.883  18.639  0.00  0.00    +0.000 A 
ATOM      3  C   UNL     1       1.905   8.645  18.606  0.00  0.00    +0.000 A 
ATOM      4  C   UNL     1       2.003   7.864  19.762  0.00  0.00    +0.000 A 
ATOM      5  C   UNL     1       1.406   8.324  20.949  0.00  0.00    +0.000 A 
ATOM      6  C   UNL     1       0.755   9.553  20.984  0.00  0.00    +0.000 A 
ENDROOT
BRANCH   1   8
ATOM      7  O   UNL     1       0.679  12.689  20.112  0.00  0.00    +0.000 OA
ATOM      8  C   UNL     1       0.013  11.689  19.878  0.00  0.00    +0.000 C 
BRANCH   8   9
ATOM      9  C   UNL     1      -1.485  11.805  19.707  0.00  0.00    +0.000 C 
BRANCH   9  10
ATOM     10  C   UNL     1      -1.939  11.690  18.243  0.00  0.00    +0.000 C 
BRANCH  10  11
ATOM     11  N   UNL     1      -2.697  10.442  17.964  0.00  0.00    +0.000 NA
ATOM     12  C   UNL     1      -2.239   9.817  16.705  0.00  0.00    +0.000 C 
ATOM     13  C   UNL     1      -2.730  10.612  15.474  0.00  0.00    +0.000 C 
ATOM     14  O   UNL     1      -4.142  10.731  15.470  0.00  0.00    +0.000 OA
ATOM     15  C   UNL     1      -4.573  11.399  16.642  0.00  0.00    +0.000 C 
ATOM     16  C   UNL     1      -4.167  10.603  17.891  0.00  0.00    +0.000 C 
ENDBRANCH  10  11
ENDBRANCH   9  10
ENDBRANCH   8   9
ENDBRANCH   1   8
BRANCH   4  17
ATOM     17  O   UNL     1       2.655   6.674  19.707  0.00  0.00    +0.000 OA
BRANCH  17  18
ATOM     18  C   UNL     1       2.095   5.460  19.458  0.00  0.00    +0.000 A 
ATOM     19  C   UNL     1       2.144   4.946  18.157  0.00  0.00    +0.000 A 
ATOM     20  C   UNL     1       1.575   3.701  17.867  0.00  0.00    +0.000 A 
ATOM     21  C   UNL     1       0.964   2.954  18.879  0.00  0.00    +0.000 A 
ATOM     22  F   UNL     1       0.415   1.747  18.595  0.00  0.00    +0.000 F 
ATOM     23  C   UNL     1       0.925   3.446  20.184  0.00  0.00    +0.000 A 
ATOM     24  C   UNL     1       1.488   4.691  20.476  0.00  0.00    +0.000 A 
ENDBRANCH  17  18
ENDBRANCH   4  17
TORSDOF 6
ENDMDL
MODEL 2
REMARK VINA RESULT:      -7.6      0.495      1.107
REMARK  Name = 
REMARK  6 active torsions:
REMARK  status: ('A' for Active; 'I' for Inactive)
REMARK    1  A    between atoms: C_2  and  C_3
REMARK    2  A    between atoms: C_2  and  C_11
REMARK    3  A    between atoms: C_3  and  C_4
REMARK    4  A    between atoms: C_4  and  N_5
REMARK    5  A    between atoms: C_14  and  O_15
REMARK    6  A    between atoms: O_15  and  C_16
REMARK                            x       y       z     vdW  Elec       q    Type
REMARK                         _______ _______ _______ _____ _____    ______ ____
ROOT
ATOM      1  C   UNL     1       0.590  10.209  19.821  0.00  0.00    +0.000 A 
ATOM      2  C   UNL     1       0.689   9.416  20.980  0.00  0.00    +0.000 A 
ATOM      3  C   UNL     1       1.389   8.205  20.955  0.00  0.00    +0.000 A 
ATOM      4  C   UNL     1       1.990   7.757  19.775  0.00  0.00    +0.000 A 
ATOM      5  C   UNL     1       1.913   8.558  18.623  0.00  0.00    +0.000 A 
ATOM      6  C   UNL     1       1.221   9.765  18.645  0.00  0.00    +0.000 A 
ENDROOT
BRANCH   1   8
ATOM      7  O   UNL     1      -0.558  11.950  20.902  0.00  0.00    +0.000 OA
ATOM      8  C   UNL     1      -0.184  11.482  19.836  0.00  0.00    +0.000 C 
BRANCH   8   9
ATOM      9  C   UNL     1      -0.569  12.158  18.539  0.00  0.00    +0.000 C 
BRANCH   9  10
ATOM     10  C   UNL     1      -2.084  12.158  18.283  0.00  0.00    +0.000 C 
BRANCH  10  11
ATOM     11  N   UNL     1      -2.645  10.793  18.101  0.00  0.00    +0.000 NA
ATOM     12  C   UNL     1      -2.101  10.156  16.883  0.00  0.00    +0.000 C 
ATOM     13  C   UNL     1      -2.710  10.778  15.606  0.00  0.00    +0.000 C 
ATOM     14  O   UNL     1      -4.124  10.682  15.614  0.00  0.00    +0.000 OA
ATOM     15  C   UNL     1      -4.648  11.359  16.741  0.00  0.00    +0.000 C 
ATOM     16  C   UNL     1      -4.123  10.724  18.038  0.00  0.00    +0.000 C 
ENDBRANCH  10  11
ENDBRANCH   9  10
ENDBRANCH   8   9
ENDBRANCH   1   8
BRANCH   4  17
ATOM     17  O   UNL     1       2.649   6.569  19.774  0.00  0.00    +0.000 OA
BRANCH  17  18
ATOM     18  C   UNL     1       2.110   5.350  19.503  0.00  0.00    +0.000 A 
ATOM     19  C   UNL     1       2.168   4.860  18.193  0.00  0.00    +0.000 A 
ATOM     20  C   UNL     1       1.621   3.611  17.881  0.00  0.00    +0.000 A 
ATOM     21  C   UNL     1       1.023   2.836  18.879  0.00  0.00    +0.000 A 
ATOM     22  F   UNL     1       0.495   1.624  18.574  0.00  0.00    +0.000 F 
ATOM     23  C   UNL     1       0.975   3.304  20.192  0.00  0.00    +0.000 A 
ATOM     24  C   UNL     1       1.516   4.553  20.506  0.00  0.00    +0.000 A 
ENDBRANCH  17  18
ENDBRANCH   4  17
TORSDOF 6
ENDMDL
MODEL 3
REMARK VINA RESULT:      -7.5      3.925      8.091
REMARK  Name = 
REMARK  6 active torsions:
REMARK  status: ('A' for Active; 'I' for Inactive)
REMARK    1  A    between atoms: C_2  and  C_3
REMARK    2  A    between atoms: C_2  and  C_11
REMARK    3  A    between atoms: C_3  and  C_4
REMARK    4  A    between atoms: C_4  and  N_5
REMARK    5  A    between atoms: C_14  and  O_15
REMARK    6  A    between atoms: O_15  and  C_16
REMARK                            x       y       z     vdW  Elec       q    Type
REMARK                         _______ _______ _______ _____ _____    ______ ____
ROOT
ATOM      1  C   UNL     1       2.425   7.026  19.375  0.00  0.00    +0.000 A 
ATOM      2  C   UNL     1       2.480   7.638  18.108  0.00  0.00    +0.000 A 
ATOM      3  C   UNL     1       1.827   8.854  17.876  0.00  0.00    +0.000 A 
ATOM      4  C   UNL     1       1.099   9.473  18.897  0.00  0.00    +0.000 A 
ATOM      5  C   UNL     1       1.063   8.877  20.169  0.00  0.00    +0.000 A 
ATOM      6  C   UNL     1       1.714   7.670  20.404  0.00  0.00    +0.000 A 
ENDROOT
BRANCH   1   8
ATOM      7  O   UNL     1       2.451   4.792  20.099  0.00  0.00    +0.000 OA
ATOM      8  C   UNL     1       3.091   5.716  19.615  0.00  0.00    +0.000 C 
BRANCH   8   9
ATOM      9  C   UNL     1       4.566   5.543  19.330  0.00  0.00    +0.000 C 
BRANCH   9  10
ATOM     10  C   UNL     1       4.848   4.677  18.093  0.00  0.00    +0.000 C 
BRANCH  10  11
ATOM     11  N   UNL     1       4.864   5.455  16.827  0.00  0.00    +0.000 NA
ATOM     12  C   UNL     1       5.350   4.627  15.703  0.00  0.00    +0.000 C 
ATOM     13  C   UNL     1       6.875   4.394  15.797  0.00  0.00    +0.000 C 
ATOM     14  O   UNL     1       7.580   5.623  15.834  0.00  0.00    +0.000 OA
ATOM     15  C   UNL     1       7.168   6.383  16.955  0.00  0.00    +0.000 C 
ATOM     16  C   UNL     1       5.667   6.699  16.864  0.00  0.00    +0.000 C 
ENDBRANCH  10  11
ENDBRANCH   9  10
ENDBRANCH   8   9
ENDBRANCH   1   8
BRANCH   4  17
ATOM     17  O   UNL     1       0.460  10.644  18.641  0.00  0.00    +0.000 OA
BRANCH  17  18
ATOM     18  C   UNL     1      -0.876  10.805  18.439  0.00  0.00    +0.000 A 
ATOM     19  C   UNL     1      -1.515  10.016  17.477  0.00  0.00    +0.000 A 
ATOM     20  C   UNL     1      -2.887  10.158  17.244  0.00  0.00    +0.000 A 
ATOM     21  C   UNL     1      -3.633  11.082  17.981  0.00  0.00    +0.000 A 
ATOM     22  F   UNL     1      -4.964  11.217  17.755  0.00  0.00    +0.000 F 
ATOM     23  C   UNL     1      -3.012  11.862  18.958  0.00  0.00    +0.000 A 
ATOM     24  C   UNL     1      -1.641  11.726  19.189  0.00  0.00    +0.000 A 
ENDBRANCH  17  18
ENDBRANCH   4  17
TORSDOF 6
ENDMDL
MODEL 4
REMARK VINA RESULT:      -7.4      3.903      8.092
REMARK  Name = 
REMARK  6 active torsions:
REMARK  status: ('A' for Active; 'I' for Inactive)
REMARK    1  A    between atoms: C_2  and  C_3
REMARK    2  A    between atoms: C_2  and  C_11
REMARK    3  A    between atoms: C_3  and  C_4
REMARK    4  A    between atoms: C_4  and  N_5
REMARK    5  A    between atoms: C_14  and  O_15
REMARK    6  A    between atoms: O_15  and  C_16
REMARK                            x       y       z     vdW  Elec       q    Type
REMARK                         _______ _______ _______ _____ _____    ______ ____
ROOT
ATOM      1  C   UNL     1       2.427   7.087  19.367  0.00  0.00    +0.000 A 
ATOM      2  C   UNL     1       2.423   7.692  18.096  0.00  0.00    +0.000 A 
ATOM      3  C   UNL     1       1.713   8.877  17.873  0.00  0.00    +0.000 A 
ATOM      4  C   UNL     1       0.986   9.473  18.908  0.00  0.00    +0.000 A 
ATOM      5  C   UNL     1       1.008   8.885  20.185  0.00  0.00    +0.000 A 
ATOM      6  C   UNL     1       1.715   7.708  20.410  0.00  0.00    +0.000 A 
ENDROOT
BRANCH   1   8
ATOM      7  O   UNL     1       2.625   4.923  20.257  0.00  0.00    +0.000 OA
ATOM      8  C   UNL     1       3.153   5.808  19.597  0.00  0.00    +0.000 C 
BRANCH   8   9
ATOM      9  C   UNL     1       4.563   5.625  19.082  0.00  0.00    +0.000 C 
BRANCH   9  10
ATOM     10  C   UNL     1       4.647   4.692  17.864  0.00  0.00    +0.000 C 
BRANCH  10  11
ATOM     11  N   UNL     1       4.762   5.424  16.575  0.00  0.00    +0.000 NA
ATOM     12  C   UNL     1       5.368   4.567  15.534  0.00  0.00    +0.000 C 
ATOM     13  C   UNL     1       6.883   4.378  15.776  0.00  0.00    +0.000 C 
ATOM     14  O   UNL     1       7.553   5.626  15.829  0.00  0.00    +0.000 OA
ATOM     15  C   UNL     1       7.023   6.415  16.878  0.00  0.00    +0.000 C 
ATOM     16  C   UNL     1       5.530   6.689  16.638  0.00  0.00    +0.000 C 
ENDBRANCH  10  11
ENDBRANCH   9  10
ENDBRANCH   8   9
ENDBRANCH   1   8
BRANCH   4  17
ATOM     17  O   UNL     1       0.292  10.614  18.661  0.00  0.00    +0.000 OA
BRANCH  17  18
ATOM     18  C   UNL     1      -1.022  10.698  18.318  0.00  0.00    +0.000 A 
ATOM     19  C   UNL     1      -1.843  11.600  19.003  0.00  0.00    +0.000 A 
ATOM     20  C   UNL     1      -3.199  11.711  18.675  0.00  0.00    +0.000 A 
ATOM     21  C   UNL     1      -3.741  10.928  17.651  0.00  0.00    +0.000 A 
ATOM     22  F   UNL     1      -5.055  11.038  17.333  0.00  0.00    +0.000 F 
ATOM     23  C   UNL     1      -2.928  10.039  16.947  0.00  0.00    +0.000 A 
ATOM     24  C   UNL     1      -1.575   9.923  17.275  0.00  0.00    +0.000 A 
ENDBRANCH  17  18
ENDBRANCH   4  17
TORSDOF 6
ENDMDL
MODEL 5
REMARK VINA RESULT:      -7.4      4.097      8.241
REMARK  Name = 
REMARK  6 active torsions:
REMARK  status: ('A' for Active; 'I' for Inactive)
REMARK    1  A    between atoms: C_2  and  C_3
REMARK    2  A    between atoms: C_2  and  C_11
REMARK    3  A    between atoms: C_3  and  C_4
REMARK    4  A    between atoms: C_4  and  N_5
REMARK    5  A    between atoms: C_14  and  O_15
REMARK    6  A    between atoms: O_15  and  C_16
REMARK                            x       y       z     vdW  Elec       q    Type
REMARK                         _______ _______ _______ _____ _____    ______ ____
ROOT
ATOM      1  C   UNL     1       2.413   7.067  19.424  0.00  0.00    +0.000 A 
ATOM      2  C   UNL     1       2.434   7.623  18.130  0.00  0.00    +0.000 A 
ATOM      3  C   UNL     1       1.776   8.828  17.862  0.00  0.00    +0.000 A 
ATOM      4  C   UNL     1       1.077   9.494  18.874  0.00  0.00    +0.000 A 
ATOM      5  C   UNL     1       1.075   8.955  20.172  0.00  0.00    +0.000 A 
ATOM      6  C   UNL     1       1.731   7.758  20.442  0.00  0.00    +0.000 A 
ENDROOT
BRANCH   1   8
ATOM      7  O   UNL     1       2.508   4.922  20.375  0.00  0.00    +0.000 OA
ATOM      8  C   UNL     1       3.083   5.767  19.703  0.00  0.00    +0.000 C 
BRANCH   8   9
ATOM      9  C   UNL     1       4.495   5.515  19.223  0.00  0.00    +0.000 C 
BRANCH   9  10
ATOM     10  C   UNL     1       4.558   4.969  17.788  0.00  0.00    +0.000 C 
BRANCH  10  11
ATOM     11  N   UNL     1       5.834   4.269  17.486  0.00  0.00    +0.000 NA
ATOM     12  C   UNL     1       6.994   5.062  17.946  0.00  0.00    +0.000 C 
ATOM     13  C   UNL     1       7.234   6.285  17.033  0.00  0.00    +0.000 C 
ATOM     14  O   UNL     1       7.421   5.890  15.685  0.00  0.00    +0.000 OA
ATOM     15  C   UNL     1       6.276   5.197  15.221  0.00  0.00    +0.000 C 
ATOM     16  C   UNL     1       6.043   3.930  16.059  0.00  0.00    +0.000 C 
ENDBRANCH  10  11
ENDBRANCH   9  10
ENDBRANCH   8   9
ENDBRANCH   1   8
BRANCH   4  17
ATOM     17  O   UNL     1       0.432  10.654  18.583  0.00  0.00    +0.000 OA
BRANCH  17  18
ATOM     18  C   UNL     1      -0.906  10.804  18.386  0.00  0.00    +0.000 A 
ATOM     19  C   UNL     1      -1.543  10.000  17.435  0.00  0.00    +0.000 A 
ATOM     20  C   UNL     1      -2.918  10.131  17.207  0.00  0.00    +0.000 A 
ATOM     21  C   UNL     1      -3.667  11.059  17.937  0.00  0.00    +0.000 A 
ATOM     22  F   UNL     1      -4.999  11.182  17.715  0.00  0.00    +0.000 F 
ATOM     23  C   UNL     1      -3.046  11.853  18.901  0.00  0.00    +0.000 A 
ATOM     24  C   UNL     1      -1.673  11.728  19.128  0.00  0.00    +0.000 A 
ENDBRANCH  17  18
ENDBRANCH   4  17
TORSDOF 6
ENDMDL
MODEL 6
REMARK VINA RESULT:      -7.3      4.364      8.522
REMARK  Name = 
REMARK  6 active torsions:
REMARK  status: ('A' for Active; 'I' for Inactive)
REMARK    1  A    between atoms: C_2  and  C_3
REMARK    2  A    between atoms: C_2  and  C_11
REMARK    3  A    between atoms: C_3  and  C_4
REMARK    4  A    between atoms: C_4  and  N_5
REMARK    5  A    between atoms: C_14  and  O_15
REMARK    6  A    between atoms: O_15  and  C_16
REMARK                            x       y       z     vdW  Elec       q    Type
REMARK                         _______ _______ _______ _____ _____    ______ ____
ROOT
ATOM      1  C   UNL     1       2.862   5.711  18.939  0.00  0.00    +0.000 A 
ATOM      2  C   UNL     1       2.242   6.294  20.061  0.00  0.00    +0.000 A 
ATOM      3  C   UNL     1       1.834   7.632  20.034  0.00  0.00    +0.000 A 
ATOM      4  C   UNL     1       2.046   8.415  18.895  0.00  0.00    +0.000 A 
ATOM      5  C   UNL     1       2.642   7.829  17.764  0.00  0.00    +0.000 A 
ATOM      6  C   UNL     1       3.046   6.498  17.787  0.00  0.00    +0.000 A 
ENDROOT
BRANCH   1   8
ATOM      7  O   UNL     1       2.520   3.390  18.842  0.00  0.00    +0.000 OA
ATOM      8  C   UNL     1       3.329   4.298  18.978  0.00  0.00    +0.000 C 
BRANCH   8   9
ATOM      9  C   UNL     1       4.781   3.979  19.256  0.00  0.00    +0.000 C 
BRANCH   9  10
ATOM     10  C   UNL     1       5.689   5.218  19.229  0.00  0.00    +0.000 C 
BRANCH  10  11
ATOM     11  N   UNL     1       7.056   4.928  18.721  0.00  0.00    +0.000 NA
ATOM     12  C   UNL     1       7.934   6.108  18.866  0.00  0.00    +0.000 C 
ATOM     13  C   UNL     1       7.580   7.201  17.832  0.00  0.00    +0.000 C 
ATOM     14  O   UNL     1       7.657   6.699  16.509  0.00  0.00    +0.000 OA
ATOM     15  C   UNL     1       6.758   5.617  16.350  0.00  0.00    +0.000 C 
ATOM     16  C   UNL     1       7.121   4.475  17.312  0.00  0.00    +0.000 C 
ENDBRANCH  10  11
ENDBRANCH   9  10
ENDBRANCH   8   9
ENDBRANCH   1   8
BRANCH   4  17
ATOM     17  O   UNL     1       1.655   9.716  18.900  0.00  0.00    +0.000 OA
BRANCH  17  18
ATOM     18  C   UNL     1       0.375  10.172  18.840  0.00  0.00    +0.000 A 
ATOM     19  C   UNL     1      -0.096  11.002  19.863  0.00  0.00    +0.000 A 
ATOM     20  C   UNL     1      -1.408  11.486  19.832  0.00  0.00    +0.000 A 
ATOM     21  C   UNL     1      -2.256  11.155  18.771  0.00  0.00    +0.000 A 
ATOM     22  F   UNL     1      -3.527  11.627  18.742  0.00  0.00    +0.000 F 
ATOM     23  C   UNL     1      -1.792  10.344  17.734  0.00  0.00    +0.000 A 
ATOM     24  C   UNL     1      -0.484   9.854  17.765  0.00  0.00    +0.000 A 
ENDBRANCH  17  18
ENDBRANCH   4  17
TORSDOF 6
ENDMDL
MODEL 7
REMARK VINA RESULT:      -7.3      4.126      8.368
REMARK  Name = 
REMARK  6 active torsions:
REMARK  status: ('A' for Active; 'I' for Inactive)
REMARK    1  A    between atoms: C_2  and  C_3
REMARK    2  A    between atoms: C_2  and  C_11
REMARK    3  A    between atoms: C_3  and  C_4
REMARK    4  A    between atoms: C_4  and  N_5
REMARK    5  A    between atoms: C_14  and  O_15
REMARK    6  A    between atoms: O_15  and  C_16
REMARK                            x       y       z     vdW  Elec       q    Type
REMARK                         _______ _______ _______ _____ _____    ______ ____
ROOT
ATOM      1  C   UNL     1       2.464   7.047  19.373  0.00  0.00    +0.000 A 
ATOM      2  C   UNL     1       1.741   7.678  20.403  0.00  0.00    +0.000 A 
ATOM      3  C   UNL     1       1.074   8.886  20.168  0.00  0.00    +0.000 A 
ATOM      4  C   UNL     1       1.126   9.490  18.908  0.00  0.00    +0.000 A 
ATOM      5  C   UNL     1       1.826   8.850  17.871  0.00  0.00    +0.000 A 
ATOM      6  C   UNL     1       2.487   7.648  18.101  0.00  0.00    +0.000 A 
ENDROOT
BRANCH   1   8
ATOM      7  O   UNL     1       2.730   4.947  20.391  0.00  0.00    +0.000 OA
ATOM      8  C   UNL     1       3.203   5.780  19.630  0.00  0.00    +0.000 C 
BRANCH   8   9
ATOM      9  C   UNL     1       4.564   5.550  19.013  0.00  0.00    +0.000 C 
BRANCH   9  10
ATOM     10  C   UNL     1       4.498   4.870  17.636  0.00  0.00    +0.000 C 
BRANCH  10  11
ATOM     11  N   UNL     1       5.739   4.126  17.293  0.00  0.00    +0.000 NA
ATOM     12  C   UNL     1       6.937   4.849  17.771  0.00  0.00    +0.000 C 
ATOM     13  C   UNL     1       7.222   6.096  16.904  0.00  0.00    +0.000 C 
ATOM     14  O   UNL     1       7.379   5.747  15.539  0.00  0.00    +0.000 OA
ATOM     15  C   UNL     1       6.201   5.124  15.062  0.00  0.00    +0.000 C 
ATOM     16  C   UNL     1       5.919   3.836  15.851  0.00  0.00    +0.000 C 
ENDBRANCH  10  11
ENDBRANCH   9  10
ENDBRANCH   8   9
ENDBRANCH   1   8
BRANCH   4  17
ATOM     17  O   UNL     1       0.484  10.671  18.712  0.00  0.00    +0.000 OA
BRANCH  17  18
ATOM     18  C   UNL     1      -0.850  10.837  18.501  0.00  0.00    +0.000 A 
ATOM     19  C   UNL     1      -1.539  11.798  19.250  0.00  0.00    +0.000 A 
ATOM     20  C   UNL     1      -2.911  11.992  19.059  0.00  0.00    +0.000 A 
ATOM     21  C   UNL     1      -3.603  11.235  18.109  0.00  0.00    +0.000 A 
ATOM     22  F   UNL     1      -4.933  11.426  17.925  0.00  0.00    +0.000 F 
ATOM     23  C   UNL     1      -2.925  10.286  17.343  0.00  0.00    +0.000 A 
ATOM     24  C   UNL     1      -1.555  10.087  17.534  0.00  0.00    +0.000 A 
ENDBRANCH  17  18
ENDBRANCH   4  17
TORSDOF 6
ENDMDL
MODEL 8
REMARK VINA RESULT:      -7.2      6.296      8.641
REMARK  Name = 
REMARK  6 active torsions:
REMARK  status: ('A' for Active; 'I' for Inactive)
REMARK    1  A    between atoms: C_2  and  C_3
REMARK    2  A    between atoms: C_2  and  C_11
REMARK    3  A    between atoms: C_3  and  C_4
REMARK    4  A    between atoms: C_4  and  N_5
REMARK    5  A    between atoms: C_14  and  O_15
REMARK    6  A    between atoms: O_15  and  C_16
REMARK                            x       y       z     vdW  Elec       q    Type
REMARK                         _______ _______ _______ _____ _____    ______ ____
ROOT
ATOM      1  C   UNL     1       5.703   5.333  17.609  0.00  0.00    +0.000 A 
ATOM      2  C   UNL     1       6.778   4.537  17.169  0.00  0.00    +0.000 A 
ATOM      3  C   UNL     1       7.111   4.477  15.812  0.00  0.00    +0.000 A 
ATOM      4  C   UNL     1       6.373   5.199  14.869  0.00  0.00    +0.000 A 
ATOM      5  C   UNL     1       5.315   6.013  15.307  0.00  0.00    +0.000 A 
ATOM      6  C   UNL     1       4.983   6.077  16.656  0.00  0.00    +0.000 A 
ENDROOT
BRANCH   1   8
ATOM      7  O   UNL     1       6.122   4.987  19.894  0.00  0.00    +0.000 OA
ATOM      8  C   UNL     1       5.325   5.371  19.049  0.00  0.00    +0.000 C 
BRANCH   8   9
ATOM      9  C   UNL     1       3.939   5.811  19.465  0.00  0.00    +0.000 C 
BRANCH   9  10
ATOM     10  C   UNL     1       3.086   4.668  20.035  0.00  0.00    +0.000 C 
BRANCH  10  11
ATOM     11  N   UNL     1       1.776   4.519  19.348  0.00  0.00    +0.000 NA
ATOM     12  C   UNL     1       1.114   3.257  19.741  0.00  0.00    +0.000 C 
ATOM     13  C   UNL     1       1.804   2.036  19.090  0.00  0.00    +0.000 C 
ATOM     14  O   UNL     1       1.828   2.153  17.678  0.00  0.00    +0.000 OA
ATOM     15  C   UNL     1       2.529   3.324  17.301  0.00  0.00    +0.000 C 
ATOM     16  C   UNL     1       1.832   4.570  17.869  0.00  0.00    +0.000 C 
ENDBRANCH  10  11
ENDBRANCH   9  10
ENDBRANCH   8   9
ENDBRANCH   1   8
BRANCH   4  17
ATOM     17  O   UNL     1       6.707   5.110  13.555  0.00  0.00    +0.000 OA
BRANCH  17  18
ATOM     18  C   UNL     1       6.558   4.017  12.758  0.00  0.00    +0.000 A 
ATOM     19  C   UNL     1       5.275   3.494  12.561  0.00  0.00    +0.000 A 
ATOM     20  C   UNL     1       5.087   2.370  11.749  0.00  0.00    +0.000 A 
ATOM     21  C   UNL     1       6.180   1.768  11.118  0.00  0.00    +0.000 A 
ATOM     22  F   UNL     1       5.996   0.680  10.330  0.00  0.00    +0.000 F 
ATOM     23  C   UNL     1       7.462   2.292  11.291  0.00  0.00    +0.000 A 
ATOM     24  C   UNL     1       7.653   3.411  12.105  0.00  0.00    +0.000 A 
ENDBRANCH  17  18
ENDBRANCH   4  17
TORSDOF 6
ENDMDL
MODEL 9
REMARK VINA RESULT:      -7.2      4.065      8.403
REMARK  Name = 
REMARK  6 active torsions:
REMARK  status: ('A' for Active; 'I' for Inactive)
REMARK    1  A    between atoms: C_2  and  C_3
REMARK    2  A    between atoms: C_2  and  C_11
REMARK    3  A    between atoms: C_3  and  C_4
REMARK    4  A    between atoms: C_4  and  N_5
REMARK    5  A    between atoms: C_14  and  O_15
REMARK    6  A    between atoms: O_15  and  C_16
REMARK                            x       y       z     vdW  Elec       q    Type
REMARK                         _______ _______ _______ _____ _____    ______ ____
ROOT
ATOM      1  C   UNL     1       2.265   6.808  19.554  0.00  0.00    +0.000 A 
ATOM      2  C   UNL     1       2.398   7.381  18.275  0.00  0.00    +0.000 A 
ATOM      3  C   UNL     1       1.890   8.657  18.010  0.00  0.00    +0.000 A 
ATOM      4  C   UNL     1       1.229   9.378  19.010  0.00  0.00    +0.000 A 
ATOM      5  C   UNL     1       1.116   8.819  20.295  0.00  0.00    +0.000 A 
ATOM      6  C   UNL     1       1.624   7.552  20.562  0.00  0.00    +0.000 A 
ENDROOT
BRANCH   1   8
ATOM      7  O   UNL     1       2.587   4.929  20.926  0.00  0.00    +0.000 OA
ATOM      8  C   UNL     1       2.775   5.436  19.829  0.00  0.00    +0.000 C 
BRANCH   8   9
ATOM      9  C   UNL     1       3.584   4.697  18.787  0.00  0.00    +0.000 C 
BRANCH   9  10
ATOM     10  C   UNL     1       5.097   4.731  19.057  0.00  0.00    +0.000 C 
BRANCH  10  11
ATOM     11  N   UNL     1       5.801   5.800  18.301  0.00  0.00    +0.000 NA
ATOM     12  C   UNL     1       5.430   5.766  16.870  0.00  0.00    +0.000 C 
ATOM     13  C   UNL     1       6.084   4.566  16.149  0.00  0.00    +0.000 C 
ATOM     14  O   UNL     1       7.494   4.594  16.283  0.00  0.00    +0.000 OA
ATOM     15  C   UNL     1       7.851   4.548  17.653  0.00  0.00    +0.000 C 
ATOM     16  C   UNL     1       7.279   5.766  18.395  0.00  0.00    +0.000 C 
ENDBRANCH  10  11
ENDBRANCH   9  10
ENDBRANCH   8   9
ENDBRANCH   1   8
BRANCH   4  17
ATOM     17  O   UNL     1       0.730  10.608  18.722  0.00  0.00    +0.000 OA
BRANCH  17  18
ATOM     18  C   UNL     1      -0.586  10.952  18.677  0.00  0.00    +0.000 A 
ATOM     19  C   UNL     1      -1.069  11.898  19.588  0.00  0.00    +0.000 A 
ATOM     20  C   UNL     1      -2.417  12.272  19.569  0.00  0.00    +0.000 A 
ATOM     21  C   UNL     1      -3.289  11.713  18.631  0.00  0.00    +0.000 A 
ATOM     22  F   UNL     1      -4.595  12.079  18.614  0.00  0.00    +0.000 F 
ATOM     23  C   UNL     1      -2.816  10.783  17.704  0.00  0.00    +0.000 A 
ATOM     24  C   UNL     1      -1.472  10.403  17.724  0.00  0.00    +0.000 A 
ENDBRANCH  17  18
ENDBRANCH   4  17
TORSDOF 6
ENDMDL
