MODEL 1
REMARK VINA RESULT:      -6.3      0.000      0.000
REMARK  Name = 
REMARK  12 active torsions:
REMARK  status: ('A' for Active; 'I' for Inactive)
REMARK    1  A    between atoms: C_1  and  C_2
REMARK    2  A    between atoms: C_2  and  C_3
REMARK    3  A    between atoms: C_3  and  C_4
REMARK    4  A    between atoms: C_4  and  N_5
REMARK    5  A    between atoms: N_5  and  C_6
REMARK    6  A    between atoms: N_5  and  C_8
REMARK    7  A    between atoms: C_6  and  C_7
REMARK    8  A    between atoms: C_10  and  C_11
REMARK    9  A    between atoms: N_18  and  C_19
REMARK   10  A    between atoms: C_22  and  C_23
REMARK   11  A    between atoms: C_23  and  C_24
REMARK   12  A    between atoms: C_27  and  C_28
REMARK                            x       y       z     vdW  Elec       q    Type
REMARK                         _______ _______ _______ _____ _____    ______ ____
ROOT
ATOM      1  C   UNL     1      -3.300  12.490  19.976  0.00  0.00    +0.000 A 
ATOM      2  N   UNL     1      -3.850  11.868  18.919  0.00  0.00    +0.000 NA
ATOM      3  C   UNL     1      -3.050  11.061  18.208  0.00  0.00    +0.000 A 
ATOM      4  C   UNL     1      -3.659  10.270  17.090  0.00  0.00    +0.000 C 
ATOM      5  N   UNL     1      -1.758  10.810  18.480  0.00  0.00    +0.000 NA
ATOM      6  C   UNL     1      -1.229  11.351  19.587  0.00  0.00    +0.000 A 
ATOM      7  C   UNL     1      -1.969  12.247  20.378  0.00  0.00    +0.000 A 
ATOM      8  N   UNL     1      -1.421  12.958  21.491  0.00  0.00    +0.000 N 
ATOM      9  C   UNL     1      -0.203  12.354  22.005  0.00  0.00    +0.000 C 
ATOM     10  C   UNL     1       0.728  11.960  20.850  0.00  0.00    +0.000 C 
ATOM     11  N   UNL     1       0.077  10.946  19.999  0.00  0.00    +0.000 N 
ATOM     12  H   UNL     1      -2.172  13.101  22.170  0.00  0.00    +0.000 HD
ENDROOT
BRANCH  11  13
ATOM     13  C   UNL     1       0.840   9.849  19.543  0.00  0.00    +0.000 A 
ATOM     14  C   UNL     1       1.350   9.853  18.226  0.00  0.00    +0.000 A 
ATOM     15  C   UNL     1       2.159   8.825  17.719  0.00  0.00    +0.000 A 
ATOM     16  C   UNL     1       2.473   7.729  18.514  0.00  0.00    +0.000 A 
ATOM     17  C   UNL     1       1.968   7.691  19.817  0.00  0.00    +0.000 A 
ATOM     18  C   UNL     1       1.175   8.734  20.351  0.00  0.00    +0.000 A 
ATOM     19  C   UNL     1       0.795   8.590  21.803  0.00  0.00    +0.000 C 
BRANCH  16  20
ATOM     20  C   UNL     1       3.331   6.589  18.064  0.00  0.00    +0.000 C 
ATOM     21  C   UNL     1       4.460   6.797  17.090  0.00  0.00    +0.000 C 
ATOM     22  O   UNL     1       3.103   5.455  18.495  0.00  0.00    +0.000 OA
ENDBRANCH  16  20
ENDBRANCH  11  13
BRANCH   1  23
ATOM     23  N   UNL     1      -4.096  13.358  20.775  0.00  0.00    +0.000 N 
BRANCH  23  24
ATOM     24  C   UNL     1      -4.154  14.732  20.234  0.00  0.00    +0.000 C 
ATOM     25  C   UNL     1      -3.817  15.819  21.247  0.00  0.00    +0.000 C 
ENDBRANCH  23  24
BRANCH  23  26
ATOM     26  C   UNL     1      -5.379  12.781  21.202  0.00  0.00    +0.000 C 
BRANCH  26  27
ATOM     27  C   UNL     1      -5.568  12.874  22.723  0.00  0.00    +0.000 C 
BRANCH  27  29
ATOM     28  C   UNL     1      -4.530  12.385  24.960  0.00  0.00    +0.000 C 
ATOM     29  C   UNL     1      -4.260  12.783  23.515  0.00  0.00    +0.000 C 
ENDBRANCH  27  29
ENDBRANCH  26  27
ENDBRANCH  23  26
ENDBRANCH   1  23
TORSDOF 7
ENDMDL
MODEL 2
REMARK VINA RESULT:      -6.2      1.028      1.279
REMARK  Name = 
REMARK  12 active torsions:
REMARK  status: ('A' for Active; 'I' for Inactive)
REMARK    1  A    between atoms: C_1  and  C_2
REMARK    2  A    between atoms: C_2  and  C_3
REMARK    3  A    between atoms: C_3  and  C_4
REMARK    4  A    between atoms: C_4  and  N_5
REMARK    5  A    between atoms: N_5  and  C_6
REMARK    6  A    between atoms: N_5  and  C_8
REMARK    7  A    between atoms: C_6  and  C_7
REMARK    8  A    between atoms: C_10  and  C_11
REMARK    9  A    between atoms: N_18  and  C_19
REMARK   10  A    between atoms: C_22  and  C_23
REMARK   11  A    between atoms: C_23  and  C_24
REMARK   12  A    between atoms: C_27  and  C_28
REMARK                            x       y       z     vdW  Elec       q    Type
REMARK                         _______ _______ _______ _____ _____    ______ ____
ROOT
ATOM      1  C   UNL     1      -3.781  12.749  20.302  0.00  0.00    +0.000 A 
ATOM      2  N   UNL     1      -4.300  12.174  19.202  0.00  0.00    +0.000 NA
ATOM      3  C   UNL     1      -3.466  11.436  18.455  0.00  0.00    +0.000 A 
ATOM      4  C   UNL     1      -4.038  10.695  17.285  0.00  0.00    +0.000 C 
ATOM      5  N   UNL     1      -2.171  11.209  18.729  0.00  0.00    +0.000 NA
ATOM      6  C   UNL     1      -1.672  11.698  19.872  0.00  0.00    +0.000 A 
ATOM      7  C   UNL     1      -2.448  12.523  20.705  0.00  0.00    +0.000 A 
ATOM      8  N   UNL     1      -1.935  13.182  21.866  0.00  0.00    +0.000 N 
ATOM      9  C   UNL     1      -0.704  12.587  22.359  0.00  0.00    +0.000 C 
ATOM     10  C   UNL     1       0.252  12.290  21.195  0.00  0.00    +0.000 C 
ATOM     11  N   UNL     1      -0.358  11.310  20.277  0.00  0.00    +0.000 N 
ATOM     12  H   UNL     1      -2.697  13.262  22.542  0.00  0.00    +0.000 HD
ENDROOT
BRANCH  11  13
ATOM     13  C   UNL     1       0.444  10.266  19.767  0.00  0.00    +0.000 A 
ATOM     14  C   UNL     1       1.032  10.398  18.490  0.00  0.00    +0.000 A 
ATOM     15  C   UNL     1       1.882   9.428  17.938  0.00  0.00    +0.000 A 
ATOM     16  C   UNL     1       2.161   8.263  18.643  0.00  0.00    +0.000 A 
ATOM     17  C   UNL     1       1.580   8.099  19.904  0.00  0.00    +0.000 A 
ATOM     18  C   UNL     1       0.744   9.082  20.485  0.00  0.00    +0.000 A 
ATOM     19  C   UNL     1       0.279   8.798  21.891  0.00  0.00    +0.000 C 
BRANCH  16  20
ATOM     20  C   UNL     1       3.058   7.176  18.142  0.00  0.00    +0.000 C 
ATOM     21  C   UNL     1       2.949   5.769  18.665  0.00  0.00    +0.000 C 
ATOM     22  O   UNL     1       3.909   7.442  17.288  0.00  0.00    +0.000 OA
ENDBRANCH  16  20
ENDBRANCH  11  13
BRANCH   1  23
ATOM     23  N   UNL     1      -4.613  13.543  21.140  0.00  0.00    +0.000 N 
BRANCH  23  24
ATOM     24  C   UNL     1      -5.057  14.789  20.482  0.00  0.00    +0.000 C 
ATOM     25  C   UNL     1      -4.375  16.049  21.000  0.00  0.00    +0.000 C 
ENDBRANCH  23  24
BRANCH  23  26
ATOM     26  C   UNL     1      -5.653  12.787  21.852  0.00  0.00    +0.000 C 
BRANCH  26  27
ATOM     27  C   UNL     1      -5.635  13.073  23.361  0.00  0.00    +0.000 C 
BRANCH  27  29
ATOM     28  C   UNL     1      -7.175  15.029  23.717  0.00  0.00    +0.000 C 
ATOM     29  C   UNL     1      -6.986  13.531  23.919  0.00  0.00    +0.000 C 
ENDBRANCH  27  29
ENDBRANCH  26  27
ENDBRANCH  23  26
ENDBRANCH   1  23
TORSDOF 7
ENDMDL
MODEL 3
REMARK VINA RESULT:      -6.1      2.697      4.593
REMARK  Name = 
REMARK  12 active torsions:
REMARK  status: ('A' for Active; 'I' for Inactive)
REMARK    1  A    between atoms: C_1  and  C_2
REMARK    2  A    between atoms: C_2  and  C_3
REMARK    3  A    between atoms: C_3  and  C_4
REMARK    4  A    between atoms: C_4  and  N_5
REMARK    5  A    between atoms: N_5  and  C_6
REMARK    6  A    between atoms: N_5  and  C_8
REMARK    7  A    between atoms: C_6  and  C_7
REMARK    8  A    between atoms: C_10  and  C_11
REMARK    9  A    between atoms: N_18  and  C_19
REMARK   10  A    between atoms: C_22  and  C_23
REMARK   11  A    between atoms: C_23  and  C_24
REMARK   12  A    between atoms: C_27  and  C_28
REMARK                            x       y       z     vdW  Elec       q    Type
REMARK                         _______ _______ _______ _____ _____    ______ ____
ROOT
ATOM      1  C   UNL     1      -0.052  14.682  20.022  0.00  0.00    +0.000 A 
ATOM      2  N   UNL     1       1.199  14.847  20.487  0.00  0.00    +0.000 NA
ATOM      3  C   UNL     1       1.919  13.735  20.693  0.00  0.00    +0.000 A 
ATOM      4  C   UNL     1       3.351  13.889  21.107  0.00  0.00    +0.000 C 
ATOM      5  N   UNL     1       1.501  12.481  20.451  0.00  0.00    +0.000 NA
ATOM      6  C   UNL     1       0.292  12.315  19.897  0.00  0.00    +0.000 A 
ATOM      7  C   UNL     1      -0.562  13.411  19.682  0.00  0.00    +0.000 A 
ATOM      8  N   UNL     1      -1.909  13.286  19.221  0.00  0.00    +0.000 N 
ATOM      9  C   UNL     1      -2.171  12.010  18.574  0.00  0.00    +0.000 C 
ATOM     10  C   UNL     1      -1.560  10.862  19.389  0.00  0.00    +0.000 C 
ATOM     11  N   UNL     1      -0.094  11.012  19.455  0.00  0.00    +0.000 N 
ATOM     12  H   UNL     1      -2.130  14.120  18.672  0.00  0.00    +0.000 HD
ENDROOT
BRANCH  11  13
ATOM     13  C   UNL     1       0.716   9.868  19.284  0.00  0.00    +0.000 A 
ATOM     14  C   UNL     1       1.313   9.618  18.029  0.00  0.00    +0.000 A 
ATOM     15  C   UNL     1       2.171   8.534  17.796  0.00  0.00    +0.000 A 
ATOM     16  C   UNL     1       2.450   7.633  18.818  0.00  0.00    +0.000 A 
ATOM     17  C   UNL     1       1.859   7.848  20.067  0.00  0.00    +0.000 A 
ATOM     18  C   UNL     1       1.014   8.954  20.323  0.00  0.00    +0.000 A 
ATOM     19  C   UNL     1       0.539   9.098  21.747  0.00  0.00    +0.000 C 
BRANCH  16  20
ATOM     20  C   UNL     1       3.355   6.452  18.668  0.00  0.00    +0.000 C 
ATOM     21  C   UNL     1       4.129   6.216  17.398  0.00  0.00    +0.000 C 
ATOM     22  O   UNL     1       3.462   5.651  19.601  0.00  0.00    +0.000 OA
ENDBRANCH  16  20
ENDBRANCH  11  13
BRANCH   1  23
ATOM     23  N   UNL     1      -0.868  15.822  19.779  0.00  0.00    +0.000 N 
BRANCH  23  24
ATOM     24  C   UNL     1      -1.824  16.079  20.877  0.00  0.00    +0.000 C 
ATOM     25  C   UNL     1      -3.097  16.795  20.444  0.00  0.00    +0.000 C 
ENDBRANCH  23  24
BRANCH  23  26
ATOM     26  C   UNL     1      -0.137  16.994  19.276  0.00  0.00    +0.000 C 
BRANCH  26  27
ATOM     27  C   UNL     1      -0.504  17.313  17.819  0.00  0.00    +0.000 C 
BRANCH  27  29
ATOM     28  C   UNL     1       1.963  17.442  17.351  0.00  0.00    +0.000 C 
ATOM     29  C   UNL     1       0.599  18.049  17.051  0.00  0.00    +0.000 C 
ENDBRANCH  27  29
ENDBRANCH  26  27
ENDBRANCH  23  26
ENDBRANCH   1  23
TORSDOF 7
ENDMDL
MODEL 4
REMARK VINA RESULT:      -6.0      0.864      1.087
REMARK  Name = 
REMARK  12 active torsions:
REMARK  status: ('A' for Active; 'I' for Inactive)
REMARK    1  A    between atoms: C_1  and  C_2
REMARK    2  A    between atoms: C_2  and  C_3
REMARK    3  A    between atoms: C_3  and  C_4
REMARK    4  A    between atoms: C_4  and  N_5
REMARK    5  A    between atoms: N_5  and  C_6
REMARK    6  A    between atoms: N_5  and  C_8
REMARK    7  A    between atoms: C_6  and  C_7
REMARK    8  A    between atoms: C_10  and  C_11
REMARK    9  A    between atoms: N_18  and  C_19
REMARK   10  A    between atoms: C_22  and  C_23
REMARK   11  A    between atoms: C_23  and  C_24
REMARK   12  A    between atoms: C_27  and  C_28
REMARK                            x       y       z     vdW  Elec       q    Type
REMARK                         _______ _______ _______ _____ _____    ______ ____
ROOT
ATOM      1  C   UNL     1      -3.172  12.503  19.847  0.00  0.00    +0.000 A 
ATOM      2  N   UNL     1      -3.789  11.782  18.894  0.00  0.00    +0.000 NA
ATOM      3  C   UNL     1      -3.038  10.895  18.225  0.00  0.00    +0.000 A 
ATOM      4  C   UNL     1      -3.718  10.001  17.234  0.00  0.00    +0.000 C 
ATOM      5  N   UNL     1      -1.734  10.656  18.446  0.00  0.00    +0.000 NA
ATOM      6  C   UNL     1      -1.137  11.302  19.457  0.00  0.00    +0.000 A 
ATOM      7  C   UNL     1      -1.822  12.285  20.193  0.00  0.00    +0.000 A 
ATOM      8  N   UNL     1      -1.203  13.099  21.192  0.00  0.00    +0.000 N 
ATOM      9  C   UNL     1       0.040  12.536  21.694  0.00  0.00    +0.000 C 
ATOM     10  C   UNL     1       0.897  12.012  20.534  0.00  0.00    +0.000 C 
ATOM     11  N   UNL     1       0.189  10.924  19.832  0.00  0.00    +0.000 N 
ATOM     12  H   UNL     1      -1.911  13.322  21.895  0.00  0.00    +0.000 HD
ENDROOT
BRANCH  11  13
ATOM     13  C   UNL     1       0.916   9.776  19.449  0.00  0.00    +0.000 A 
ATOM     14  C   UNL     1       1.390   9.660  18.124  0.00  0.00    +0.000 A 
ATOM     15  C   UNL     1       2.162   8.576  17.683  0.00  0.00    +0.000 A 
ATOM     16  C   UNL     1       2.474   7.541  18.557  0.00  0.00    +0.000 A 
ATOM     17  C   UNL     1       2.004   7.622  19.871  0.00  0.00    +0.000 A 
ATOM     18  C   UNL     1       1.248   8.723  20.337  0.00  0.00    +0.000 A 
ATOM     19  C   UNL     1       0.904   8.707  21.805  0.00  0.00    +0.000 C 
BRANCH  16  20
ATOM     20  C   UNL     1       3.295   6.348  18.181  0.00  0.00    +0.000 C 
ATOM     21  C   UNL     1       2.656   5.010  17.918  0.00  0.00    +0.000 C 
ATOM     22  O   UNL     1       4.521   6.462  18.094  0.00  0.00    +0.000 OA
ENDBRANCH  16  20
ENDBRANCH  11  13
BRANCH   1  23
ATOM     23  N   UNL     1      -3.913  13.459  20.596  0.00  0.00    +0.000 N 
BRANCH  23  24
ATOM     24  C   UNL     1      -5.147  13.888  19.906  0.00  0.00    +0.000 C 
ATOM     25  C   UNL     1      -5.502  15.355  20.111  0.00  0.00    +0.000 C 
ENDBRANCH  23  24
BRANCH  23  26
ATOM     26  C   UNL     1      -4.056  13.132  22.022  0.00  0.00    +0.000 C 
BRANCH  26  27
ATOM     27  C   UNL     1      -5.504  12.765  22.381  0.00  0.00    +0.000 C 
BRANCH  27  29
ATOM     28  C   UNL     1      -7.412  13.178  23.966  0.00  0.00    +0.000 C 
ATOM     29  C   UNL     1      -5.897  13.132  23.816  0.00  0.00    +0.000 C 
ENDBRANCH  27  29
ENDBRANCH  26  27
ENDBRANCH  23  26
ENDBRANCH   1  23
TORSDOF 7
ENDMDL
MODEL 5
REMARK VINA RESULT:      -6.0      1.299      1.417
REMARK  Name = 
REMARK  12 active torsions:
REMARK  status: ('A' for Active; 'I' for Inactive)
REMARK    1  A    between atoms: C_1  and  C_2
REMARK    2  A    between atoms: C_2  and  C_3
REMARK    3  A    between atoms: C_3  and  C_4
REMARK    4  A    between atoms: C_4  and  N_5
REMARK    5  A    between atoms: N_5  and  C_6
REMARK    6  A    between atoms: N_5  and  C_8
REMARK    7  A    between atoms: C_6  and  C_7
REMARK    8  A    between atoms: C_10  and  C_11
REMARK    9  A    between atoms: N_18  and  C_19
REMARK   10  A    between atoms: C_22  and  C_23
REMARK   11  A    between atoms: C_23  and  C_24
REMARK   12  A    between atoms: C_27  and  C_28
REMARK                            x       y       z     vdW  Elec       q    Type
REMARK                         _______ _______ _______ _____ _____    ______ ____
ROOT
ATOM      1  C   UNL     1      -2.956  12.014  19.375  0.00  0.00    +0.000 A 
ATOM      2  N   UNL     1      -3.320  11.557  18.164  0.00  0.00    +0.000 NA
ATOM      3  C   UNL     1      -2.414  10.829  17.495  0.00  0.00    +0.000 A 
ATOM      4  C   UNL     1      -2.826  10.215  16.192  0.00  0.00    +0.000 C 
ATOM      5  N   UNL     1      -1.191  10.504  17.946  0.00  0.00    +0.000 NA
ATOM      6  C   UNL     1      -0.857  10.875  19.190  0.00  0.00    +0.000 A 
ATOM      7  C   UNL     1      -1.717  11.679  19.960  0.00  0.00    +0.000 A 
ATOM      8  N   UNL     1      -1.364  12.216  21.237  0.00  0.00    +0.000 N 
ATOM      9  C   UNL     1      -0.257  11.511  21.863  0.00  0.00    +0.000 C 
ATOM     10  C   UNL     1       0.857  11.248  20.840  0.00  0.00    +0.000 C 
ATOM     11  N   UNL     1       0.356  10.378  19.759  0.00  0.00    +0.000 N 
ATOM     12  H   UNL     1      -2.220  12.289  21.792  0.00  0.00    +0.000 HD
ENDROOT
BRANCH  11  13
ATOM     13  C   UNL     1       1.178   9.330  19.293  0.00  0.00    +0.000 A 
ATOM     14  C   UNL     1       1.813   9.447  18.037  0.00  0.00    +0.000 A 
ATOM     15  C   UNL     1       2.685   8.473  17.530  0.00  0.00    +0.000 A 
ATOM     16  C   UNL     1       2.940   7.317  18.260  0.00  0.00    +0.000 A 
ATOM     17  C   UNL     1       2.312   7.168  19.500  0.00  0.00    +0.000 A 
ATOM     18  C   UNL     1       1.453   8.156  20.036  0.00  0.00    +0.000 A 
ATOM     19  C   UNL     1       0.936   7.888  21.428  0.00  0.00    +0.000 C 
BRANCH  16  20
ATOM     20  C   UNL     1       3.858   6.227  17.806  0.00  0.00    +0.000 C 
ATOM     21  C   UNL     1       4.858   6.455  16.704  0.00  0.00    +0.000 C 
ATOM     22  O   UNL     1       3.786   5.117  18.340  0.00  0.00    +0.000 OA
ENDBRANCH  16  20
ENDBRANCH  11  13
BRANCH   1  23
ATOM     23  N   UNL     1      -3.872  12.790  20.138  0.00  0.00    +0.000 N 
BRANCH  23  24
ATOM     24  C   UNL     1      -3.352  14.138  20.449  0.00  0.00    +0.000 C 
ATOM     25  C   UNL     1      -3.955  14.771  21.696  0.00  0.00    +0.000 C 
ENDBRANCH  23  24
BRANCH  23  26
ATOM     26  C   UNL     1      -5.261  12.733  19.659  0.00  0.00    +0.000 C 
BRANCH  26  27
ATOM     27  C   UNL     1      -6.171  11.976  20.638  0.00  0.00    +0.000 C 
BRANCH  27  29
ATOM     28  C   UNL     1      -7.815  12.316  22.511  0.00  0.00    +0.000 C 
ATOM     29  C   UNL     1      -7.360  12.802  21.140  0.00  0.00    +0.000 C 
ENDBRANCH  27  29
ENDBRANCH  26  27
ENDBRANCH  23  26
ENDBRANCH   1  23
TORSDOF 7
ENDMDL
MODEL 6
REMARK VINA RESULT:      -6.0      2.967      5.053
REMARK  Name = 
REMARK  12 active torsions:
REMARK  status: ('A' for Active; 'I' for Inactive)
REMARK    1  A    between atoms: C_1  and  C_2
REMARK    2  A    between atoms: C_2  and  C_3
REMARK    3  A    between atoms: C_3  and  C_4
REMARK    4  A    between atoms: C_4  and  N_5
REMARK    5  A    between atoms: N_5  and  C_6
REMARK    6  A    between atoms: N_5  and  C_8
REMARK    7  A    between atoms: C_6  and  C_7
REMARK    8  A    between atoms: C_10  and  C_11
REMARK    9  A    between atoms: N_18  and  C_19
REMARK   10  A    between atoms: C_22  and  C_23
REMARK   11  A    between atoms: C_23  and  C_24
REMARK   12  A    between atoms: C_27  and  C_28
REMARK                            x       y       z     vdW  Elec       q    Type
REMARK                         _______ _______ _______ _____ _____    ______ ____
ROOT
ATOM      1  C   UNL     1       0.273  14.753  20.011  0.00  0.00    +0.000 A 
ATOM      2  N   UNL     1       1.519  14.877  20.501  0.00  0.00    +0.000 NA
ATOM      3  C   UNL     1       2.130  13.750  20.893  0.00  0.00    +0.000 A 
ATOM      4  C   UNL     1       3.556  13.841  21.343  0.00  0.00    +0.000 C 
ATOM      5  N   UNL     1       1.609  12.514  20.812  0.00  0.00    +0.000 NA
ATOM      6  C   UNL     1       0.407  12.372  20.235  0.00  0.00    +0.000 A 
ATOM      7  C   UNL     1      -0.338  13.494  19.832  0.00  0.00    +0.000 A 
ATOM      8  N   UNL     1      -1.676  13.417  19.335  0.00  0.00    +0.000 N 
ATOM      9  C   UNL     1      -2.031  12.088  18.864  0.00  0.00    +0.000 C 
ATOM     10  C   UNL     1      -1.551  11.022  19.857  0.00  0.00    +0.000 C 
ATOM     11  N   UNL     1      -0.080  11.057  19.965  0.00  0.00    +0.000 N 
ATOM     12  H   UNL     1      -1.805  14.179  18.665  0.00  0.00    +0.000 HD
ENDROOT
BRANCH  11  13
ATOM     13  C   UNL     1       0.629   9.836  19.992  0.00  0.00    +0.000 A 
ATOM     14  C   UNL     1       0.483   8.969  21.097  0.00  0.00    +0.000 A 
ATOM     15  C   UNL     1       1.112   7.717  21.172  0.00  0.00    +0.000 A 
ATOM     16  C   UNL     1       1.942   7.291  20.141  0.00  0.00    +0.000 A 
ATOM     17  C   UNL     1       2.117   8.137  19.041  0.00  0.00    +0.000 A 
ATOM     18  C   UNL     1       1.466   9.389  18.940  0.00  0.00    +0.000 A 
ATOM     19  C   UNL     1       1.680  10.135  17.647  0.00  0.00    +0.000 C 
BRANCH  16  20
ATOM     20  C   UNL     1       2.650   5.974  20.128  0.00  0.00    +0.000 C 
ATOM     21  C   UNL     1       2.081   4.773  20.835  0.00  0.00    +0.000 C 
ATOM     22  O   UNL     1       3.726   5.873  19.532  0.00  0.00    +0.000 OA
ENDBRANCH  16  20
ENDBRANCH  11  13
BRANCH   1  23
ATOM     23  N   UNL     1      -0.430  15.910  19.575  0.00  0.00    +0.000 N 
BRANCH  23  24
ATOM     24  C   UNL     1      -0.898  16.747  20.699  0.00  0.00    +0.000 C 
ATOM     25  C   UNL     1      -2.385  16.616  21.002  0.00  0.00    +0.000 C 
ENDBRANCH  23  24
BRANCH  23  26
ATOM     26  C   UNL     1       0.214  16.628  18.465  0.00  0.00    +0.000 C 
BRANCH  26  27
ATOM     27  C   UNL     1      -0.754  17.603  17.778  0.00  0.00    +0.000 C 
BRANCH  27  29
ATOM     28  C   UNL     1       1.397  18.181  16.611  0.00  0.00    +0.000 C 
ATOM     29  C   UNL     1      -0.091  18.486  16.716  0.00  0.00    +0.000 C 
ENDBRANCH  27  29
ENDBRANCH  26  27
ENDBRANCH  23  26
ENDBRANCH   1  23
TORSDOF 7
ENDMDL
MODEL 7
REMARK VINA RESULT:      -5.9      2.939      5.309
REMARK  Name = 
REMARK  12 active torsions:
REMARK  status: ('A' for Active; 'I' for Inactive)
REMARK    1  A    between atoms: C_1  and  C_2
REMARK    2  A    between atoms: C_2  and  C_3
REMARK    3  A    between atoms: C_3  and  C_4
REMARK    4  A    between atoms: C_4  and  N_5
REMARK    5  A    between atoms: N_5  and  C_6
REMARK    6  A    between atoms: N_5  and  C_8
REMARK    7  A    between atoms: C_6  and  C_7
REMARK    8  A    between atoms: C_10  and  C_11
REMARK    9  A    between atoms: N_18  and  C_19
REMARK   10  A    between atoms: C_22  and  C_23
REMARK   11  A    between atoms: C_23  and  C_24
REMARK   12  A    between atoms: C_27  and  C_28
REMARK                            x       y       z     vdW  Elec       q    Type
REMARK                         _______ _______ _______ _____ _____    ______ ____
ROOT
ATOM      1  C   UNL     1       0.628  11.574  20.674  0.00  0.00    +0.000 A 
ATOM      2  N   UNL     1       0.267  11.175  21.907  0.00  0.00    +0.000 NA
ATOM      3  C   UNL     1       0.312   9.858  22.153  0.00  0.00    +0.000 A 
ATOM      4  C   UNL     1       0.021   9.392  23.547  0.00  0.00    +0.000 C 
ATOM      5  N   UNL     1       0.709   8.916  21.281  0.00  0.00    +0.000 NA
ATOM      6  C   UNL     1       1.161   9.315  20.084  0.00  0.00    +0.000 A 
ATOM      7  C   UNL     1       1.114  10.669  19.707  0.00  0.00    +0.000 A 
ATOM      8  N   UNL     1       1.456  11.139  18.401  0.00  0.00    +0.000 N 
ATOM      9  C   UNL     1       2.268  10.193  17.652  0.00  0.00    +0.000 C 
ATOM     10  C   UNL     1       1.711   8.772  17.803  0.00  0.00    +0.000 C 
ATOM     11  N   UNL     1       1.765   8.354  19.216  0.00  0.00    +0.000 N 
ATOM     12  H   UNL     1       1.840  12.081  18.499  0.00  0.00    +0.000 HD
ENDROOT
BRANCH  11  13
ATOM     13  C   UNL     1       2.194   7.044  19.523  0.00  0.00    +0.000 A 
ATOM     14  C   UNL     1       1.558   6.326  20.559  0.00  0.00    +0.000 A 
ATOM     15  C   UNL     1       1.892   5.003  20.886  0.00  0.00    +0.000 A 
ATOM     16  C   UNL     1       2.906   4.349  20.195  0.00  0.00    +0.000 A 
ATOM     17  C   UNL     1       3.564   5.042  19.175  0.00  0.00    +0.000 A 
ATOM     18  C   UNL     1       3.217   6.366  18.815  0.00  0.00    +0.000 A 
ATOM     19  C   UNL     1       3.953   6.935  17.628  0.00  0.00    +0.000 C 
BRANCH  16  20
ATOM     20  C   UNL     1       3.329   2.940  20.468  0.00  0.00    +0.000 C 
ATOM     21  C   UNL     1       3.942   2.086  19.390  0.00  0.00    +0.000 C 
ATOM     22  O   UNL     1       3.163   2.468  21.596  0.00  0.00    +0.000 OA
ENDBRANCH  16  20
ENDBRANCH  11  13
BRANCH   1  23
ATOM     23  N   UNL     1       0.605  12.959  20.348  0.00  0.00    +0.000 N 
BRANCH  23  24
ATOM     24  C   UNL     1      -0.746  13.546  20.461  0.00  0.00    +0.000 C 
ATOM     25  C   UNL     1      -1.794  12.881  19.579  0.00  0.00    +0.000 C 
ENDBRANCH  23  24
BRANCH  23  26
ATOM     26  C   UNL     1       1.697  13.740  20.947  0.00  0.00    +0.000 C 
BRANCH  26  27
ATOM     27  C   UNL     1       2.856  13.951  19.961  0.00  0.00    +0.000 C 
BRANCH  27  29
ATOM     28  C   UNL     1       2.562  16.188  18.849  0.00  0.00    +0.000 C 
ATOM     29  C   UNL     1       2.448  14.679  18.676  0.00  0.00    +0.000 C 
ENDBRANCH  27  29
ENDBRANCH  26  27
ENDBRANCH  23  26
ENDBRANCH   1  23
TORSDOF 7
ENDMDL
MODEL 8
REMARK VINA RESULT:      -5.9      1.167      1.644
REMARK  Name = 
REMARK  12 active torsions:
REMARK  status: ('A' for Active; 'I' for Inactive)
REMARK    1  A    between atoms: C_1  and  C_2
REMARK    2  A    between atoms: C_2  and  C_3
REMARK    3  A    between atoms: C_3  and  C_4
REMARK    4  A    between atoms: C_4  and  N_5
REMARK    5  A    between atoms: N_5  and  C_6
REMARK    6  A    between atoms: N_5  and  C_8
REMARK    7  A    between atoms: C_6  and  C_7
REMARK    8  A    between atoms: C_10  and  C_11
REMARK    9  A    between atoms: N_18  and  C_19
REMARK   10  A    between atoms: C_22  and  C_23
REMARK   11  A    between atoms: C_23  and  C_24
REMARK   12  A    between atoms: C_27  and  C_28
REMARK                            x       y       z     vdW  Elec       q    Type
REMARK                         _______ _______ _______ _____ _____    ______ ____
ROOT
ATOM      1  C   UNL     1      -3.214  12.510  19.930  0.00  0.00    +0.000 A 
ATOM      2  N   UNL     1      -3.765  11.917  18.857  0.00  0.00    +0.000 NA
ATOM      3  C   UNL     1      -2.978  11.095  18.149  0.00  0.00    +0.000 A 
ATOM      4  C   UNL     1      -3.592  10.336  17.013  0.00  0.00    +0.000 C 
ATOM      5  N   UNL     1      -1.699  10.802  18.439  0.00  0.00    +0.000 NA
ATOM      6  C   UNL     1      -1.172  11.314  19.560  0.00  0.00    +0.000 A 
ATOM      7  C   UNL     1      -1.898  12.223  20.350  0.00  0.00    +0.000 A 
ATOM      8  N   UNL     1      -1.346  12.904  21.479  0.00  0.00    +0.000 N 
ATOM      9  C   UNL     1      -0.155  12.258  22.005  0.00  0.00    +0.000 C 
ATOM     10  C   UNL     1       0.782  11.850  20.861  0.00  0.00    +0.000 C 
ATOM     11  N   UNL     1       0.115  10.866  19.987  0.00  0.00    +0.000 N 
ATOM     12  H   UNL     1      -2.103  13.062  22.149  0.00  0.00    +0.000 HD
ENDROOT
BRANCH  11  13
ATOM     13  C   UNL     1       0.852   9.751  19.530  0.00  0.00    +0.000 A 
ATOM     14  C   UNL     1       1.296   9.711  18.190  0.00  0.00    +0.000 A 
ATOM     15  C   UNL     1       2.077   8.664  17.678  0.00  0.00    +0.000 A 
ATOM     16  C   UNL     1       2.428   7.593  18.491  0.00  0.00    +0.000 A 
ATOM     17  C   UNL     1       1.989   7.600  19.819  0.00  0.00    +0.000 A 
ATOM     18  C   UNL     1       1.225   8.663  20.357  0.00  0.00    +0.000 A 
ATOM     19  C   UNL     1       0.918   8.567  21.830  0.00  0.00    +0.000 C 
BRANCH  16  20
ATOM     20  C   UNL     1       3.260   6.436  18.037  0.00  0.00    +0.000 C 
ATOM     21  C   UNL     1       2.885   5.020  18.382  0.00  0.00    +0.000 C 
ATOM     22  O   UNL     1       4.279   6.649  17.375  0.00  0.00    +0.000 OA
ENDBRANCH  16  20
ENDBRANCH  11  13
BRANCH   1  23
ATOM     23  N   UNL     1      -3.996  13.392  20.727  0.00  0.00    +0.000 N 
BRANCH  23  24
ATOM     24  C   UNL     1      -3.332  14.693  20.952  0.00  0.00    +0.000 C 
ATOM     25  C   UNL     1      -3.879  15.479  22.137  0.00  0.00    +0.000 C 
ENDBRANCH  23  24
BRANCH  23  26
ATOM     26  C   UNL     1      -5.415  13.453  20.347  0.00  0.00    +0.000 C 
BRANCH  26  27
ATOM     27  C   UNL     1      -6.296  12.626  21.295  0.00  0.00    +0.000 C 
BRANCH  27  29
ATOM     28  C   UNL     1      -7.347  11.617  19.245  0.00  0.00    +0.000 C 
ATOM     29  C   UNL     1      -6.855  11.347  20.661  0.00  0.00    +0.000 C 
ENDBRANCH  27  29
ENDBRANCH  26  27
ENDBRANCH  23  26
ENDBRANCH   1  23
TORSDOF 7
ENDMDL
MODEL 9
REMARK VINA RESULT:      -5.8      1.670      2.251
REMARK  Name = 
REMARK  12 active torsions:
REMARK  status: ('A' for Active; 'I' for Inactive)
REMARK    1  A    between atoms: C_1  and  C_2
REMARK    2  A    between atoms: C_2  and  C_3
REMARK    3  A    between atoms: C_3  and  C_4
REMARK    4  A    between atoms: C_4  and  N_5
REMARK    5  A    between atoms: N_5  and  C_6
REMARK    6  A    between atoms: N_5  and  C_8
REMARK    7  A    between atoms: C_6  and  C_7
REMARK    8  A    between atoms: C_10  and  C_11
REMARK    9  A    between atoms: N_18  and  C_19
REMARK   10  A    between atoms: C_22  and  C_23
REMARK   11  A    between atoms: C_23  and  C_24
REMARK   12  A    between atoms: C_27  and  C_28
REMARK                            x       y       z     vdW  Elec       q    Type
REMARK                         _______ _______ _______ _____ _____    ______ ____
ROOT
ATOM      1  C   UNL     1      -4.490  12.739  19.812  0.00  0.00    +0.000 A 
ATOM      2  N   UNL     1      -4.805  12.194  18.624  0.00  0.00    +0.000 NA
ATOM      3  C   UNL     1      -3.836  11.516  17.993  0.00  0.00    +0.000 A 
ATOM      4  C   UNL     1      -4.185  10.807  16.720  0.00  0.00    +0.000 C 
ATOM      5  N   UNL     1      -2.593  11.318  18.463  0.00  0.00    +0.000 NA
ATOM      6  C   UNL     1      -2.301  11.775  19.689  0.00  0.00    +0.000 A 
ATOM      7  C   UNL     1      -3.231  12.539  20.416  0.00  0.00    +0.000 A 
ATOM      8  N   UNL     1      -2.935  13.164  21.667  0.00  0.00    +0.000 N 
ATOM      9  C   UNL     1      -1.776  12.588  22.330  0.00  0.00    +0.000 C 
ATOM     10  C   UNL     1      -0.637  12.371  21.325  0.00  0.00    +0.000 C 
ATOM     11  N   UNL     1      -1.055  11.411  20.285  0.00  0.00    +0.000 N 
ATOM     12  H   UNL     1      -3.798  13.191  22.215  0.00  0.00    +0.000 HD
ENDROOT
BRANCH  11  13
ATOM     13  C   UNL     1      -0.143  10.415  19.873  0.00  0.00    +0.000 A 
ATOM     14  C   UNL     1       0.462  10.507  18.600  0.00  0.00    +0.000 A 
ATOM     15  C   UNL     1       1.416   9.587  18.141  0.00  0.00    +0.000 A 
ATOM     16  C   UNL     1       1.788   8.512  18.940  0.00  0.00    +0.000 A 
ATOM     17  C   UNL     1       1.193   8.388  20.199  0.00  0.00    +0.000 A 
ATOM     18  C   UNL     1       0.252   9.325  20.686  0.00  0.00    +0.000 A 
ATOM     19  C   UNL     1      -0.220   9.104  22.101  0.00  0.00    +0.000 C 
BRANCH  16  20
ATOM     20  C   UNL     1       2.799   7.484  18.541  0.00  0.00    +0.000 C 
ATOM     21  C   UNL     1       2.966   6.208  19.322  0.00  0.00    +0.000 C 
ATOM     22  O   UNL     1       3.514   7.691  17.557  0.00  0.00    +0.000 OA
ENDBRANCH  16  20
ENDBRANCH  11  13
BRANCH   1  23
ATOM     23  N   UNL     1      -5.474  13.470  20.534  0.00  0.00    +0.000 N 
BRANCH  23  24
ATOM     24  C   UNL     1      -5.986  14.632  19.778  0.00  0.00    +0.000 C 
ATOM     25  C   UNL     1      -7.212  15.291  20.397  0.00  0.00    +0.000 C 
ENDBRANCH  23  24
BRANCH  23  26
ATOM     26  C   UNL     1      -6.490  12.633  21.191  0.00  0.00    +0.000 C 
BRANCH  26  27
ATOM     27  C   UNL     1      -7.301  11.818  20.173  0.00  0.00    +0.000 C 
BRANCH  27  29
ATOM     28  C   UNL     1      -7.006   9.444  19.396  0.00  0.00    +0.000 C 
ATOM     29  C   UNL     1      -7.451  10.339  20.545  0.00  0.00    +0.000 C 
ENDBRANCH  27  29
ENDBRANCH  26  27
ENDBRANCH  23  26
ENDBRANCH   1  23
TORSDOF 7
ENDMDL
