MODEL 1
REMARK VINA RESULT:      -7.2      0.000      0.000
REMARK  Name = 
REMARK  17 active torsions:
REMARK  status: ('A' for Active; 'I' for Inactive)
REMARK    1  A    between atoms: C_1  and  C_2
REMARK    2  A    between atoms: C_2  and  C_3
REMARK    3  A    between atoms: C_3  and  C_4
REMARK    4  A    between atoms: C_4  and  C_5
REMARK    5  A    between atoms: C_5  and  C_6
REMARK    6  A    between atoms: C_6  and  C_7
REMARK    7  A    between atoms: C_7  and  C_8
REMARK    8  A    between atoms: C_8  and  C_9
REMARK    9  A    between atoms: C_9  and  C_10
REMARK   10  A    between atoms: C_10  and  C_11
REMARK   11  A    between atoms: C_11  and  C_12
REMARK   12  A    between atoms: C_12  and  O_14
REMARK   13  A    between atoms: O_14  and  C_15
REMARK   14  A    between atoms: C_18  and  N_19
REMARK   15  A    between atoms: C_28  and  C_29
REMARK   16  A    between atoms: C_28  and  C_31
REMARK   17  A    between atoms: C_29  and  O_30
REMARK                            x       y       z     vdW  Elec       q    Type
REMARK                         _______ _______ _______ _____ _____    ______ ____
ROOT
ATOM      1  C   UNL     1       6.161   6.397  17.613  0.00  0.00    +0.000 C 
ATOM      2  C   UNL     1       4.670   6.601  17.429  0.00  0.00    +0.000 C 
ATOM      3  F   UNL     1       4.465   7.293  16.263  0.00  0.00    +0.000 F 
ATOM      4  C   UNL     1       4.126   5.170  17.226  0.00  0.00    +0.000 C 
ATOM      5  O   UNL     1       5.223   4.303  16.908  0.00  0.00    +0.000 OA
ATOM      6  C   UNL     1       6.435   5.081  16.854  0.00  0.00    +0.000 C 
ENDROOT
BRANCH   4   7
ATOM      7  N   UNL     1       3.371   4.504  18.284  0.00  0.00    +0.000 N 
ATOM      8  C   UNL     1       3.433   5.041  19.558  0.00  0.00    +0.000 A 
ATOM      9  C   UNL     1       2.626   4.616  20.531  0.00  0.00    +0.000 A 
ATOM     10  C   UNL     1       1.708   3.523  20.172  0.00  0.00    +0.000 A 
ATOM     11  N   UNL     1       0.909   2.962  21.126  0.00  0.00    +0.000 N 
ATOM     12  N   UNL     1       1.616   3.043  18.973  0.00  0.00    +0.000 NA
ATOM     13  C   UNL     1       2.383   3.573  17.964  0.00  0.00    +0.000 A 
ATOM     14  O   UNL     1       2.197   3.224  16.802  0.00  0.00    +0.000 OA
ATOM     15  H   UNL     1       1.247   2.954  22.079  0.00  0.00    +0.000 HD
ATOM     16  H   UNL     1       0.512   2.077  20.827  0.00  0.00    +0.000 HD
ENDBRANCH   4   7
BRANCH   6  17
ATOM     17  C   UNL     1       6.778   5.361  15.369  0.00  0.00    +0.000 C 
ATOM     18 CL   UNL     1       6.394   4.031  14.246  0.00  0.00    +0.000 Cl
ENDBRANCH   6  17
BRANCH   6  19
ATOM     19  C   UNL     1       7.530   4.321  17.634  0.00  0.00    +0.000 C 
BRANCH  19  20
ATOM     20  O   UNL     1       7.694   4.768  18.969  0.00  0.00    +0.000 OA
ATOM     21  H   UNL     1       8.536   4.390  19.283  0.00  0.00    +0.000 HD
ENDBRANCH  19  20
ENDBRANCH   6  19
BRANCH   1  22
ATOM     22  O   UNL     1       7.025   7.419  17.086  0.00  0.00    +0.000 OA
BRANCH  22  23
ATOM     23  C   UNL     1       7.883   7.997  17.960  0.00  0.00    +0.000 C 
ATOM     24  O   UNL     1       8.528   7.380  18.789  0.00  0.00    +0.000 OA
BRANCH  23  25
ATOM     25  C   UNL     1       8.113   9.460  17.629  0.00  0.00    +0.000 C 
BRANCH  25  26
ATOM     26  C   UNL     1       8.931  10.270  18.635  0.00  0.00    +0.000 C 
BRANCH  26  27
ATOM     27  C   UNL     1      10.061  11.068  17.986  0.00  0.00    +0.000 C 
BRANCH  27  28
ATOM     28  C   UNL     1      11.016  11.603  19.053  0.00  0.00    +0.000 C 
BRANCH  28  29
ATOM     29  C   UNL     1      10.346  11.702  20.423  0.00  0.00    +0.000 C 
BRANCH  29  30
ATOM     30  C   UNL     1      10.403  13.140  20.934  0.00  0.00    +0.000 C 
BRANCH  30  31
ATOM     31  C   UNL     1       9.890  14.141  19.902  0.00  0.00    +0.000 C 
BRANCH  31  32
ATOM     32  C   UNL     1       8.367  14.058  19.803  0.00  0.00    +0.000 C 
BRANCH  32  33
ATOM     33  C   UNL     1       7.701  14.243  21.164  0.00  0.00    +0.000 C 
BRANCH  33  35
ATOM     34  C   UNL     1       7.009  16.423  20.114  0.00  0.00    +0.000 C 
ATOM     35  C   UNL     1       6.632  15.332  21.101  0.00  0.00    +0.000 C 
ENDBRANCH  33  35
ENDBRANCH  32  33
ENDBRANCH  31  32
ENDBRANCH  30  31
ENDBRANCH  29  30
ENDBRANCH  28  29
ENDBRANCH  27  28
ENDBRANCH  26  27
ENDBRANCH  25  26
ENDBRANCH  23  25
ENDBRANCH  22  23
ENDBRANCH   1  22
TORSDOF 16
ENDMDL
MODEL 2
REMARK VINA RESULT:      -7.2      1.363      1.911
REMARK  Name = 
REMARK  17 active torsions:
REMARK  status: ('A' for Active; 'I' for Inactive)
REMARK    1  A    between atoms: C_1  and  C_2
REMARK    2  A    between atoms: C_2  and  C_3
REMARK    3  A    between atoms: C_3  and  C_4
REMARK    4  A    between atoms: C_4  and  C_5
REMARK    5  A    between atoms: C_5  and  C_6
REMARK    6  A    between atoms: C_6  and  C_7
REMARK    7  A    between atoms: C_7  and  C_8
REMARK    8  A    between atoms: C_8  and  C_9
REMARK    9  A    between atoms: C_9  and  C_10
REMARK   10  A    between atoms: C_10  and  C_11
REMARK   11  A    between atoms: C_11  and  C_12
REMARK   12  A    between atoms: C_12  and  O_14
REMARK   13  A    between atoms: O_14  and  C_15
REMARK   14  A    between atoms: C_18  and  N_19
REMARK   15  A    between atoms: C_28  and  C_29
REMARK   16  A    between atoms: C_28  and  C_31
REMARK   17  A    between atoms: C_29  and  O_30
REMARK                            x       y       z     vdW  Elec       q    Type
REMARK                         _______ _______ _______ _____ _____    ______ ____
ROOT
ATOM      1  C   UNL     1       6.084   6.482  17.501  0.00  0.00    +0.000 C 
ATOM      2  C   UNL     1       4.662   6.662  17.008  0.00  0.00    +0.000 C 
ATOM      3  F   UNL     1       4.703   7.146  15.726  0.00  0.00    +0.000 F 
ATOM      4  C   UNL     1       4.109   5.221  16.948  0.00  0.00    +0.000 C 
ATOM      5  O   UNL     1       5.211   4.304  16.991  0.00  0.00    +0.000 OA
ATOM      6  C   UNL     1       6.442   5.053  17.037  0.00  0.00    +0.000 C 
ENDROOT
BRANCH   4   7
ATOM      7  N   UNL     1       3.147   4.751  17.941  0.00  0.00    +0.000 N 
ATOM      8  C   UNL     1       2.152   3.886  17.519  0.00  0.00    +0.000 A 
ATOM      9  C   UNL     1       1.361   3.260  18.389  0.00  0.00    +0.000 A 
ATOM     10  C   UNL     1       1.587   3.581  19.809  0.00  0.00    +0.000 A 
ATOM     11  N   UNL     1       0.765   3.058  20.765  0.00  0.00    +0.000 N 
ATOM     12  N   UNL     1       2.540   4.357  20.214  0.00  0.00    +0.000 NA
ATOM     13  C   UNL     1       3.410   4.904  19.303  0.00  0.00    +0.000 A 
ATOM     14  O   UNL     1       4.398   5.520  19.689  0.00  0.00    +0.000 OA
ATOM     15  H   UNL     1      -0.194   2.862  20.508  0.00  0.00    +0.000 HD
ATOM     16  H   UNL     1       0.858   3.533  21.657  0.00  0.00    +0.000 HD
ENDBRANCH   4   7
BRANCH   6  17
ATOM     17  C   UNL     1       7.063   5.073  15.617  0.00  0.00    +0.000 C 
ATOM     18 CL   UNL     1       6.344   3.915  14.468  0.00  0.00    +0.000 Cl
ENDBRANCH   6  17
BRANCH   6  19
ATOM     19  C   UNL     1       7.344   4.430  18.125  0.00  0.00    +0.000 C 
BRANCH  19  20
ATOM     20  O   UNL     1       7.095   4.930  19.427  0.00  0.00    +0.000 OA
ATOM     21  H   UNL     1       6.836   5.864  19.318  0.00  0.00    +0.000 HD
ENDBRANCH  19  20
ENDBRANCH   6  19
BRANCH   1  22
ATOM     22  O   UNL     1       7.070   7.393  16.982  0.00  0.00    +0.000 OA
BRANCH  22  23
ATOM     23  C   UNL     1       7.873   7.996  17.889  0.00  0.00    +0.000 C 
ATOM     24  O   UNL     1       8.506   7.399  18.743  0.00  0.00    +0.000 OA
BRANCH  23  25
ATOM     25  C   UNL     1       8.067   9.466  17.570  0.00  0.00    +0.000 C 
BRANCH  25  26
ATOM     26  C   UNL     1       8.990  10.255  18.500  0.00  0.00    +0.000 C 
BRANCH  26  27
ATOM     27  C   UNL     1       9.436  11.592  17.911  0.00  0.00    +0.000 C 
BRANCH  27  28
ATOM     28  C   UNL     1      10.954  11.741  18.019  0.00  0.00    +0.000 C 
BRANCH  28  29
ATOM     29  C   UNL     1      11.359  13.141  18.481  0.00  0.00    +0.000 C 
BRANCH  29  30
ATOM     30  C   UNL     1      10.118  13.997  18.719  0.00  0.00    +0.000 C 
BRANCH  30  31
ATOM     31  C   UNL     1      10.104  14.621  20.111  0.00  0.00    +0.000 C 
BRANCH  31  32
ATOM     32  C   UNL     1      10.389  13.553  21.167  0.00  0.00    +0.000 C 
BRANCH  32  33
ATOM     33  C   UNL     1       9.167  12.674  21.425  0.00  0.00    +0.000 C 
BRANCH  33  35
ATOM     34  C   UNL     1       7.712  11.705  23.234  0.00  0.00    +0.000 C 
ATOM     35  C   UNL     1       8.714  12.789  22.879  0.00  0.00    +0.000 C 
ENDBRANCH  33  35
ENDBRANCH  32  33
ENDBRANCH  31  32
ENDBRANCH  30  31
ENDBRANCH  29  30
ENDBRANCH  28  29
ENDBRANCH  27  28
ENDBRANCH  26  27
ENDBRANCH  25  26
ENDBRANCH  23  25
ENDBRANCH  22  23
ENDBRANCH   1  22
TORSDOF 16
ENDMDL
MODEL 3
REMARK VINA RESULT:      -7.1      5.288      7.592
REMARK  Name = 
REMARK  17 active torsions:
REMARK  status: ('A' for Active; 'I' for Inactive)
REMARK    1  A    between atoms: C_1  and  C_2
REMARK    2  A    between atoms: C_2  and  C_3
REMARK    3  A    between atoms: C_3  and  C_4
REMARK    4  A    between atoms: C_4  and  C_5
REMARK    5  A    between atoms: C_5  and  C_6
REMARK    6  A    between atoms: C_6  and  C_7
REMARK    7  A    between atoms: C_7  and  C_8
REMARK    8  A    between atoms: C_8  and  C_9
REMARK    9  A    between atoms: C_9  and  C_10
REMARK   10  A    between atoms: C_10  and  C_11
REMARK   11  A    between atoms: C_11  and  C_12
REMARK   12  A    between atoms: C_12  and  O_14
REMARK   13  A    between atoms: O_14  and  C_15
REMARK   14  A    between atoms: C_18  and  N_19
REMARK   15  A    between atoms: C_28  and  C_29
REMARK   16  A    between atoms: C_28  and  C_31
REMARK   17  A    between atoms: C_29  and  O_30
REMARK                            x       y       z     vdW  Elec       q    Type
REMARK                         _______ _______ _______ _____ _____    ______ ____
ROOT
ATOM      1  C   UNL     1       3.400   5.367  18.448  0.00  0.00    +0.000 C 
ATOM      2  C   UNL     1       4.886   5.643  18.564  0.00  0.00    +0.000 C 
ATOM      3  F   UNL     1       5.228   5.637  19.892  0.00  0.00    +0.000 F 
ATOM      4  C   UNL     1       5.541   4.410  17.905  0.00  0.00    +0.000 C 
ATOM      5  O   UNL     1       4.562   3.366  17.811  0.00  0.00    +0.000 OA
ATOM      6  C   UNL     1       3.328   3.826  18.398  0.00  0.00    +0.000 C 
ENDROOT
BRANCH   4   7
ATOM      7  N   UNL     1       6.159   4.511  16.586  0.00  0.00    +0.000 N 
ATOM      8  C   UNL     1       5.512   3.908  15.521  0.00  0.00    +0.000 A 
ATOM      9  C   UNL     1       5.900   4.118  14.263  0.00  0.00    +0.000 A 
ATOM     10  C   UNL     1       7.074   4.989  14.091  0.00  0.00    +0.000 A 
ATOM     11  N   UNL     1       7.599   5.187  12.847  0.00  0.00    +0.000 N 
ATOM     12  N   UNL     1       7.659   5.589  15.077  0.00  0.00    +0.000 NA
ATOM     13  C   UNL     1       7.172   5.441  16.353  0.00  0.00    +0.000 A 
ATOM     14  O   UNL     1       7.630   6.117  17.269  0.00  0.00    +0.000 OA
ATOM     15  H   UNL     1       7.505   4.442  12.170  0.00  0.00    +0.000 HD
ATOM     16  H   UNL     1       8.530   5.593  12.879  0.00  0.00    +0.000 HD
ENDBRANCH   4   7
BRANCH   6  17
ATOM     17  C   UNL     1       3.207   3.231  19.824  0.00  0.00    +0.000 C 
ATOM     18 CL   UNL     1       1.678   2.375  20.152  0.00  0.00    +0.000 Cl
ENDBRANCH   6  17
BRANCH   6  19
ATOM     19  C   UNL     1       2.173   3.451  17.444  0.00  0.00    +0.000 C 
BRANCH  19  20
ATOM     20  O   UNL     1       1.117   4.395  17.428  0.00  0.00    +0.000 OA
ATOM     21  H   UNL     1       0.688   4.312  16.556  0.00  0.00    +0.000 HD
ENDBRANCH  19  20
ENDBRANCH   6  19
BRANCH   1  22
ATOM     22  O   UNL     1       2.569   5.829  19.528  0.00  0.00    +0.000 OA
BRANCH  22  23
ATOM     23  C   UNL     1       2.198   7.132  19.492  0.00  0.00    +0.000 C 
ATOM     24  O   UNL     1       1.886   7.778  20.477  0.00  0.00    +0.000 OA
BRANCH  23  25
ATOM     25  C   UNL     1       2.441   7.741  18.124  0.00  0.00    +0.000 C 
BRANCH  25  26
ATOM     26  C   UNL     1       1.995   9.191  17.931  0.00  0.00    +0.000 C 
BRANCH  26  27
ATOM     27  C   UNL     1       0.503   9.326  17.630  0.00  0.00    +0.000 C 
BRANCH  27  28
ATOM     28  C   UNL     1      -0.167  10.236  18.659  0.00  0.00    +0.000 C 
BRANCH  28  29
ATOM     29  C   UNL     1      -1.668  10.378  18.405  0.00  0.00    +0.000 C 
BRANCH  29  30
ATOM     30  C   UNL     1      -2.221  11.576  19.173  0.00  0.00    +0.000 C 
BRANCH  30  31
ATOM     31  C   UNL     1      -1.127  12.347  19.907  0.00  0.00    +0.000 C 
BRANCH  31  32
ATOM     32  C   UNL     1      -1.566  12.643  21.341  0.00  0.00    +0.000 C 
BRANCH  32  33
ATOM     33  C   UNL     1      -0.597  12.053  22.362  0.00  0.00    +0.000 C 
BRANCH  33  35
ATOM     34  C   UNL     1      -0.462   9.591  22.864  0.00  0.00    +0.000 C 
ATOM     35  C   UNL     1      -1.235  10.877  23.098  0.00  0.00    +0.000 C 
ENDBRANCH  33  35
ENDBRANCH  32  33
ENDBRANCH  31  32
ENDBRANCH  30  31
ENDBRANCH  29  30
ENDBRANCH  28  29
ENDBRANCH  27  28
ENDBRANCH  26  27
ENDBRANCH  25  26
ENDBRANCH  23  25
ENDBRANCH  22  23
ENDBRANCH   1  22
TORSDOF 16
ENDMDL
MODEL 4
REMARK VINA RESULT:      -7.1      5.345      7.812
REMARK  Name = 
REMARK  17 active torsions:
REMARK  status: ('A' for Active; 'I' for Inactive)
REMARK    1  A    between atoms: C_1  and  C_2
REMARK    2  A    between atoms: C_2  and  C_3
REMARK    3  A    between atoms: C_3  and  C_4
REMARK    4  A    between atoms: C_4  and  C_5
REMARK    5  A    between atoms: C_5  and  C_6
REMARK    6  A    between atoms: C_6  and  C_7
REMARK    7  A    between atoms: C_7  and  C_8
REMARK    8  A    between atoms: C_8  and  C_9
REMARK    9  A    between atoms: C_9  and  C_10
REMARK   10  A    between atoms: C_10  and  C_11
REMARK   11  A    between atoms: C_11  and  C_12
REMARK   12  A    between atoms: C_12  and  O_14
REMARK   13  A    between atoms: O_14  and  C_15
REMARK   14  A    between atoms: C_18  and  N_19
REMARK   15  A    between atoms: C_28  and  C_29
REMARK   16  A    between atoms: C_28  and  C_31
REMARK   17  A    between atoms: C_29  and  O_30
REMARK                            x       y       z     vdW  Elec       q    Type
REMARK                         _______ _______ _______ _____ _____    ______ ____
ROOT
ATOM      1  C   UNL     1       3.232   5.252  18.494  0.00  0.00    +0.000 C 
ATOM      2  C   UNL     1       4.706   5.591  18.604  0.00  0.00    +0.000 C 
ATOM      3  F   UNL     1       5.048   5.622  19.932  0.00  0.00    +0.000 F 
ATOM      4  C   UNL     1       5.411   4.375  17.966  0.00  0.00    +0.000 C 
ATOM      5  O   UNL     1       4.477   3.290  17.890  0.00  0.00    +0.000 OA
ATOM      6  C   UNL     1       3.225   3.708  18.469  0.00  0.00    +0.000 C 
ENDROOT
BRANCH   4   7
ATOM      7  N   UNL     1       6.025   4.480  16.645  0.00  0.00    +0.000 N 
ATOM      8  C   UNL     1       5.303   4.019  15.558  0.00  0.00    +0.000 A 
ATOM      9  C   UNL     1       5.701   4.254  14.308  0.00  0.00    +0.000 A 
ATOM     10  C   UNL     1       6.968   4.991  14.167  0.00  0.00    +0.000 A 
ATOM     11  N   UNL     1       7.502   5.198  12.928  0.00  0.00    +0.000 N 
ATOM     12  N   UNL     1       7.629   5.460  15.177  0.00  0.00    +0.000 NA
ATOM     13  C   UNL     1       7.139   5.297  16.449  0.00  0.00    +0.000 A 
ATOM     14  O   UNL     1       7.682   5.861  17.394  0.00  0.00    +0.000 OA
ATOM     15  H   UNL     1       7.315   4.509  12.212  0.00  0.00    +0.000 HD
ATOM     16  H   UNL     1       8.474   5.490  12.968  0.00  0.00    +0.000 HD
ENDBRANCH   4   7
BRANCH   6  17
ATOM     17  C   UNL     1       3.128   3.134  19.905  0.00  0.00    +0.000 C 
ATOM     18 CL   UNL     1       1.498   2.597  20.390  0.00  0.00    +0.000 Cl
ENDBRANCH   6  17
BRANCH   6  19
ATOM     19  C   UNL     1       2.087   3.269  17.522  0.00  0.00    +0.000 C 
BRANCH  19  20
ATOM     20  O   UNL     1       1.125   4.281  17.279  0.00  0.00    +0.000 OA
ATOM     21  H   UNL     1       1.172   4.481  16.325  0.00  0.00    +0.000 HD
ENDBRANCH  19  20
ENDBRANCH   6  19
BRANCH   1  22
ATOM     22  O   UNL     1       2.383   5.697  19.566  0.00  0.00    +0.000 OA
BRANCH  22  23
ATOM     23  C   UNL     1       2.176   7.033  19.659  0.00  0.00    +0.000 C 
ATOM     24  O   UNL     1       2.147   7.786  18.702  0.00  0.00    +0.000 OA
BRANCH  23  25
ATOM     25  C   UNL     1       1.760   7.434  21.062  0.00  0.00    +0.000 C 
BRANCH  25  26
ATOM     26  C   UNL     1       0.566   8.382  21.178  0.00  0.00    +0.000 C 
BRANCH  26  27
ATOM     27  C   UNL     1       0.803   9.529  22.160  0.00  0.00    +0.000 C 
BRANCH  27  28
ATOM     28  C   UNL     1      -0.529  10.053  22.698  0.00  0.00    +0.000 C 
BRANCH  28  29
ATOM     29  C   UNL     1      -0.683  11.557  22.477  0.00  0.00    +0.000 C 
BRANCH  29  30
ATOM     30  C   UNL     1      -1.424  11.824  21.169  0.00  0.00    +0.000 C 
BRANCH  30  31
ATOM     31  C   UNL     1      -0.481  12.245  20.045  0.00  0.00    +0.000 C 
BRANCH  31  32
ATOM     32  C   UNL     1      -0.356  11.120  19.017  0.00  0.00    +0.000 C 
BRANCH  32  33
ATOM     33  C   UNL     1      -1.723  10.586  18.596  0.00  0.00    +0.000 C 
BRANCH  33  35
ATOM     34  C   UNL     1      -3.105   9.763  16.661  0.00  0.00    +0.000 C 
ATOM     35  C   UNL     1      -1.778  10.369  17.086  0.00  0.00    +0.000 C 
ENDBRANCH  33  35
ENDBRANCH  32  33
ENDBRANCH  31  32
ENDBRANCH  30  31
ENDBRANCH  29  30
ENDBRANCH  28  29
ENDBRANCH  27  28
ENDBRANCH  26  27
ENDBRANCH  25  26
ENDBRANCH  23  25
ENDBRANCH  22  23
ENDBRANCH   1  22
TORSDOF 16
ENDMDL
MODEL 5
REMARK VINA RESULT:      -7.0      5.222      8.038
REMARK  Name = 
REMARK  17 active torsions:
REMARK  status: ('A' for Active; 'I' for Inactive)
REMARK    1  A    between atoms: C_1  and  C_2
REMARK    2  A    between atoms: C_2  and  C_3
REMARK    3  A    between atoms: C_3  and  C_4
REMARK    4  A    between atoms: C_4  and  C_5
REMARK    5  A    between atoms: C_5  and  C_6
REMARK    6  A    between atoms: C_6  and  C_7
REMARK    7  A    between atoms: C_7  and  C_8
REMARK    8  A    between atoms: C_8  and  C_9
REMARK    9  A    between atoms: C_9  and  C_10
REMARK   10  A    between atoms: C_10  and  C_11
REMARK   11  A    between atoms: C_11  and  C_12
REMARK   12  A    between atoms: C_12  and  O_14
REMARK   13  A    between atoms: O_14  and  C_15
REMARK   14  A    between atoms: C_18  and  N_19
REMARK   15  A    between atoms: C_28  and  C_29
REMARK   16  A    between atoms: C_28  and  C_31
REMARK   17  A    between atoms: C_29  and  O_30
REMARK                            x       y       z     vdW  Elec       q    Type
REMARK                         _______ _______ _______ _____ _____    ______ ____
ROOT
ATOM      1  C   UNL     1       3.192   5.237  18.574  0.00  0.00    +0.000 C 
ATOM      2  C   UNL     1       4.672   5.547  18.678  0.00  0.00    +0.000 C 
ATOM      3  F   UNL     1       5.022   5.566  20.004  0.00  0.00    +0.000 F 
ATOM      4  C   UNL     1       5.350   4.319  18.032  0.00  0.00    +0.000 C 
ATOM      5  O   UNL     1       4.393   3.253  17.957  0.00  0.00    +0.000 OA
ATOM      6  C   UNL     1       3.153   3.695  18.545  0.00  0.00    +0.000 C 
ENDROOT
BRANCH   4   7
ATOM      7  N   UNL     1       5.959   4.415  16.708  0.00  0.00    +0.000 N 
ATOM      8  C   UNL     1       5.189   4.057  15.615  0.00  0.00    +0.000 A 
ATOM      9  C   UNL     1       5.596   4.300  14.369  0.00  0.00    +0.000 A 
ATOM     10  C   UNL     1       6.920   4.929  14.237  0.00  0.00    +0.000 A 
ATOM     11  N   UNL     1       7.459   5.132  13.000  0.00  0.00    +0.000 N 
ATOM     12  N   UNL     1       7.628   5.304  15.255  0.00  0.00    +0.000 NA
ATOM     13  C   UNL     1       7.138   5.139  16.527  0.00  0.00    +0.000 A 
ATOM     14  O   UNL     1       7.736   5.621  17.484  0.00  0.00    +0.000 OA
ATOM     15  H   UNL     1       7.206   4.487  12.263  0.00  0.00    +0.000 HD
ATOM     16  H   UNL     1       8.453   5.336  13.039  0.00  0.00    +0.000 HD
ENDBRANCH   4   7
BRANCH   6  17
ATOM     17  C   UNL     1       3.052   3.117  19.979  0.00  0.00    +0.000 C 
ATOM     18 CL   UNL     1       1.424   2.564  20.452  0.00  0.00    +0.000 Cl
ENDBRANCH   6  17
BRANCH   6  19
ATOM     19  C   UNL     1       2.001   3.283  17.603  0.00  0.00    +0.000 C 
BRANCH  19  20
ATOM     20  O   UNL     1       1.083   4.327  17.333  0.00  0.00    +0.000 OA
ATOM     21  H   UNL     1       0.292   4.144  17.874  0.00  0.00    +0.000 HD
ENDBRANCH  19  20
ENDBRANCH   6  19
BRANCH   1  22
ATOM     22  O   UNL     1       2.357   5.697  19.653  0.00  0.00    +0.000 OA
BRANCH  22  23
ATOM     23  C   UNL     1       2.117   7.028  19.707  0.00  0.00    +0.000 C 
ATOM     24  O   UNL     1       2.413   7.811  18.821  0.00  0.00    +0.000 OA
BRANCH  23  25
ATOM     25  C   UNL     1       1.236   7.387  20.889  0.00  0.00    +0.000 C 
BRANCH  25  26
ATOM     26  C   UNL     1       1.314   8.828  21.391  0.00  0.00    +0.000 C 
BRANCH  26  27
ATOM     27  C   UNL     1       0.281   9.748  20.742  0.00  0.00    +0.000 C 
BRANCH  27  28
ATOM     28  C   UNL     1       0.976  10.868  19.968  0.00  0.00    +0.000 C 
BRANCH  28  29
ATOM     29  C   UNL     1      -0.026  11.828  19.327  0.00  0.00    +0.000 C 
BRANCH  29  30
ATOM     30  C   UNL     1      -1.404  11.652  19.963  0.00  0.00    +0.000 C 
BRANCH  30  31
ATOM     31  C   UNL     1      -2.532  11.792  18.945  0.00  0.00    +0.000 C 
BRANCH  31  32
ATOM     32  C   UNL     1      -2.054  11.336  17.567  0.00  0.00    +0.000 C 
BRANCH  32  33
ATOM     33  C   UNL     1      -3.213  10.854  16.698  0.00  0.00    +0.000 C 
BRANCH  33  35
ATOM     34  C   UNL     1      -3.536  10.088  14.323  0.00  0.00    +0.000 C 
ATOM     35  C   UNL     1      -2.712   9.931  15.589  0.00  0.00    +0.000 C 
ENDBRANCH  33  35
ENDBRANCH  32  33
ENDBRANCH  31  32
ENDBRANCH  30  31
ENDBRANCH  29  30
ENDBRANCH  28  29
ENDBRANCH  27  28
ENDBRANCH  26  27
ENDBRANCH  25  26
ENDBRANCH  23  25
ENDBRANCH  22  23
ENDBRANCH   1  22
TORSDOF 16
ENDMDL
MODEL 6
REMARK VINA RESULT:      -7.0      1.711      2.047
REMARK  Name = 
REMARK  17 active torsions:
REMARK  status: ('A' for Active; 'I' for Inactive)
REMARK    1  A    between atoms: C_1  and  C_2
REMARK    2  A    between atoms: C_2  and  C_3
REMARK    3  A    between atoms: C_3  and  C_4
REMARK    4  A    between atoms: C_4  and  C_5
REMARK    5  A    between atoms: C_5  and  C_6
REMARK    6  A    between atoms: C_6  and  C_7
REMARK    7  A    between atoms: C_7  and  C_8
REMARK    8  A    between atoms: C_8  and  C_9
REMARK    9  A    between atoms: C_9  and  C_10
REMARK   10  A    between atoms: C_10  and  C_11
REMARK   11  A    between atoms: C_11  and  C_12
REMARK   12  A    between atoms: C_12  and  O_14
REMARK   13  A    between atoms: O_14  and  C_15
REMARK   14  A    between atoms: C_18  and  N_19
REMARK   15  A    between atoms: C_28  and  C_29
REMARK   16  A    between atoms: C_28  and  C_31
REMARK   17  A    between atoms: C_29  and  O_30
REMARK                            x       y       z     vdW  Elec       q    Type
REMARK                         _______ _______ _______ _____ _____    ______ ____
ROOT
ATOM      1  C   UNL     1       5.541   6.322  17.756  0.00  0.00    +0.000 C 
ATOM      2  C   UNL     1       4.077   6.656  17.968  0.00  0.00    +0.000 C 
ATOM      3  F   UNL     1       3.700   7.578  17.026  0.00  0.00    +0.000 F 
ATOM      4  C   UNL     1       3.349   5.332  17.647  0.00  0.00    +0.000 C 
ATOM      5  O   UNL     1       4.248   4.475  16.930  0.00  0.00    +0.000 OA
ATOM      6  C   UNL     1       5.497   5.168  16.732  0.00  0.00    +0.000 C 
ENDROOT
BRANCH   4   7
ATOM      7  N   UNL     1       2.776   4.520  18.717  0.00  0.00    +0.000 N 
ATOM      8  C   UNL     1       3.267   4.699  19.999  0.00  0.00    +0.000 A 
ATOM      9  C   UNL     1       2.671   4.148  21.055  0.00  0.00    +0.000 A 
ATOM     10  C   UNL     1       1.494   3.311  20.764  0.00  0.00    +0.000 A 
ATOM     11  N   UNL     1       0.874   2.632  21.772  0.00  0.00    +0.000 N 
ATOM     12  N   UNL     1       1.006   3.170  19.573  0.00  0.00    +0.000 NA
ATOM     13  C   UNL     1       1.576   3.838  18.517  0.00  0.00    +0.000 A 
ATOM     14  O   UNL     1       1.033   3.825  17.416  0.00  0.00    +0.000 OA
ATOM     15  H   UNL     1       1.437   2.336  22.558  0.00  0.00    +0.000 HD
ATOM     16  H   UNL     1       0.248   1.911  21.426  0.00  0.00    +0.000 HD
ENDBRANCH   4   7
BRANCH   6  17
ATOM     17  C   UNL     1       5.535   5.715  15.282  0.00  0.00    +0.000 C 
ATOM     18 CL   UNL     1       5.912   4.501  14.032  0.00  0.00    +0.000 Cl
ENDBRANCH   6  17
BRANCH   6  19
ATOM     19  C   UNL     1       6.646   4.198  17.083  0.00  0.00    +0.000 C 
BRANCH  19  20
ATOM     20  O   UNL     1       6.896   4.090  18.474  0.00  0.00    +0.000 OA
ATOM     21  H   UNL     1       7.859   4.189  18.588  0.00  0.00    +0.000 HD
ENDBRANCH  19  20
ENDBRANCH   6  19
BRANCH   1  22
ATOM     22  O   UNL     1       6.375   7.370  17.231  0.00  0.00    +0.000 OA
BRANCH  22  23
ATOM     23  C   UNL     1       7.479   7.683  17.950  0.00  0.00    +0.000 C 
ATOM     24  O   UNL     1       8.091   6.887  18.639  0.00  0.00    +0.000 OA
BRANCH  23  25
ATOM     25  C   UNL     1       7.986   9.073  17.613  0.00  0.00    +0.000 C 
BRANCH  25  26
ATOM     26  C   UNL     1       9.131   9.611  18.471  0.00  0.00    +0.000 C 
BRANCH  26  27
ATOM     27  C   UNL     1       8.922  11.059  18.912  0.00  0.00    +0.000 C 
BRANCH  27  28
ATOM     28  C   UNL     1       9.792  12.001  18.080  0.00  0.00    +0.000 C 
BRANCH  28  29
ATOM     29  C   UNL     1      11.282  11.784  18.342  0.00  0.00    +0.000 C 
BRANCH  29  30
ATOM     30  C   UNL     1      11.673  12.387  19.689  0.00  0.00    +0.000 C 
BRANCH  30  31
ATOM     31  C   UNL     1      12.329  13.757  19.540  0.00  0.00    +0.000 C 
BRANCH  31  32
ATOM     32  C   UNL     1      11.321  14.859  19.861  0.00  0.00    +0.000 C 
BRANCH  32  33
ATOM     33  C   UNL     1      10.792  15.527  18.594  0.00  0.00    +0.000 C 
BRANCH  33  35
ATOM     34  C   UNL     1      11.590  17.598  17.408  0.00  0.00    +0.000 C 
ATOM     35  C   UNL     1      11.930  16.172  17.806  0.00  0.00    +0.000 C 
ENDBRANCH  33  35
ENDBRANCH  32  33
ENDBRANCH  31  32
ENDBRANCH  30  31
ENDBRANCH  29  30
ENDBRANCH  28  29
ENDBRANCH  27  28
ENDBRANCH  26  27
ENDBRANCH  25  26
ENDBRANCH  23  25
ENDBRANCH  22  23
ENDBRANCH   1  22
TORSDOF 16
ENDMDL
MODEL 7
REMARK VINA RESULT:      -6.9      1.207      1.475
REMARK  Name = 
REMARK  17 active torsions:
REMARK  status: ('A' for Active; 'I' for Inactive)
REMARK    1  A    between atoms: C_1  and  C_2
REMARK    2  A    between atoms: C_2  and  C_3
REMARK    3  A    between atoms: C_3  and  C_4
REMARK    4  A    between atoms: C_4  and  C_5
REMARK    5  A    between atoms: C_5  and  C_6
REMARK    6  A    between atoms: C_6  and  C_7
REMARK    7  A    between atoms: C_7  and  C_8
REMARK    8  A    between atoms: C_8  and  C_9
REMARK    9  A    between atoms: C_9  and  C_10
REMARK   10  A    between atoms: C_10  and  C_11
REMARK   11  A    between atoms: C_11  and  C_12
REMARK   12  A    between atoms: C_12  and  O_14
REMARK   13  A    between atoms: O_14  and  C_15
REMARK   14  A    between atoms: C_18  and  N_19
REMARK   15  A    between atoms: C_28  and  C_29
REMARK   16  A    between atoms: C_28  and  C_31
REMARK   17  A    between atoms: C_29  and  O_30
REMARK                            x       y       z     vdW  Elec       q    Type
REMARK                         _______ _______ _______ _____ _____    ______ ____
ROOT
ATOM      1  C   UNL     1       5.604   6.274  17.651  0.00  0.00    +0.000 C 
ATOM      2  C   UNL     1       4.139   6.616  17.840  0.00  0.00    +0.000 C 
ATOM      3  F   UNL     1       3.767   7.500  16.860  0.00  0.00    +0.000 F 
ATOM      4  C   UNL     1       3.412   5.281  17.568  0.00  0.00    +0.000 C 
ATOM      5  O   UNL     1       4.315   4.396  16.892  0.00  0.00    +0.000 OA
ATOM      6  C   UNL     1       5.565   5.080  16.673  0.00  0.00    +0.000 C 
ENDROOT
BRANCH   4   7
ATOM      7  N   UNL     1       2.832   4.513  18.667  0.00  0.00    +0.000 N 
ATOM      8  C   UNL     1       3.190   4.859  19.958  0.00  0.00    +0.000 A 
ATOM      9  C   UNL     1       2.563   4.345  21.015  0.00  0.00    +0.000 A 
ATOM     10  C   UNL     1       1.505   3.364  20.719  0.00  0.00    +0.000 A 
ATOM     11  N   UNL     1       0.871   2.716  21.739  0.00  0.00    +0.000 N 
ATOM     12  N   UNL     1       1.137   3.064  19.514  0.00  0.00    +0.000 NA
ATOM     13  C   UNL     1       1.728   3.690  18.444  0.00  0.00    +0.000 A 
ATOM     14  O   UNL     1       1.286   3.520  17.312  0.00  0.00    +0.000 OA
ATOM     15  H   UNL     1       1.390   2.555  22.592  0.00  0.00    +0.000 HD
ATOM     16  H   UNL     1       0.352   1.904  21.419  0.00  0.00    +0.000 HD
ENDBRANCH   4   7
BRANCH   6  17
ATOM     17  C   UNL     1       5.612   5.568  15.203  0.00  0.00    +0.000 C 
ATOM     18 CL   UNL     1       5.803   4.277  13.989  0.00  0.00    +0.000 Cl
ENDBRANCH   6  17
BRANCH   6  19
ATOM     19  C   UNL     1       6.712   4.125  17.071  0.00  0.00    +0.000 C 
BRANCH  19  20
ATOM     20  O   UNL     1       7.987   4.546  16.620  0.00  0.00    +0.000 OA
ATOM     21  H   UNL     1       8.636   4.170  17.244  0.00  0.00    +0.000 HD
ENDBRANCH  19  20
ENDBRANCH   6  19
BRANCH   1  22
ATOM     22  O   UNL     1       6.441   7.300  17.089  0.00  0.00    +0.000 OA
BRANCH  22  23
ATOM     23  C   UNL     1       7.474   7.726  17.855  0.00  0.00    +0.000 C 
ATOM     24  O   UNL     1       8.228   6.981  18.455  0.00  0.00    +0.000 OA
BRANCH  23  25
ATOM     25  C   UNL     1       7.713   9.214  17.688  0.00  0.00    +0.000 C 
BRANCH  25  26
ATOM     26  C   UNL     1       9.096   9.735  18.081  0.00  0.00    +0.000 C 
BRANCH  26  27
ATOM     27  C   UNL     1       9.139  10.324  19.490  0.00  0.00    +0.000 C 
BRANCH  27  28
ATOM     28  C   UNL     1      10.388  11.187  19.668  0.00  0.00    +0.000 C 
BRANCH  28  29
ATOM     29  C   UNL     1      11.057  11.509  18.332  0.00  0.00    +0.000 C 
BRANCH  29  30
ATOM     30  C   UNL     1      11.827  12.824  18.432  0.00  0.00    +0.000 C 
BRANCH  30  31
ATOM     31  C   UNL     1      10.941  13.978  18.893  0.00  0.00    +0.000 C 
BRANCH  31  32
ATOM     32  C   UNL     1       9.990  14.390  17.769  0.00  0.00    +0.000 C 
BRANCH  32  33
ATOM     33  C   UNL     1       9.300  15.717  18.070  0.00  0.00    +0.000 C 
BRANCH  33  35
ATOM     34  C   UNL     1       8.769  16.832  20.263  0.00  0.00    +0.000 C 
ATOM     35  C   UNL     1       8.504  15.632  19.371  0.00  0.00    +0.000 C 
ENDBRANCH  33  35
ENDBRANCH  32  33
ENDBRANCH  31  32
ENDBRANCH  30  31
ENDBRANCH  29  30
ENDBRANCH  28  29
ENDBRANCH  27  28
ENDBRANCH  26  27
ENDBRANCH  25  26
ENDBRANCH  23  25
ENDBRANCH  22  23
ENDBRANCH   1  22
TORSDOF 16
ENDMDL
MODEL 8
REMARK VINA RESULT:      -6.9      1.461      2.021
REMARK  Name = 
REMARK  17 active torsions:
REMARK  status: ('A' for Active; 'I' for Inactive)
REMARK    1  A    between atoms: C_1  and  C_2
REMARK    2  A    between atoms: C_2  and  C_3
REMARK    3  A    between atoms: C_3  and  C_4
REMARK    4  A    between atoms: C_4  and  C_5
REMARK    5  A    between atoms: C_5  and  C_6
REMARK    6  A    between atoms: C_6  and  C_7
REMARK    7  A    between atoms: C_7  and  C_8
REMARK    8  A    between atoms: C_8  and  C_9
REMARK    9  A    between atoms: C_9  and  C_10
REMARK   10  A    between atoms: C_10  and  C_11
REMARK   11  A    between atoms: C_11  and  C_12
REMARK   12  A    between atoms: C_12  and  O_14
REMARK   13  A    between atoms: O_14  and  C_15
REMARK   14  A    between atoms: C_18  and  N_19
REMARK   15  A    between atoms: C_28  and  C_29
REMARK   16  A    between atoms: C_28  and  C_31
REMARK   17  A    between atoms: C_29  and  O_30
REMARK                            x       y       z     vdW  Elec       q    Type
REMARK                         _______ _______ _______ _____ _____    ______ ____
ROOT
ATOM      1  C   UNL     1       5.687   6.256  17.701  0.00  0.00    +0.000 C 
ATOM      2  C   UNL     1       4.247   6.660  17.948  0.00  0.00    +0.000 C 
ATOM      3  F   UNL     1       3.880   7.572  16.992  0.00  0.00    +0.000 F 
ATOM      4  C   UNL     1       3.452   5.363  17.688  0.00  0.00    +0.000 C 
ATOM      5  O   UNL     1       4.289   4.447  16.969  0.00  0.00    +0.000 OA
ATOM      6  C   UNL     1       5.560   5.077  16.712  0.00  0.00    +0.000 C 
ENDROOT
BRANCH   4   7
ATOM      7  N   UNL     1       2.879   4.606  18.799  0.00  0.00    +0.000 N 
ATOM      8  C   UNL     1       3.237   3.276  18.928  0.00  0.00    +0.000 A 
ATOM      9  C   UNL     1       2.919   2.573  20.015  0.00  0.00    +0.000 A 
ATOM     10  C   UNL     1       2.135   3.288  21.035  0.00  0.00    +0.000 A 
ATOM     11  N   UNL     1       1.686   2.624  22.139  0.00  0.00    +0.000 N 
ATOM     12  N   UNL     1       1.830   4.543  20.940  0.00  0.00    +0.000 NA
ATOM     13  C   UNL     1       2.263   5.271  19.860  0.00  0.00    +0.000 A 
ATOM     14  O   UNL     1       2.104   6.488  19.835  0.00  0.00    +0.000 OA
ATOM     15  H   UNL     1       1.487   1.636  22.048  0.00  0.00    +0.000 HD
ATOM     16  H   UNL     1       0.965   3.139  22.635  0.00  0.00    +0.000 HD
ENDBRANCH   4   7
BRANCH   6  17
ATOM     17  C   UNL     1       5.575   5.581  15.247  0.00  0.00    +0.000 C 
ATOM     18 CL   UNL     1       5.561   4.296  14.011  0.00  0.00    +0.000 Cl
ENDBRANCH   6  17
BRANCH   6  19
ATOM     19  C   UNL     1       6.676   4.067  17.057  0.00  0.00    +0.000 C 
BRANCH  19  20
ATOM     20  O   UNL     1       7.975   4.511  16.706  0.00  0.00    +0.000 OA
ATOM     21  H   UNL     1       8.349   4.924  17.507  0.00  0.00    +0.000 HD
ENDBRANCH  19  20
ENDBRANCH   6  19
BRANCH   1  22
ATOM     22  O   UNL     1       6.549   7.251  17.120  0.00  0.00    +0.000 OA
BRANCH  22  23
ATOM     23  C   UNL     1       7.586   7.673  17.881  0.00  0.00    +0.000 C 
ATOM     24  O   UNL     1       8.256   6.940  18.586  0.00  0.00    +0.000 OA
BRANCH  23  25
ATOM     25  C   UNL     1       7.951   9.113  17.574  0.00  0.00    +0.000 C 
BRANCH  25  26
ATOM     26  C   UNL     1       8.814   9.837  18.608  0.00  0.00    +0.000 C 
BRANCH  26  27
ATOM     27  C   UNL     1       9.663  10.955  18.005  0.00  0.00    +0.000 C 
BRANCH  27  28
ATOM     28  C   UNL     1       9.035  12.318  18.297  0.00  0.00    +0.000 C 
BRANCH  28  29
ATOM     29  C   UNL     1       7.949  12.676  17.283  0.00  0.00    +0.000 C 
BRANCH  29  30
ATOM     30  C   UNL     1       7.289  13.999  17.663  0.00  0.00    +0.000 C 
BRANCH  30  31
ATOM     31  C   UNL     1       8.103  14.775  18.695  0.00  0.00    +0.000 C 
BRANCH  31  32
ATOM     32  C   UNL     1       7.167  15.489  19.671  0.00  0.00    +0.000 C 
BRANCH  32  33
ATOM     33  C   UNL     1       7.618  15.310  21.119  0.00  0.00    +0.000 C 
BRANCH  33  35
ATOM     34  C   UNL     1       9.444  13.811  21.985  0.00  0.00    +0.000 C 
ATOM     35  C   UNL     1       8.053  13.869  21.377  0.00  0.00    +0.000 C 
ENDBRANCH  33  35
ENDBRANCH  32  33
ENDBRANCH  31  32
ENDBRANCH  30  31
ENDBRANCH  29  30
ENDBRANCH  28  29
ENDBRANCH  27  28
ENDBRANCH  26  27
ENDBRANCH  25  26
ENDBRANCH  23  25
ENDBRANCH  22  23
ENDBRANCH   1  22
TORSDOF 16
ENDMDL
MODEL 9
REMARK VINA RESULT:      -6.8      5.553      8.295
REMARK  Name = 
REMARK  17 active torsions:
REMARK  status: ('A' for Active; 'I' for Inactive)
REMARK    1  A    between atoms: C_1  and  C_2
REMARK    2  A    between atoms: C_2  and  C_3
REMARK    3  A    between atoms: C_3  and  C_4
REMARK    4  A    between atoms: C_4  and  C_5
REMARK    5  A    between atoms: C_5  and  C_6
REMARK    6  A    between atoms: C_6  and  C_7
REMARK    7  A    between atoms: C_7  and  C_8
REMARK    8  A    between atoms: C_8  and  C_9
REMARK    9  A    between atoms: C_9  and  C_10
REMARK   10  A    between atoms: C_10  and  C_11
REMARK   11  A    between atoms: C_11  and  C_12
REMARK   12  A    between atoms: C_12  and  O_14
REMARK   13  A    between atoms: O_14  and  C_15
REMARK   14  A    between atoms: C_18  and  N_19
REMARK   15  A    between atoms: C_28  and  C_29
REMARK   16  A    between atoms: C_28  and  C_31
REMARK   17  A    between atoms: C_29  and  O_30
REMARK                            x       y       z     vdW  Elec       q    Type
REMARK                         _______ _______ _______ _____ _____    ______ ____
ROOT
ATOM      1  C   UNL     1       3.259   5.205  18.568  0.00  0.00    +0.000 C 
ATOM      2  C   UNL     1       4.751   5.454  18.679  0.00  0.00    +0.000 C 
ATOM      3  F   UNL     1       5.104   5.404  20.003  0.00  0.00    +0.000 F 
ATOM      4  C   UNL     1       5.380   4.230  17.980  0.00  0.00    +0.000 C 
ATOM      5  O   UNL     1       4.384   3.205  17.863  0.00  0.00    +0.000 OA
ATOM      6  C   UNL     1       3.163   3.667  18.474  0.00  0.00    +0.000 C 
ENDROOT
BRANCH   4   7
ATOM      7  N   UNL     1       5.989   4.360  16.658  0.00  0.00    +0.000 N 
ATOM      8  C   UNL     1       5.222   4.022  15.557  0.00  0.00    +0.000 A 
ATOM      9  C   UNL     1       5.628   4.295  14.317  0.00  0.00    +0.000 A 
ATOM     10  C   UNL     1       6.949   4.935  14.200  0.00  0.00    +0.000 A 
ATOM     11  N   UNL     1       7.487   5.169  12.968  0.00  0.00    +0.000 N 
ATOM     12  N   UNL     1       7.654   5.291  15.226  0.00  0.00    +0.000 NA
ATOM     13  C   UNL     1       7.164   5.095  16.494  0.00  0.00    +0.000 A 
ATOM     14  O   UNL     1       7.759   5.559  17.462  0.00  0.00    +0.000 OA
ATOM     15  H   UNL     1       7.238   4.539  12.217  0.00  0.00    +0.000 HD
ATOM     16  H   UNL     1       8.479   5.378  13.012  0.00  0.00    +0.000 HD
ENDBRANCH   4   7
BRANCH   6  17
ATOM     17  C   UNL     1       3.043   3.034  19.883  0.00  0.00    +0.000 C 
ATOM     18 CL   UNL     1       1.403   2.493  20.326  0.00  0.00    +0.000 Cl
ENDBRANCH   6  17
BRANCH   6  19
ATOM     19  C   UNL     1       1.994   3.339  17.520  0.00  0.00    +0.000 C 
BRANCH  19  20
ATOM     20  O   UNL     1       1.132   4.436  17.274  0.00  0.00    +0.000 OA
ATOM     21  H   UNL     1       0.224   4.081  17.291  0.00  0.00    +0.000 HD
ENDBRANCH  19  20
ENDBRANCH   6  19
BRANCH   1  22
ATOM     22  O   UNL     1       2.445   5.649  19.669  0.00  0.00    +0.000 OA
BRANCH  22  23
ATOM     23  C   UNL     1       2.140   6.968  19.702  0.00  0.00    +0.000 C 
ATOM     24  O   UNL     1       1.833   7.570  20.716  0.00  0.00    +0.000 OA
BRANCH  23  25
ATOM     25  C   UNL     1       2.451   7.645  18.381  0.00  0.00    +0.000 C 
BRANCH  25  26
ATOM     26  C   UNL     1       1.313   8.429  17.728  0.00  0.00    +0.000 C 
BRANCH  26  27
ATOM     27  C   UNL     1       1.274   9.897  18.152  0.00  0.00    +0.000 C 
BRANCH  27  28
ATOM     28  C   UNL     1       0.285  10.094  19.301  0.00  0.00    +0.000 C 
BRANCH  28  29
ATOM     29  C   UNL     1      -0.870  11.015  18.910  0.00  0.00    +0.000 C 
BRANCH  29  30
ATOM     30  C   UNL     1      -1.499  10.545  17.601  0.00  0.00    +0.000 C 
BRANCH  30  31
ATOM     31  C   UNL     1      -2.874   9.918  17.813  0.00  0.00    +0.000 C 
BRANCH  31  32
ATOM     32  C   UNL     1      -3.968  10.904  17.405  0.00  0.00    +0.000 C 
BRANCH  32  33
ATOM     33  C   UNL     1      -4.548  11.637  18.612  0.00  0.00    +0.000 C 
BRANCH  33  35
ATOM     34  C   UNL     1      -6.211  12.795  17.120  0.00  0.00    +0.000 C 
ATOM     35  C   UNL     1      -6.020  11.976  18.385  0.00  0.00    +0.000 C 
ENDBRANCH  33  35
ENDBRANCH  32  33
ENDBRANCH  31  32
ENDBRANCH  30  31
ENDBRANCH  29  30
ENDBRANCH  28  29
ENDBRANCH  27  28
ENDBRANCH  26  27
ENDBRANCH  25  26
ENDBRANCH  23  25
ENDBRANCH  22  23
ENDBRANCH   1  22
TORSDOF 16
ENDMDL
