MODEL 1
REMARK VINA RESULT:      -7.5      0.000      0.000
REMARK  Name = 
REMARK  1 active torsions:
REMARK  status: ('A' for Active; 'I' for Inactive)
REMARK    1  A    between atoms: C_5  and  C_6
REMARK                            x       y       z     vdW  Elec       q    Type
REMARK                         _______ _______ _______ _____ _____    ______ ____
ROOT
ATOM      1  C   UNL     1       1.126   4.859  20.726  0.00  0.00    +0.000 A 
ATOM      2  C   UNL     1       1.910   5.949  20.378  0.00  0.00    +0.000 A 
ATOM      3  C   UNL     1       2.889   5.824  19.386  0.00  0.00    +0.000 A 
ATOM      4  C   UNL     1       3.127   4.602  18.704  0.00  0.00    +0.000 A 
ATOM      5  C   UNL     1       4.120   4.397  17.676  0.00  0.00    +0.000 A 
ATOM      6  C   UNL     1       4.233   3.106  17.123  0.00  0.00    +0.000 A 
ATOM      7  C   UNL     1       3.415   2.052  17.510  0.00  0.00    +0.000 A 
ATOM      8  C   UNL     1       2.453   2.255  18.486  0.00  0.00    +0.000 A 
ATOM      9  C   UNL     1       2.308   3.500  19.088  0.00  0.00    +0.000 A 
ATOM     10  C   UNL     1       1.325   3.645  20.083  0.00  0.00    +0.000 A 
ENDROOT
BRANCH   5  11
ATOM     11  C   UNL     1       5.054   5.509  17.173  0.00  0.00    +0.000 C 
ATOM     12  C   UNL     1       5.448   5.416  15.686  0.00  0.00    +0.000 C 
ATOM     13  C   UNL     1       6.600   4.454  15.390  0.00  0.00    +0.000 C 
ATOM     14  N   UNL     1       7.762   4.619  16.263  0.00  0.00    +0.000 NA
ATOM     15  C   UNL     1       7.437   4.700  17.688  0.00  0.00    +0.000 C 
ATOM     16  C   UNL     1       6.326   5.697  18.015  0.00  0.00    +0.000 C 
ATOM     17  H   UNL     1       8.276   5.453  15.987  0.00  0.00    +0.000 HD
ENDBRANCH   5  11
TORSDOF 1
ENDMDL
MODEL 2
REMARK VINA RESULT:      -7.5      2.534      5.463
REMARK  Name = 
REMARK  1 active torsions:
REMARK  status: ('A' for Active; 'I' for Inactive)
REMARK    1  A    between atoms: C_5  and  C_6
REMARK                            x       y       z     vdW  Elec       q    Type
REMARK                         _______ _______ _______ _____ _____    ______ ____
ROOT
ATOM      1  C   UNL     1       5.931   5.378  15.149  0.00  0.00    +0.000 A 
ATOM      2  C   UNL     1       5.758   4.051  15.511  0.00  0.00    +0.000 A 
ATOM      3  C   UNL     1       4.903   3.716  16.568  0.00  0.00    +0.000 A 
ATOM      4  C   UNL     1       4.191   4.696  17.309  0.00  0.00    +0.000 A 
ATOM      5  C   UNL     1       3.300   4.427  18.412  0.00  0.00    +0.000 A 
ATOM      6  C   UNL     1       2.694   5.529  19.048  0.00  0.00    +0.000 A 
ATOM      7  C   UNL     1       2.905   6.838  18.636  0.00  0.00    +0.000 A 
ATOM      8  C   UNL     1       3.749   7.093  17.568  0.00  0.00    +0.000 A 
ATOM      9  C   UNL     1       4.396   6.050  16.914  0.00  0.00    +0.000 A 
ATOM     10  C   UNL     1       5.253   6.368  15.845  0.00  0.00    +0.000 A 
ENDROOT
BRANCH   5  11
ATOM     11  C   UNL     1       2.995   3.009  18.922  0.00  0.00    +0.000 C 
ATOM     12  C   UNL     1       1.553   2.520  18.683  0.00  0.00    +0.000 C 
ATOM     13  C   UNL     1       0.536   3.002  19.718  0.00  0.00    +0.000 C 
ATOM     14  N   UNL     1       0.960   2.825  21.107  0.00  0.00    +0.000 NA
ATOM     15  C   UNL     1       2.320   3.288  21.384  0.00  0.00    +0.000 C 
ATOM     16  C   UNL     1       3.364   2.773  20.395  0.00  0.00    +0.000 C 
ATOM     17  H   UNL     1       0.879   1.843  21.362  0.00  0.00    +0.000 HD
ENDBRANCH   5  11
TORSDOF 1
ENDMDL
MODEL 3
REMARK VINA RESULT:      -7.3      1.303      2.711
REMARK  Name = 
REMARK  1 active torsions:
REMARK  status: ('A' for Active; 'I' for Inactive)
REMARK    1  A    between atoms: C_5  and  C_6
REMARK                            x       y       z     vdW  Elec       q    Type
REMARK                         _______ _______ _______ _____ _____    ______ ____
ROOT
ATOM      1  C   UNL     1       1.714   3.543  21.282  0.00  0.00    +0.000 A 
ATOM      2  C   UNL     1       2.720   2.725  20.791  0.00  0.00    +0.000 A 
ATOM      3  C   UNL     1       3.570   3.186  19.778  0.00  0.00    +0.000 A 
ATOM      4  C   UNL     1       3.444   4.482  19.213  0.00  0.00    +0.000 A 
ATOM      5  C   UNL     1       4.278   5.022  18.165  0.00  0.00    +0.000 A 
ATOM      6  C   UNL     1       3.993   6.324  17.707  0.00  0.00    +0.000 A 
ATOM      7  C   UNL     1       2.971   7.097  18.242  0.00  0.00    +0.000 A 
ATOM      8  C   UNL     1       2.182   6.583  19.257  0.00  0.00    +0.000 A 
ATOM      9  C   UNL     1       2.397   5.295  19.736  0.00  0.00    +0.000 A 
ATOM     10  C   UNL     1       1.556   4.818  20.758  0.00  0.00    +0.000 A 
ENDROOT
BRANCH   5  11
ATOM     11  C   UNL     1       5.441   4.244  17.529  0.00  0.00    +0.000 C 
ATOM     12  C   UNL     1       6.850   4.746  17.900  0.00  0.00    +0.000 C 
ATOM     13  C   UNL     1       7.337   5.943  17.084  0.00  0.00    +0.000 C 
ATOM     14  N   UNL     1       7.162   5.797  15.638  0.00  0.00    +0.000 NA
ATOM     15  C   UNL     1       5.833   5.334  15.237  0.00  0.00    +0.000 C 
ATOM     16  C   UNL     1       5.348   4.103  16.001  0.00  0.00    +0.000 C 
ATOM     17  H   UNL     1       7.866   5.157  15.276  0.00  0.00    +0.000 HD
ENDBRANCH   5  11
TORSDOF 1
ENDMDL
MODEL 4
REMARK VINA RESULT:      -7.3      2.580      5.336
REMARK  Name = 
REMARK  1 active torsions:
REMARK  status: ('A' for Active; 'I' for Inactive)
REMARK    1  A    between atoms: C_5  and  C_6
REMARK                            x       y       z     vdW  Elec       q    Type
REMARK                         _______ _______ _______ _____ _____    ______ ____
ROOT
ATOM      1  C   UNL     1       7.242   6.217  17.350  0.00  0.00    +0.000 A 
ATOM      2  C   UNL     1       7.162   4.897  17.765  0.00  0.00    +0.000 A 
ATOM      3  C   UNL     1       5.927   4.346  18.126  0.00  0.00    +0.000 A 
ATOM      4  C   UNL     1       4.722   5.095  18.091  0.00  0.00    +0.000 A 
ATOM      5  C   UNL     1       3.416   4.598  18.454  0.00  0.00    +0.000 A 
ATOM      6  C   UNL     1       2.330   5.493  18.381  0.00  0.00    +0.000 A 
ATOM      7  C   UNL     1       2.473   6.807  17.953  0.00  0.00    +0.000 A 
ATOM      8  C   UNL     1       3.724   7.278  17.592  0.00  0.00    +0.000 A 
ATOM      9  C   UNL     1       4.840   6.450  17.665  0.00  0.00    +0.000 A 
ATOM     10  C   UNL     1       6.088   6.986  17.301  0.00  0.00    +0.000 A 
ENDROOT
BRANCH   5  11
ATOM     11  C   UNL     1       3.164   3.155  18.919  0.00  0.00    +0.000 C 
ATOM     12  C   UNL     1       1.783   2.577  18.554  0.00  0.00    +0.000 C 
ATOM     13  C   UNL     1       0.653   2.974  19.504  0.00  0.00    +0.000 C 
ATOM     14  N   UNL     1       0.970   2.801  20.922  0.00  0.00    +0.000 NA
ATOM     15  C   UNL     1       2.268   3.347  21.319  0.00  0.00    +0.000 C 
ATOM     16  C   UNL     1       3.423   2.918  20.416  0.00  0.00    +0.000 C 
ATOM     17  H   UNL     1       0.933   1.811  21.158  0.00  0.00    +0.000 HD
ENDBRANCH   5  11
TORSDOF 1
ENDMDL
MODEL 5
REMARK VINA RESULT:      -7.3      1.679      3.280
REMARK  Name = 
REMARK  1 active torsions:
REMARK  status: ('A' for Active; 'I' for Inactive)
REMARK    1  A    between atoms: C_5  and  C_6
REMARK                            x       y       z     vdW  Elec       q    Type
REMARK                         _______ _______ _______ _____ _____    ______ ____
ROOT
ATOM      1  C   UNL     1       1.818   2.680  18.092  0.00  0.00    +0.000 A 
ATOM      2  C   UNL     1       3.117   2.268  17.835  0.00  0.00    +0.000 A 
ATOM      3  C   UNL     1       4.131   3.215  17.647  0.00  0.00    +0.000 A 
ATOM      4  C   UNL     1       3.885   4.612  17.704  0.00  0.00    +0.000 A 
ATOM      5  C   UNL     1       4.877   5.645  17.515  0.00  0.00    +0.000 A 
ATOM      6  C   UNL     1       4.448   6.985  17.584  0.00  0.00    +0.000 A 
ATOM      7  C   UNL     1       3.130   7.336  17.849  0.00  0.00    +0.000 A 
ATOM      8  C   UNL     1       2.184   6.344  18.044  0.00  0.00    +0.000 A 
ATOM      9  C   UNL     1       2.539   5.001  17.965  0.00  0.00    +0.000 A 
ATOM     10  C   UNL     1       1.534   4.037  18.157  0.00  0.00    +0.000 A 
ENDROOT
BRANCH   5  11
ATOM     11  C   UNL     1       6.359   5.348  17.237  0.00  0.00    +0.000 C 
ATOM     12  C   UNL     1       7.152   4.778  18.430  0.00  0.00    +0.000 C 
ATOM     13  C   UNL     1       7.652   5.827  19.423  0.00  0.00    +0.000 C 
ATOM     14  N   UNL     1       8.324   6.970  18.804  0.00  0.00    +0.000 NA
ATOM     15  C   UNL     1       7.601   7.553  17.673  0.00  0.00    +0.000 C 
ATOM     16  C   UNL     1       7.139   6.529  16.638  0.00  0.00    +0.000 C 
ATOM     17  H   UNL     1       9.255   6.691  18.502  0.00  0.00    +0.000 HD
ENDBRANCH   5  11
TORSDOF 1
ENDMDL
MODEL 6
REMARK VINA RESULT:      -7.3      1.208      2.808
REMARK  Name = 
REMARK  1 active torsions:
REMARK  status: ('A' for Active; 'I' for Inactive)
REMARK    1  A    between atoms: C_5  and  C_6
REMARK                            x       y       z     vdW  Elec       q    Type
REMARK                         _______ _______ _______ _____ _____    ______ ____
ROOT
ATOM      1  C   UNL     1       1.099   2.515  19.122  0.00  0.00    +0.000 A 
ATOM      2  C   UNL     1       2.208   1.805  18.690  0.00  0.00    +0.000 A 
ATOM      3  C   UNL     1       3.327   2.484  18.191  0.00  0.00    +0.000 A 
ATOM      4  C   UNL     1       3.378   3.900  18.101  0.00  0.00    +0.000 A 
ATOM      5  C   UNL     1       4.491   4.666  17.594  0.00  0.00    +0.000 A 
ATOM      6  C   UNL     1       4.358   6.069  17.555  0.00  0.00    +0.000 A 
ATOM      7  C   UNL     1       3.220   6.723  18.007  0.00  0.00    +0.000 A 
ATOM      8  C   UNL     1       2.159   5.987  18.507  0.00  0.00    +0.000 A 
ATOM      9  C   UNL     1       2.219   4.598  18.548  0.00  0.00    +0.000 A 
ATOM     10  C   UNL     1       1.106   3.900  19.052  0.00  0.00    +0.000 A 
ENDROOT
BRANCH   5  11
ATOM     11  C   UNL     1       5.795   4.026  17.091  0.00  0.00    +0.000 C 
ATOM     12  C   UNL     1       7.089   4.754  17.506  0.00  0.00    +0.000 C 
ATOM     13  C   UNL     1       7.457   5.952  16.630  0.00  0.00    +0.000 C 
ATOM     14  N   UNL     1       7.408   5.683  15.192  0.00  0.00    +0.000 NA
ATOM     15  C   UNL     1       6.190   5.004  14.749  0.00  0.00    +0.000 C 
ATOM     16  C   UNL     1       5.832   3.770  15.576  0.00  0.00    +0.000 C 
ATOM     17  H   UNL     1       8.219   5.131  14.924  0.00  0.00    +0.000 HD
ENDBRANCH   5  11
TORSDOF 1
ENDMDL
MODEL 7
REMARK VINA RESULT:      -7.2      1.120      2.778
REMARK  Name = 
REMARK  1 active torsions:
REMARK  status: ('A' for Active; 'I' for Inactive)
REMARK    1  A    between atoms: C_5  and  C_6
REMARK                            x       y       z     vdW  Elec       q    Type
REMARK                         _______ _______ _______ _____ _____    ______ ____
ROOT
ATOM      1  C   UNL     1       1.209   2.140  19.243  0.00  0.00    +0.000 A 
ATOM      2  C   UNL     1       2.032   1.921  18.149  0.00  0.00    +0.000 A 
ATOM      3  C   UNL     1       2.829   2.958  17.650  0.00  0.00    +0.000 A 
ATOM      4  C   UNL     1       2.831   4.257  18.222  0.00  0.00    +0.000 A 
ATOM      5  C   UNL     1       3.620   5.374  17.758  0.00  0.00    +0.000 A 
ATOM      6  C   UNL     1       3.477   6.602  18.434  0.00  0.00    +0.000 A 
ATOM      7  C   UNL     1       2.637   6.759  19.528  0.00  0.00    +0.000 A 
ATOM      8  C   UNL     1       1.892   5.683  19.980  0.00  0.00    +0.000 A 
ATOM      9  C   UNL     1       1.970   4.450  19.340  0.00  0.00    +0.000 A 
ATOM     10  C   UNL     1       1.180   3.396  19.833  0.00  0.00    +0.000 A 
ENDROOT
BRANCH   5  11
ATOM     11  C   UNL     1       4.589   5.285  16.568  0.00  0.00    +0.000 C 
ATOM     12  C   UNL     1       5.696   4.221  16.699  0.00  0.00    +0.000 C 
ATOM     13  C   UNL     1       6.908   4.659  17.523  0.00  0.00    +0.000 C 
ATOM     14  N   UNL     1       7.440   5.973  17.160  0.00  0.00    +0.000 NA
ATOM     15  C   UNL     1       6.424   7.020  17.037  0.00  0.00    +0.000 C 
ATOM     16  C   UNL     1       5.229   6.625  16.171  0.00  0.00    +0.000 C 
ATOM     17  H   UNL     1       7.956   5.898  16.286  0.00  0.00    +0.000 HD
ENDBRANCH   5  11
TORSDOF 1
ENDMDL
MODEL 8
REMARK VINA RESULT:      -7.2      2.277      5.528
REMARK  Name = 
REMARK  1 active torsions:
REMARK  status: ('A' for Active; 'I' for Inactive)
REMARK    1  A    between atoms: C_5  and  C_6
REMARK                            x       y       z     vdW  Elec       q    Type
REMARK                         _______ _______ _______ _____ _____    ______ ____
ROOT
ATOM      1  C   UNL     1       7.144   4.808  14.629  0.00  0.00    +0.000 A 
ATOM      2  C   UNL     1       5.914   4.289  14.255  0.00  0.00    +0.000 A 
ATOM      3  C   UNL     1       4.915   4.087  15.214  0.00  0.00    +0.000 A 
ATOM      4  C   UNL     1       5.107   4.391  16.587  0.00  0.00    +0.000 A 
ATOM      5  C   UNL     1       4.127   4.205  17.631  0.00  0.00    +0.000 A 
ATOM      6  C   UNL     1       4.501   4.540  18.948  0.00  0.00    +0.000 A 
ATOM      7  C   UNL     1       5.750   5.060  19.260  0.00  0.00    +0.000 A 
ATOM      8  C   UNL     1       6.683   5.252  18.255  0.00  0.00    +0.000 A 
ATOM      9  C   UNL     1       6.384   4.917  16.939  0.00  0.00    +0.000 A 
ATOM     10  C   UNL     1       7.375   5.120  15.962  0.00  0.00    +0.000 A 
ENDROOT
BRANCH   5  11
ATOM     11  C   UNL     1       2.716   3.653  17.373  0.00  0.00    +0.000 C 
ATOM     12  C   UNL     1       1.568   4.457  18.014  0.00  0.00    +0.000 C 
ATOM     13  C   UNL     1       1.312   4.140  19.488  0.00  0.00    +0.000 C 
ATOM     14  N   UNL     1       1.227   2.711  19.790  0.00  0.00    +0.000 NA
ATOM     15  C   UNL     1       2.306   1.908  19.212  0.00  0.00    +0.000 C 
ATOM     16  C   UNL     1       2.542   2.167  17.725  0.00  0.00    +0.000 C 
ATOM     17  H   UNL     1       0.330   2.351  19.471  0.00  0.00    +0.000 HD
ENDBRANCH   5  11
TORSDOF 1
ENDMDL
MODEL 9
REMARK VINA RESULT:      -7.1      2.228      5.163
REMARK  Name = 
REMARK  1 active torsions:
REMARK  status: ('A' for Active; 'I' for Inactive)
REMARK    1  A    between atoms: C_5  and  C_6
REMARK                            x       y       z     vdW  Elec       q    Type
REMARK                         _______ _______ _______ _____ _____    ______ ____
ROOT
ATOM      1  C   UNL     1       7.110   6.090  17.082  0.00  0.00    +0.000 A 
ATOM      2  C   UNL     1       7.059   4.925  17.832  0.00  0.00    +0.000 A 
ATOM      3  C   UNL     1       5.876   4.559  18.485  0.00  0.00    +0.000 A 
ATOM      4  C   UNL     1       4.698   5.348  18.418  0.00  0.00    +0.000 A 
ATOM      5  C   UNL     1       3.446   5.038  19.068  0.00  0.00    +0.000 A 
ATOM      6  C   UNL     1       2.383   5.951  18.911  0.00  0.00    +0.000 A 
ATOM      7  C   UNL     1       2.495   7.102  18.143  0.00  0.00    +0.000 A 
ATOM      8  C   UNL     1       3.692   7.390  17.509  0.00  0.00    +0.000 A 
ATOM      9  C   UNL     1       4.786   6.541  17.644  0.00  0.00    +0.000 A 
ATOM     10  C   UNL     1       5.981   6.890  16.990  0.00  0.00    +0.000 A 
ENDROOT
BRANCH   5  11
ATOM     11  C   UNL     1       3.229   3.778  19.920  0.00  0.00    +0.000 C 
ATOM     12  C   UNL     1       3.910   2.500  19.392  0.00  0.00    +0.000 C 
ATOM     13  C   UNL     1       3.134   1.770  18.295  0.00  0.00    +0.000 C 
ATOM     14  N   UNL     1       1.718   1.560  18.597  0.00  0.00    +0.000 NA
ATOM     15  C   UNL     1       1.025   2.751  19.091  0.00  0.00    +0.000 C 
ATOM     16  C   UNL     1       1.755   3.467  20.226  0.00  0.00    +0.000 C 
ATOM     17  H   UNL     1       1.626   0.810  19.279  0.00  0.00    +0.000 HD
ENDBRANCH   5  11
TORSDOF 1
ENDMDL
