MODEL 1
REMARK VINA RESULT:      -6.4      0.000      0.000
REMARK  Name = 
REMARK  4 active torsions:
REMARK  status: ('A' for Active; 'I' for Inactive)
REMARK    1  A    between atoms: C_1  and  O_2
REMARK    2  A    between atoms: O_2  and  C_3
REMARK    3  A    between atoms: C_8  and  O_9
REMARK    4  A    between atoms: N_17  and  C_18
REMARK                            x       y       z     vdW  Elec       q    Type
REMARK                         _______ _______ _______ _____ _____    ______ ____
ROOT
ATOM      1  C   UNL     1       3.224   2.724  21.063  0.00  0.00    +0.000 A 
ATOM      2  C   UNL     1       3.788   3.346  19.958  0.00  0.00    +0.000 A 
ATOM      3  C   UNL     1       3.198   4.489  19.455  0.00  0.00    +0.000 A 
ATOM      4  C   UNL     1       1.985   4.960  19.958  0.00  0.00    +0.000 A 
ATOM      5  C   UNL     1       1.337   4.283  20.977  0.00  0.00    +0.000 A 
ATOM      6  C   UNL     1       1.959   3.143  21.506  0.00  0.00    +0.000 A 
ATOM      7  C   UNL     1       1.562   6.180  19.195  0.00  0.00    +0.000 C 
ATOM      8  C   UNL     1       2.251   5.890  17.848  0.00  0.00    +0.000 C 
ATOM      9  C   UNL     1       3.573   5.293  18.294  0.00  0.00    +0.000 C 
ATOM     10  C   UNL     1       4.818   5.505  17.843  0.00  0.00    +0.000 C 
ATOM     11  S   UNL     1       5.229   6.345  16.394  0.00  0.00    +0.000 S 
ATOM     12  C   UNL     1       6.893   5.774  16.457  0.00  0.00    +0.000 C 
ATOM     13  O   UNL     1       7.723   6.083  15.611  0.00  0.00    +0.000 OA
ATOM     14  N   UNL     1       7.080   4.991  17.552  0.00  0.00    +0.000 N 
ATOM     15  C   UNL     1       8.337   4.360  17.870  0.00  0.00    +0.000 C 
ATOM     16  C   UNL     1       6.067   5.011  18.479  0.00  0.00    +0.000 C 
ATOM     17  O   UNL     1       6.223   4.724  19.661  0.00  0.00    +0.000 OA
ENDROOT
BRANCH   1  19
ATOM     18  C   UNL     1       5.062   1.280  21.023  0.00  0.00    +0.000 C 
ATOM     19  O   UNL     1       3.860   1.683  21.695  0.00  0.00    +0.000 OA
ENDBRANCH   1  19
BRANCH   6  20
ATOM     20  O   UNL     1       1.300   2.402  22.449  0.00  0.00    +0.000 OA
ATOM     21  H   UNL     1       1.446   1.466  22.233  0.00  0.00    +0.000 HD
ENDBRANCH   6  20
TORSDOF 2
ENDMDL
MODEL 2
REMARK VINA RESULT:      -6.1      9.518     12.104
REMARK  Name = 
REMARK  4 active torsions:
REMARK  status: ('A' for Active; 'I' for Inactive)
REMARK    1  A    between atoms: C_1  and  O_2
REMARK    2  A    between atoms: O_2  and  C_3
REMARK    3  A    between atoms: C_8  and  O_9
REMARK    4  A    between atoms: N_17  and  C_18
REMARK                            x       y       z     vdW  Elec       q    Type
REMARK                         _______ _______ _______ _____ _____    ______ ____
ROOT
ATOM      1  C   UNL     1      10.004  12.137  18.018  0.00  0.00    +0.000 A 
ATOM      2  C   UNL     1       9.200  13.214  18.364  0.00  0.00    +0.000 A 
ATOM      3  C   UNL     1       9.626  14.494  18.069  0.00  0.00    +0.000 A 
ATOM      4  C   UNL     1      10.895  14.733  17.541  0.00  0.00    +0.000 A 
ATOM      5  C   UNL     1      11.766  13.682  17.305  0.00  0.00    +0.000 A 
ATOM      6  C   UNL     1      11.314  12.383  17.575  0.00  0.00    +0.000 A 
ATOM      7  C   UNL     1      11.102  16.208  17.367  0.00  0.00    +0.000 C 
ATOM      8  C   UNL     1      10.164  16.728  18.475  0.00  0.00    +0.000 C 
ATOM      9  C   UNL     1       8.988  15.775  18.362  0.00  0.00    +0.000 C 
ATOM     10  C   UNL     1       7.669  16.016  18.401  0.00  0.00    +0.000 C 
ATOM     11  S   UNL     1       6.936  17.501  18.881  0.00  0.00    +0.000 S 
ATOM     12  C   UNL     1       5.345  16.754  18.995  0.00  0.00    +0.000 C 
ATOM     13  O   UNL     1       4.347  17.387  19.319  0.00  0.00    +0.000 OA
ATOM     14  N   UNL     1       5.419  15.438  18.666  0.00  0.00    +0.000 N 
ATOM     15  C   UNL     1       4.282  14.553  18.679  0.00  0.00    +0.000 C 
ATOM     16  C   UNL     1       6.599  15.034  18.089  0.00  0.00    +0.000 C 
ATOM     17  O   UNL     1       6.700  14.042  17.374  0.00  0.00    +0.000 OA
ENDROOT
BRANCH   1  19
ATOM     18  C   UNL     1       9.384  10.451  19.513  0.00  0.00    +0.000 C 
ATOM     19  O   UNL     1       9.555  10.845  18.144  0.00  0.00    +0.000 OA
ENDBRANCH   1  19
BRANCH   6  20
ATOM     20  O   UNL     1      12.182  11.334  17.439  0.00  0.00    +0.000 OA
ATOM     21  H   UNL     1      12.102  10.789  18.239  0.00  0.00    +0.000 HD
ENDBRANCH   6  20
TORSDOF 2
ENDMDL
MODEL 3
REMARK VINA RESULT:      -6.0      2.332      5.655
REMARK  Name = 
REMARK  4 active torsions:
REMARK  status: ('A' for Active; 'I' for Inactive)
REMARK    1  A    between atoms: C_1  and  O_2
REMARK    2  A    between atoms: O_2  and  C_3
REMARK    3  A    between atoms: C_8  and  O_9
REMARK    4  A    between atoms: N_17  and  C_18
REMARK                            x       y       z     vdW  Elec       q    Type
REMARK                         _______ _______ _______ _____ _____    ______ ____
ROOT
ATOM      1  C   UNL     1       6.845   5.709  18.224  0.00  0.00    +0.000 A 
ATOM      2  C   UNL     1       5.713   5.377  18.956  0.00  0.00    +0.000 A 
ATOM      3  C   UNL     1       4.485   5.866  18.556  0.00  0.00    +0.000 A 
ATOM      4  C   UNL     1       4.375   6.778  17.506  0.00  0.00    +0.000 A 
ATOM      5  C   UNL     1       5.505   7.222  16.841  0.00  0.00    +0.000 A 
ATOM      6  C   UNL     1       6.745   6.696  17.230  0.00  0.00    +0.000 A 
ATOM      7  C   UNL     1       2.939   7.169  17.325  0.00  0.00    +0.000 C 
ATOM      8  C   UNL     1       2.434   6.957  18.766  0.00  0.00    +0.000 C 
ATOM      9  C   UNL     1       3.172   5.695  19.173  0.00  0.00    +0.000 C 
ATOM     10  C   UNL     1       2.741   4.613  19.838  0.00  0.00    +0.000 C 
ATOM     11  S   UNL     1       1.239   4.484  20.674  0.00  0.00    +0.000 S 
ATOM     12  C   UNL     1       1.743   3.005  21.486  0.00  0.00    +0.000 C 
ATOM     13  O   UNL     1       1.015   2.408  22.269  0.00  0.00    +0.000 OA
ATOM     14  N   UNL     1       2.999   2.661  21.099  0.00  0.00    +0.000 N 
ATOM     15  C   UNL     1       3.695   1.504  21.603  0.00  0.00    +0.000 C 
ATOM     16  C   UNL     1       3.499   3.347  20.019  0.00  0.00    +0.000 C 
ATOM     17  O   UNL     1       4.390   2.918  19.295  0.00  0.00    +0.000 OA
ENDROOT
BRANCH   1  19
ATOM     18  C   UNL     1       8.480   5.305  19.845  0.00  0.00    +0.000 C 
ATOM     19  O   UNL     1       8.059   5.121  18.486  0.00  0.00    +0.000 OA
ENDBRANCH   1  19
BRANCH   6  20
ATOM     20  O   UNL     1       7.887   7.184  16.655  0.00  0.00    +0.000 OA
ATOM     21  H   UNL     1       8.248   7.855  17.257  0.00  0.00    +0.000 HD
ENDBRANCH   6  20
TORSDOF 2
ENDMDL
MODEL 4
REMARK VINA RESULT:      -5.9      1.513      1.540
REMARK  Name = 
REMARK  4 active torsions:
REMARK  status: ('A' for Active; 'I' for Inactive)
REMARK    1  A    between atoms: C_1  and  O_2
REMARK    2  A    between atoms: O_2  and  C_3
REMARK    3  A    between atoms: C_8  and  O_9
REMARK    4  A    between atoms: N_17  and  C_18
REMARK                            x       y       z     vdW  Elec       q    Type
REMARK                         _______ _______ _______ _____ _____    ______ ____
ROOT
ATOM      1  C   UNL     1       2.228   2.895  19.360  0.00  0.00    +0.000 A 
ATOM      2  C   UNL     1       3.073   3.827  18.775  0.00  0.00    +0.000 A 
ATOM      3  C   UNL     1       2.929   5.162  19.097  0.00  0.00    +0.000 A 
ATOM      4  C   UNL     1       1.880   5.604  19.904  0.00  0.00    +0.000 A 
ATOM      5  C   UNL     1       0.949   4.707  20.397  0.00  0.00    +0.000 A 
ATOM      6  C   UNL     1       1.120   3.349  20.094  0.00  0.00    +0.000 A 
ATOM      7  C   UNL     1       1.946   7.096  20.045  0.00  0.00    +0.000 C 
ATOM      8  C   UNL     1       2.647   7.447  18.718  0.00  0.00    +0.000 C 
ATOM      9  C   UNL     1       3.660   6.322  18.592  0.00  0.00    +0.000 C 
ATOM     10  C   UNL     1       4.948   6.352  18.223  0.00  0.00    +0.000 C 
ATOM     11  S   UNL     1       5.754   7.696  17.503  0.00  0.00    +0.000 S 
ATOM     12  C   UNL     1       7.136   6.707  17.047  0.00  0.00    +0.000 C 
ATOM     13  O   UNL     1       8.106   7.170  16.458  0.00  0.00    +0.000 OA
ATOM     14  N   UNL     1       6.951   5.423  17.452  0.00  0.00    +0.000 N 
ATOM     15  C   UNL     1       7.904   4.370  17.209  0.00  0.00    +0.000 C 
ATOM     16  C   UNL     1       5.903   5.217  18.317  0.00  0.00    +0.000 C 
ATOM     17  O   UNL     1       5.835   4.264  19.085  0.00  0.00    +0.000 OA
ENDROOT
BRANCH   1  19
ATOM     18  C   UNL     1       3.675   1.252  18.540  0.00  0.00    +0.000 C 
ATOM     19  O   UNL     1       2.433   1.546  19.195  0.00  0.00    +0.000 OA
ENDBRANCH   1  19
BRANCH   6  20
ATOM     20  O   UNL     1       0.166   2.452  20.490  0.00  0.00    +0.000 OA
ATOM     21  H   UNL     1      -0.467   2.933  21.047  0.00  0.00    +0.000 HD
ENDBRANCH   6  20
TORSDOF 2
ENDMDL
MODEL 5
REMARK VINA RESULT:      -5.9      8.829     11.068
REMARK  Name = 
REMARK  4 active torsions:
REMARK  status: ('A' for Active; 'I' for Inactive)
REMARK    1  A    between atoms: C_1  and  O_2
REMARK    2  A    between atoms: O_2  and  C_3
REMARK    3  A    between atoms: C_8  and  O_9
REMARK    4  A    between atoms: N_17  and  C_18
REMARK                            x       y       z     vdW  Elec       q    Type
REMARK                         _______ _______ _______ _____ _____    ______ ____
ROOT
ATOM      1  C   UNL     1      -5.502  12.345  18.642  0.00  0.00    +0.000 A 
ATOM      2  C   UNL     1      -4.307  11.794  19.083  0.00  0.00    +0.000 A 
ATOM      3  C   UNL     1      -3.389  11.345  18.155  0.00  0.00    +0.000 A 
ATOM      4  C   UNL     1      -3.687  11.324  16.792  0.00  0.00    +0.000 A 
ATOM      5  C   UNL     1      -4.923  11.750  16.338  0.00  0.00    +0.000 A 
ATOM      6  C   UNL     1      -5.838  12.236  17.283  0.00  0.00    +0.000 A 
ATOM      7  C   UNL     1      -2.531  10.746  16.031  0.00  0.00    +0.000 C 
ATOM      8  C   UNL     1      -1.933   9.841  17.125  0.00  0.00    +0.000 C 
ATOM      9  C   UNL     1      -2.095  10.700  18.366  0.00  0.00    +0.000 C 
ATOM     10  C   UNL     1      -1.246  10.933  19.378  0.00  0.00    +0.000 C 
ATOM     11  S   UNL     1       0.213  10.065  19.682  0.00  0.00    +0.000 S 
ATOM     12  C   UNL     1       0.366  10.757  21.293  0.00  0.00    +0.000 C 
ATOM     13  O   UNL     1       1.299  10.481  22.038  0.00  0.00    +0.000 OA
ATOM     14  N   UNL     1      -0.664  11.609  21.539  0.00  0.00    +0.000 N 
ATOM     15  C   UNL     1      -0.825  12.320  22.782  0.00  0.00    +0.000 C 
ATOM     16  C   UNL     1      -1.432  11.944  20.450  0.00  0.00    +0.000 C 
ATOM     17  O   UNL     1      -2.105  12.968  20.384  0.00  0.00    +0.000 OA
ENDROOT
BRANCH   1  19
ATOM     18  C   UNL     1      -6.333  12.366  20.827  0.00  0.00    +0.000 C 
ATOM     19  O   UNL     1      -6.373  12.948  19.516  0.00  0.00    +0.000 OA
ENDBRANCH   1  19
BRANCH   6  20
ATOM     20  O   UNL     1      -7.099  12.578  16.876  0.00  0.00    +0.000 OA
ATOM     21  H   UNL     1      -7.606  12.808  17.672  0.00  0.00    +0.000 HD
ENDBRANCH   6  20
TORSDOF 2
ENDMDL
MODEL 6
REMARK VINA RESULT:      -5.7      9.802     12.332
REMARK  Name = 
REMARK  4 active torsions:
REMARK  status: ('A' for Active; 'I' for Inactive)
REMARK    1  A    between atoms: C_1  and  O_2
REMARK    2  A    between atoms: O_2  and  C_3
REMARK    3  A    between atoms: C_8  and  O_9
REMARK    4  A    between atoms: N_17  and  C_18
REMARK                            x       y       z     vdW  Elec       q    Type
REMARK                         _______ _______ _______ _____ _____    ______ ____
ROOT
ATOM      1  C   UNL     1       9.337  15.094  18.048  0.00  0.00    +0.000 A 
ATOM      2  C   UNL     1       8.737  14.433  19.111  0.00  0.00    +0.000 A 
ATOM      3  C   UNL     1       9.450  13.467  19.793  0.00  0.00    +0.000 A 
ATOM      4  C   UNL     1      10.713  13.060  19.363  0.00  0.00    +0.000 A 
ATOM      5  C   UNL     1      11.281  13.615  18.229  0.00  0.00    +0.000 A 
ATOM      6  C   UNL     1      10.566  14.619  17.561  0.00  0.00    +0.000 A 
ATOM      7  C   UNL     1      11.226  11.973  20.260  0.00  0.00    +0.000 C 
ATOM      8  C   UNL     1       9.885  11.374  20.726  0.00  0.00    +0.000 C 
ATOM      9  C   UNL     1       9.032  12.617  20.905  0.00  0.00    +0.000 C 
ATOM     10  C   UNL     1       8.177  12.949  21.883  0.00  0.00    +0.000 C 
ATOM     11  S   UNL     1       7.593  11.885  23.108  0.00  0.00    +0.000 S 
ATOM     12  C   UNL     1       6.337  13.021  23.588  0.00  0.00    +0.000 C 
ATOM     13  O   UNL     1       5.550  12.781  24.495  0.00  0.00    +0.000 OA
ATOM     14  N   UNL     1       6.404  14.145  22.828  0.00  0.00    +0.000 N 
ATOM     15  C   UNL     1       5.496  15.255  22.972  0.00  0.00    +0.000 C 
ATOM     16  C   UNL     1       7.535  14.278  22.058  0.00  0.00    +0.000 C 
ATOM     17  O   UNL     1       7.958  15.355  21.653  0.00  0.00    +0.000 OA
ENDROOT
BRANCH   1  19
ATOM     18  C   UNL     1       8.525  17.266  18.344  0.00  0.00    +0.000 C 
ATOM     19  O   UNL     1       8.730  16.168  17.444  0.00  0.00    +0.000 OA
ENDBRANCH   1  19
BRANCH   6  20
ATOM     20  O   UNL     1      11.058  15.121  16.387  0.00  0.00    +0.000 OA
ATOM     21  H   UNL     1      11.946  14.747  16.265  0.00  0.00    +0.000 HD
ENDBRANCH   6  20
TORSDOF 2
ENDMDL
MODEL 7
REMARK VINA RESULT:      -5.6      9.767     12.530
REMARK  Name = 
REMARK  4 active torsions:
REMARK  status: ('A' for Active; 'I' for Inactive)
REMARK    1  A    between atoms: C_1  and  O_2
REMARK    2  A    between atoms: O_2  and  C_3
REMARK    3  A    between atoms: C_8  and  O_9
REMARK    4  A    between atoms: N_17  and  C_18
REMARK                            x       y       z     vdW  Elec       q    Type
REMARK                         _______ _______ _______ _____ _____    ______ ____
ROOT
ATOM      1  C   UNL     1      10.190  15.304  18.193  0.00  0.00    +0.000 A 
ATOM      2  C   UNL     1       9.612  14.674  19.286  0.00  0.00    +0.000 A 
ATOM      3  C   UNL     1       9.850  13.330  19.492  0.00  0.00    +0.000 A 
ATOM      4  C   UNL     1      10.559  12.568  18.562  0.00  0.00    +0.000 A 
ATOM      5  C   UNL     1      11.038  13.148  17.400  0.00  0.00    +0.000 A 
ATOM      6  C   UNL     1      10.822  14.521  17.214  0.00  0.00    +0.000 A 
ATOM      7  C   UNL     1      10.622  11.141  19.020  0.00  0.00    +0.000 C 
ATOM      8  C   UNL     1       9.328  11.085  19.854  0.00  0.00    +0.000 C 
ATOM      9  C   UNL     1       9.332  12.444  20.532  0.00  0.00    +0.000 C 
ATOM     10  C   UNL     1       9.048  12.784  21.797  0.00  0.00    +0.000 C 
ATOM     11  S   UNL     1       8.310  11.756  22.969  0.00  0.00    +0.000 S 
ATOM     12  C   UNL     1       8.003  13.107  24.055  0.00  0.00    +0.000 C 
ATOM     13  O   UNL     1       7.455  12.962  25.142  0.00  0.00    +0.000 OA
ATOM     14  N   UNL     1       8.465  14.263  23.511  0.00  0.00    +0.000 N 
ATOM     15  C   UNL     1       8.345  15.547  24.156  0.00  0.00    +0.000 C 
ATOM     16  C   UNL     1       9.268  14.122  22.405  0.00  0.00    +0.000 C 
ATOM     17  O   UNL     1      10.081  14.965  22.045  0.00  0.00    +0.000 OA
ENDROOT
BRANCH   1  19
ATOM     18  C   UNL     1      10.952  17.378  18.959  0.00  0.00    +0.000 C 
ATOM     19  O   UNL     1      10.115  16.667  18.036  0.00  0.00    +0.000 OA
ENDBRANCH   1  19
BRANCH   6  20
ATOM     20  O   UNL     1      11.202  15.102  16.035  0.00  0.00    +0.000 OA
ATOM     21  H   UNL     1      12.173  15.092  16.009  0.00  0.00    +0.000 HD
ENDBRANCH   6  20
TORSDOF 2
ENDMDL
MODEL 8
REMARK VINA RESULT:      -5.6      2.975      4.343
REMARK  Name = 
REMARK  4 active torsions:
REMARK  status: ('A' for Active; 'I' for Inactive)
REMARK    1  A    between atoms: C_1  and  O_2
REMARK    2  A    between atoms: O_2  and  C_3
REMARK    3  A    between atoms: C_8  and  O_9
REMARK    4  A    between atoms: N_17  and  C_18
REMARK                            x       y       z     vdW  Elec       q    Type
REMARK                         _______ _______ _______ _____ _____    ______ ____
ROOT
ATOM      1  C   UNL     1       3.447   4.337  18.022  0.00  0.00    +0.000 A 
ATOM      2  C   UNL     1       4.268   4.628  16.942  0.00  0.00    +0.000 A 
ATOM      3  C   UNL     1       5.537   5.121  17.174  0.00  0.00    +0.000 A 
ATOM      4  C   UNL     1       5.965   5.442  18.463  0.00  0.00    +0.000 A 
ATOM      5  C   UNL     1       5.117   5.279  19.545  0.00  0.00    +0.000 A 
ATOM      6  C   UNL     1       3.842   4.747  19.306  0.00  0.00    +0.000 A 
ATOM      7  C   UNL     1       7.357   5.996  18.410  0.00  0.00    +0.000 C 
ATOM      8  C   UNL     1       7.341   6.588  16.987  0.00  0.00    +0.000 C 
ATOM      9  C   UNL     1       6.561   5.536  16.219  0.00  0.00    +0.000 C 
ATOM     10  C   UNL     1       6.781   5.003  15.009  0.00  0.00    +0.000 C 
ATOM     11  S   UNL     1       7.906   5.595  13.843  0.00  0.00    +0.000 S 
ATOM     12  C   UNL     1       7.215   4.592  12.571  0.00  0.00    +0.000 C 
ATOM     13  O   UNL     1       7.652   4.594  11.427  0.00  0.00    +0.000 OA
ATOM     14  N   UNL     1       6.185   3.854  13.061  0.00  0.00    +0.000 N 
ATOM     15  C   UNL     1       5.408   2.945  12.257  0.00  0.00    +0.000 C 
ATOM     16  C   UNL     1       6.062   3.838  14.430  0.00  0.00    +0.000 C 
ATOM     17  O   UNL     1       5.495   2.946  15.050  0.00  0.00    +0.000 OA
ENDROOT
BRANCH   1  19
ATOM     18  C   UNL     1       2.375   2.270  17.806  0.00  0.00    +0.000 C 
ATOM     19  O   UNL     1       2.243   3.698  17.848  0.00  0.00    +0.000 OA
ENDBRANCH   1  19
BRANCH   6  20
ATOM     20  O   UNL     1       2.950   4.660  20.340  0.00  0.00    +0.000 OA
ATOM     21  H   UNL     1       2.130   5.092  20.050  0.00  0.00    +0.000 HD
ENDBRANCH   6  20
TORSDOF 2
ENDMDL
MODEL 9
REMARK VINA RESULT:      -5.6      8.952     10.995
REMARK  Name = 
REMARK  4 active torsions:
REMARK  status: ('A' for Active; 'I' for Inactive)
REMARK    1  A    between atoms: C_1  and  O_2
REMARK    2  A    between atoms: O_2  and  C_3
REMARK    3  A    between atoms: C_8  and  O_9
REMARK    4  A    between atoms: N_17  and  C_18
REMARK                            x       y       z     vdW  Elec       q    Type
REMARK                         _______ _______ _______ _____ _____    ______ ____
ROOT
ATOM      1  C   UNL     1      -5.185  12.296  19.058  0.00  0.00    +0.000 A 
ATOM      2  C   UNL     1      -3.844  12.113  19.363  0.00  0.00    +0.000 A 
ATOM      3  C   UNL     1      -3.000  11.588  18.405  0.00  0.00    +0.000 A 
ATOM      4  C   UNL     1      -3.490  11.128  17.182  0.00  0.00    +0.000 A 
ATOM      5  C   UNL     1      -4.845  11.183  16.903  0.00  0.00    +0.000 A 
ATOM      6  C   UNL     1      -5.691  11.748  17.867  0.00  0.00    +0.000 A 
ATOM      7  C   UNL     1      -2.363  10.571  16.364  0.00  0.00    +0.000 C 
ATOM      8  C   UNL     1      -1.417  10.134  17.499  0.00  0.00    +0.000 C 
ATOM      9  C   UNL     1      -1.578  11.268  18.495  0.00  0.00    +0.000 C 
ATOM     10  C   UNL     1      -0.660  11.925  19.219  0.00  0.00    +0.000 C 
ATOM     11  S   UNL     1       0.986  11.450  19.418  0.00  0.00    +0.000 S 
ATOM     12  C   UNL     1       1.223  12.587  20.741  0.00  0.00    +0.000 C 
ATOM     13  O   UNL     1       2.296  12.703  21.320  0.00  0.00    +0.000 OA
ATOM     14  N   UNL     1       0.077  13.278  20.977  0.00  0.00    +0.000 N 
ATOM     15  C   UNL     1      -0.049  14.273  22.012  0.00  0.00    +0.000 C 
ATOM     16  C   UNL     1      -0.904  13.150  20.024  0.00  0.00    +0.000 C 
ATOM     17  O   UNL     1      -1.792  13.976  19.848  0.00  0.00    +0.000 OA
ENDROOT
BRANCH   1  19
ATOM     18  C   UNL     1      -5.761  12.657  21.295  0.00  0.00    +0.000 C 
ATOM     19  O   UNL     1      -6.027  12.959  19.918  0.00  0.00    +0.000 OA
ENDBRANCH   1  19
BRANCH   6  20
ATOM     20  O   UNL     1      -7.043  11.732  17.660  0.00  0.00    +0.000 OA
ATOM     21  H   UNL     1      -7.380  12.614  17.889  0.00  0.00    +0.000 HD
ENDBRANCH   6  20
TORSDOF 2
ENDMDL
