MODEL 1
REMARK VINA RESULT:      -7.4      0.000      0.000
REMARK  Name = 
REMARK  8 active torsions:
REMARK  status: ('A' for Active; 'I' for Inactive)
REMARK    1  A    between atoms: C_1  and  O_2
REMARK    2  A    between atoms: O_2  and  C_3
REMARK    3  A    between atoms: C_6  and  C_7
REMARK    4  A    between atoms: N_9  and  C_10
REMARK    5  A    between atoms: C_13  and  N_14
REMARK    6  A    between atoms: N_17  and  C_18
REMARK    7  A    between atoms: C_24  and  O_25
REMARK    8  A    between atoms: O_25  and  C_26
REMARK                            x       y       z     vdW  Elec       q    Type
REMARK                         _______ _______ _______ _____ _____    ______ ____
ROOT
ATOM      1  C   UNL     1       2.702   6.655  18.619  0.00  0.00    +0.000 C 
ATOM      2  O   UNL     1       2.039   5.961  19.389  0.00  0.00    +0.000 OA
ATOM      3  N   UNL     1       2.527   8.006  18.365  0.00  0.00    +0.000 N 
ATOM      4  H   UNL     1       2.999   8.404  17.562  0.00  0.00    +0.000 HD
ENDROOT
BRANCH   1   8
ATOM      5  C   UNL     1       5.556   4.529  16.236  0.00  0.00    +0.000 A 
ATOM      6  C   UNL     1       4.385   3.913  16.701  0.00  0.00    +0.000 A 
ATOM      7  C   UNL     1       3.471   4.620  17.471  0.00  0.00    +0.000 A 
ATOM      8  C   UNL     1       3.728   5.952  17.817  0.00  0.00    +0.000 A 
ATOM      9  C   UNL     1       4.938   6.540  17.445  0.00  0.00    +0.000 A 
ATOM     10  C   UNL     1       5.864   5.834  16.662  0.00  0.00    +0.000 A 
BRANCH   5  12
ATOM     11  C   UNL     1       6.168   4.060  14.004  0.00  0.00    +0.000 C 
ATOM     12  O   UNL     1       6.405   3.857  15.398  0.00  0.00    +0.000 OA
ENDBRANCH   5  12
BRANCH  10  13
ATOM     13  O   UNL     1       6.987   6.576  16.403  0.00  0.00    +0.000 OA
ATOM     14  C   UNL     1       7.561   7.343  17.451  0.00  0.00    +0.000 C 
ENDBRANCH  10  13
ENDBRANCH   1   8
BRANCH   3  15
ATOM     15  C   UNL     1       1.558   8.817  19.001  0.00  0.00    +0.000 A 
ATOM     16  C   UNL     1       0.756   9.714  18.301  0.00  0.00    +0.000 A 
ATOM     17  C   UNL     1      -0.141  10.548  18.967  0.00  0.00    +0.000 A 
ATOM     18  C   UNL     1      -0.289  10.522  20.356  0.00  0.00    +0.000 A 
ATOM     19  C   UNL     1       0.496   9.588  21.048  0.00  0.00    +0.000 A 
ATOM     20  C   UNL     1       1.398   8.733  20.385  0.00  0.00    +0.000 A 
BRANCH  18  21
ATOM     21  N   UNL     1      -1.148  11.392  20.988  0.00  0.00    +0.000 N 
ATOM     22  C   UNL     1      -2.058  12.280  20.243  0.00  0.00    +0.000 C 
ATOM     23  C   UNL     1      -1.936  13.733  20.752  0.00  0.00    +0.000 C 
ATOM     24  N   UNL     1      -2.165  13.829  22.211  0.00  0.00    +0.000 NA
ATOM     25  C   UNL     1      -2.050  15.212  22.662  0.00  0.00    +0.000 C 
ATOM     26  C   UNL     1      -1.186  12.959  22.904  0.00  0.00    +0.000 C 
ATOM     27  C   UNL     1      -1.264  11.477  22.448  0.00  0.00    +0.000 C 
ENDBRANCH  18  21
ENDBRANCH   3  15
TORSDOF 5
ENDMDL
MODEL 2
REMARK VINA RESULT:      -7.4      0.875      1.328
REMARK  Name = 
REMARK  8 active torsions:
REMARK  status: ('A' for Active; 'I' for Inactive)
REMARK    1  A    between atoms: C_1  and  O_2
REMARK    2  A    between atoms: O_2  and  C_3
REMARK    3  A    between atoms: C_6  and  C_7
REMARK    4  A    between atoms: N_9  and  C_10
REMARK    5  A    between atoms: C_13  and  N_14
REMARK    6  A    between atoms: N_17  and  C_18
REMARK    7  A    between atoms: C_24  and  O_25
REMARK    8  A    between atoms: O_25  and  C_26
REMARK                            x       y       z     vdW  Elec       q    Type
REMARK                         _______ _______ _______ _____ _____    ______ ____
ROOT
ATOM      1  C   UNL     1       2.684   6.786  18.732  0.00  0.00    +0.000 C 
ATOM      2  O   UNL     1       2.113   6.193  19.646  0.00  0.00    +0.000 OA
ATOM      3  N   UNL     1       2.458   8.092  18.326  0.00  0.00    +0.000 N 
ATOM      4  H   UNL     1       2.840   8.386  17.436  0.00  0.00    +0.000 HD
ENDROOT
BRANCH   1   8
ATOM      5  C   UNL     1       5.332   4.409  16.349  0.00  0.00    +0.000 A 
ATOM      6  C   UNL     1       4.121   3.895  16.834  0.00  0.00    +0.000 A 
ATOM      7  C   UNL     1       3.275   4.683  17.603  0.00  0.00    +0.000 A 
ATOM      8  C   UNL     1       3.641   5.994  17.929  0.00  0.00    +0.000 A 
ATOM      9  C   UNL     1       4.890   6.478  17.538  0.00  0.00    +0.000 A 
ATOM     10  C   UNL     1       5.749   5.691  16.755  0.00  0.00    +0.000 A 
BRANCH   5  12
ATOM     11  C   UNL     1       5.960   3.945  14.120  0.00  0.00    +0.000 C 
ATOM     12  O   UNL     1       6.115   3.662  15.511  0.00  0.00    +0.000 OA
ENDBRANCH   5  12
BRANCH  10  13
ATOM     13  O   UNL     1       6.924   6.337  16.475  0.00  0.00    +0.000 OA
ATOM     14  C   UNL     1       7.465   7.228  17.439  0.00  0.00    +0.000 C 
ENDBRANCH  10  13
ENDBRANCH   1   8
BRANCH   3  15
ATOM     15  C   UNL     1       1.538   8.971  18.946  0.00  0.00    +0.000 A 
ATOM     16  C   UNL     1       0.700   9.812  18.219  0.00  0.00    +0.000 A 
ATOM     17  C   UNL     1      -0.146  10.715  18.861  0.00  0.00    +0.000 A 
ATOM     18  C   UNL     1      -0.204  10.817  20.254  0.00  0.00    +0.000 A 
ATOM     19  C   UNL     1       0.617   9.939  20.977  0.00  0.00    +0.000 A 
ATOM     20  C   UNL     1       1.467   9.014  20.339  0.00  0.00    +0.000 A 
BRANCH  18  21
ATOM     21  N   UNL     1      -1.013  11.753  20.857  0.00  0.00    +0.000 N 
ATOM     22  C   UNL     1      -1.009  11.976  22.314  0.00  0.00    +0.000 C 
ATOM     23  C   UNL     1      -2.449  11.955  22.870  0.00  0.00    +0.000 C 
ATOM     24  N   UNL     1      -3.323  12.929  22.179  0.00  0.00    +0.000 NA
ATOM     25  C   UNL     1      -4.674  12.892  22.729  0.00  0.00    +0.000 C 
ATOM     26  C   UNL     1      -3.329  12.619  20.730  0.00  0.00    +0.000 C 
ATOM     27  C   UNL     1      -1.909  12.636  20.102  0.00  0.00    +0.000 C 
ENDBRANCH  18  21
ENDBRANCH   3  15
TORSDOF 5
ENDMDL
MODEL 3
REMARK VINA RESULT:      -7.4      1.848      2.619
REMARK  Name = 
REMARK  8 active torsions:
REMARK  status: ('A' for Active; 'I' for Inactive)
REMARK    1  A    between atoms: C_1  and  O_2
REMARK    2  A    between atoms: O_2  and  C_3
REMARK    3  A    between atoms: C_6  and  C_7
REMARK    4  A    between atoms: N_9  and  C_10
REMARK    5  A    between atoms: C_13  and  N_14
REMARK    6  A    between atoms: N_17  and  C_18
REMARK    7  A    between atoms: C_24  and  O_25
REMARK    8  A    between atoms: O_25  and  C_26
REMARK                            x       y       z     vdW  Elec       q    Type
REMARK                         _______ _______ _______ _____ _____    ______ ____
ROOT
ATOM      1  C   UNL     1       2.170   7.058  19.800  0.00  0.00    +0.000 C 
ATOM      2  O   UNL     1       1.555   6.473  20.690  0.00  0.00    +0.000 OA
ATOM      3  N   UNL     1       1.954   8.355  19.360  0.00  0.00    +0.000 N 
ATOM      4  H   UNL     1       2.383   8.639  18.489  0.00  0.00    +0.000 HD
ENDROOT
BRANCH   1   8
ATOM      5  C   UNL     1       5.132   4.891  17.593  0.00  0.00    +0.000 A 
ATOM      6  C   UNL     1       4.496   6.019  17.055  0.00  0.00    +0.000 A 
ATOM      7  C   UNL     1       3.540   6.709  17.787  0.00  0.00    +0.000 A 
ATOM      8  C   UNL     1       3.178   6.263  19.064  0.00  0.00    +0.000 A 
ATOM      9  C   UNL     1       3.731   5.084  19.564  0.00  0.00    +0.000 A 
ATOM     10  C   UNL     1       4.702   4.383  18.832  0.00  0.00    +0.000 A 
BRANCH   5  12
ATOM     11  C   UNL     1       7.196   5.133  16.471  0.00  0.00    +0.000 C 
ATOM     12  O   UNL     1       6.142   4.273  16.906  0.00  0.00    +0.000 OA
ENDBRANCH   5  12
BRANCH  10  13
ATOM     13  O   UNL     1       5.121   3.254  19.486  0.00  0.00    +0.000 OA
ATOM     14  C   UNL     1       4.150   2.403  20.078  0.00  0.00    +0.000 C 
ENDBRANCH  10  13
ENDBRANCH   1   8
BRANCH   3  15
ATOM     15  C   UNL     1       0.993   9.233  19.915  0.00  0.00    +0.000 A 
ATOM     16  C   UNL     1       0.070   9.923  19.132  0.00  0.00    +0.000 A 
ATOM     17  C   UNL     1      -0.818  10.833  19.703  0.00  0.00    +0.000 A 
ATOM     18  C   UNL     1      -0.837  11.093  21.076  0.00  0.00    +0.000 A 
ATOM     19  C   UNL     1       0.071  10.365  21.859  0.00  0.00    +0.000 A 
ATOM     20  C   UNL     1       0.966   9.434  21.296  0.00  0.00    +0.000 A 
BRANCH  18  21
ATOM     21  N   UNL     1      -1.692  12.034  21.602  0.00  0.00    +0.000 N 
ATOM     22  C   UNL     1      -1.741  12.336  23.043  0.00  0.00    +0.000 C 
ATOM     23  C   UNL     1      -3.197  12.299  23.557  0.00  0.00    +0.000 C 
ATOM     24  N   UNL     1      -4.078  13.205  22.787  0.00  0.00    +0.000 NA
ATOM     25  C   UNL     1      -5.444  13.155  23.297  0.00  0.00    +0.000 C 
ATOM     26  C   UNL     1      -4.028  12.817  21.358  0.00  0.00    +0.000 C 
ATOM     27  C   UNL     1      -2.591  12.846  20.773  0.00  0.00    +0.000 C 
ENDBRANCH  18  21
ENDBRANCH   3  15
TORSDOF 5
ENDMDL
MODEL 4
REMARK VINA RESULT:      -7.2      2.512      3.767
REMARK  Name = 
REMARK  8 active torsions:
REMARK  status: ('A' for Active; 'I' for Inactive)
REMARK    1  A    between atoms: C_1  and  O_2
REMARK    2  A    between atoms: O_2  and  C_3
REMARK    3  A    between atoms: C_6  and  C_7
REMARK    4  A    between atoms: N_9  and  C_10
REMARK    5  A    between atoms: C_13  and  N_14
REMARK    6  A    between atoms: N_17  and  C_18
REMARK    7  A    between atoms: C_24  and  O_25
REMARK    8  A    between atoms: O_25  and  C_26
REMARK                            x       y       z     vdW  Elec       q    Type
REMARK                         _______ _______ _______ _____ _____    ______ ____
ROOT
ATOM      1  C   UNL     1       1.805   7.573  19.835  0.00  0.00    +0.000 C 
ATOM      2  O   UNL     1       2.118   8.449  19.029  0.00  0.00    +0.000 OA
ATOM      3  N   UNL     1       1.019   7.733  20.966  0.00  0.00    +0.000 N 
ATOM      4  H   UNL     1       1.013   6.987  21.649  0.00  0.00    +0.000 HD
ENDROOT
BRANCH   1   8
ATOM      5  C   UNL     1       3.650   3.775  19.124  0.00  0.00    +0.000 A 
ATOM      6  C   UNL     1       3.668   4.791  18.158  0.00  0.00    +0.000 A 
ATOM      7  C   UNL     1       3.065   6.016  18.408  0.00  0.00    +0.000 A 
ATOM      8  C   UNL     1       2.405   6.238  19.623  0.00  0.00    +0.000 A 
ATOM      9  C   UNL     1       2.295   5.198  20.546  0.00  0.00    +0.000 A 
ATOM     10  C   UNL     1       2.906   3.958  20.304  0.00  0.00    +0.000 A 
BRANCH   5  12
ATOM     11  C   UNL     1       3.566   1.565  18.296  0.00  0.00    +0.000 C 
ATOM     12  O   UNL     1       4.328   2.605  18.910  0.00  0.00    +0.000 OA
ENDBRANCH   5  12
BRANCH  10  13
ATOM     13  O   UNL     1       2.684   3.070  21.323  0.00  0.00    +0.000 OA
ATOM     14  C   UNL     1       1.353   2.658  21.599  0.00  0.00    +0.000 C 
ENDBRANCH  10  13
ENDBRANCH   1   8
BRANCH   3  15
ATOM     15  C   UNL     1       0.413   8.953  21.348  0.00  0.00    +0.000 A 
ATOM     16  C   UNL     1       0.162   9.279  22.678  0.00  0.00    +0.000 A 
ATOM     17  C   UNL     1      -0.500  10.459  23.017  0.00  0.00    +0.000 A 
ATOM     18  C   UNL     1      -0.932  11.373  22.051  0.00  0.00    +0.000 A 
ATOM     19  C   UNL     1      -0.639  11.052  20.717  0.00  0.00    +0.000 A 
ATOM     20  C   UNL     1       0.038   9.869  20.363  0.00  0.00    +0.000 A 
BRANCH  18  21
ATOM     21  N   UNL     1      -1.625  12.504  22.414  0.00  0.00    +0.000 N 
ATOM     22  C   UNL     1      -0.977  13.823  22.525  0.00  0.00    +0.000 C 
ATOM     23  C   UNL     1      -1.323  14.486  23.876  0.00  0.00    +0.000 C 
ATOM     24  N   UNL     1      -2.785  14.585  24.085  0.00  0.00    +0.000 NA
ATOM     25  C   UNL     1      -3.082  15.220  25.365  0.00  0.00    +0.000 C 
ATOM     26  C   UNL     1      -3.369  13.225  24.017  0.00  0.00    +0.000 C 
ATOM     27  C   UNL     1      -3.069  12.505  22.675  0.00  0.00    +0.000 C 
ENDBRANCH  18  21
ENDBRANCH   3  15
TORSDOF 5
ENDMDL
MODEL 5
REMARK VINA RESULT:      -7.2      1.533      2.392
REMARK  Name = 
REMARK  8 active torsions:
REMARK  status: ('A' for Active; 'I' for Inactive)
REMARK    1  A    between atoms: C_1  and  O_2
REMARK    2  A    between atoms: O_2  and  C_3
REMARK    3  A    between atoms: C_6  and  C_7
REMARK    4  A    between atoms: N_9  and  C_10
REMARK    5  A    between atoms: C_13  and  N_14
REMARK    6  A    between atoms: N_17  and  C_18
REMARK    7  A    between atoms: C_24  and  O_25
REMARK    8  A    between atoms: O_25  and  C_26
REMARK                            x       y       z     vdW  Elec       q    Type
REMARK                         _______ _______ _______ _____ _____    ______ ____
ROOT
ATOM      1  C   UNL     1       2.477   7.868  18.225  0.00  0.00    +0.000 C 
ATOM      2  O   UNL     1       2.310   8.836  17.484  0.00  0.00    +0.000 OA
ATOM      3  N   UNL     1       2.035   7.744  19.533  0.00  0.00    +0.000 N 
ATOM      4  H   UNL     1       2.417   6.993  20.094  0.00  0.00    +0.000 HD
ENDROOT
BRANCH   1   8
ATOM      5  C   UNL     1       5.018   4.784  16.685  0.00  0.00    +0.000 A 
ATOM      6  C   UNL     1       5.225   6.134  16.365  0.00  0.00    +0.000 A 
ATOM      7  C   UNL     1       4.391   7.119  16.876  0.00  0.00    +0.000 A 
ATOM      8  C   UNL     1       3.312   6.768  17.695  0.00  0.00    +0.000 A 
ATOM      9  C   UNL     1       3.038   5.421  17.934  0.00  0.00    +0.000 A 
ATOM     10  C   UNL     1       3.879   4.419  17.426  0.00  0.00    +0.000 A 
BRANCH   5  12
ATOM     11  C   UNL     1       6.326   3.958  14.901  0.00  0.00    +0.000 C 
ATOM     12  O   UNL     1       5.899   3.828  16.258  0.00  0.00    +0.000 OA
ENDBRANCH   5  12
BRANCH  10  13
ATOM     13  O   UNL     1       3.445   3.165  17.766  0.00  0.00    +0.000 OA
ATOM     14  C   UNL     1       3.826   2.622  19.021  0.00  0.00    +0.000 C 
ENDBRANCH  10  13
ENDBRANCH   1   8
BRANCH   3  15
ATOM     15  C   UNL     1       1.273   8.723  20.213  0.00  0.00    +0.000 A 
ATOM     16  C   UNL     1       0.642   9.773  19.550  0.00  0.00    +0.000 A 
ATOM     17  C   UNL     1      -0.044  10.760  20.256  0.00  0.00    +0.000 A 
ATOM     18  C   UNL     1      -0.142  10.745  21.650  0.00  0.00    +0.000 A 
ATOM     19  C   UNL     1       0.465   9.663  22.304  0.00  0.00    +0.000 A 
ATOM     20  C   UNL     1       1.152   8.653  21.602  0.00  0.00    +0.000 A 
BRANCH  18  21
ATOM     21  N   UNL     1      -0.784  11.760  22.321  0.00  0.00    +0.000 N 
ATOM     22  C   UNL     1      -1.860  11.504  23.295  0.00  0.00    +0.000 C 
ATOM     23  C   UNL     1      -3.090  12.385  22.990  0.00  0.00    +0.000 C 
ATOM     24  N   UNL     1      -2.742  13.823  22.939  0.00  0.00    +0.000 NA
ATOM     25  C   UNL     1      -3.923  14.631  22.655  0.00  0.00    +0.000 C 
ATOM     26  C   UNL     1      -1.699  14.023  21.906  0.00  0.00    +0.000 C 
ATOM     27  C   UNL     1      -0.424  13.174  22.160  0.00  0.00    +0.000 C 
ENDBRANCH  18  21
ENDBRANCH   3  15
TORSDOF 5
ENDMDL
MODEL 6
REMARK VINA RESULT:      -7.2      1.358      2.366
REMARK  Name = 
REMARK  8 active torsions:
REMARK  status: ('A' for Active; 'I' for Inactive)
REMARK    1  A    between atoms: C_1  and  O_2
REMARK    2  A    between atoms: O_2  and  C_3
REMARK    3  A    between atoms: C_6  and  C_7
REMARK    4  A    between atoms: N_9  and  C_10
REMARK    5  A    between atoms: C_13  and  N_14
REMARK    6  A    between atoms: N_17  and  C_18
REMARK    7  A    between atoms: C_24  and  O_25
REMARK    8  A    between atoms: O_25  and  C_26
REMARK                            x       y       z     vdW  Elec       q    Type
REMARK                         _______ _______ _______ _____ _____    ______ ____
ROOT
ATOM      1  C   UNL     1       2.458   6.928  19.056  0.00  0.00    +0.000 C 
ATOM      2  O   UNL     1       2.076   6.416  20.108  0.00  0.00    +0.000 OA
ATOM      3  N   UNL     1       2.074   8.160  18.550  0.00  0.00    +0.000 N 
ATOM      4  H   UNL     1       2.297   8.367  17.585  0.00  0.00    +0.000 HD
ENDROOT
BRANCH   1   8
ATOM      5  C   UNL     1       5.129   4.654  16.601  0.00  0.00    +0.000 A 
ATOM      6  C   UNL     1       5.152   6.056  16.606  0.00  0.00    +0.000 A 
ATOM      7  C   UNL     1       4.279   6.775  17.410  0.00  0.00    +0.000 A 
ATOM      8  C   UNL     1       3.342   6.103  18.205  0.00  0.00    +0.000 A 
ATOM      9  C   UNL     1       3.245   4.713  18.128  0.00  0.00    +0.000 A 
ATOM     10  C   UNL     1       4.127   3.978  17.321  0.00  0.00    +0.000 A 
BRANCH   5  12
ATOM     11  C   UNL     1       5.951   4.082  14.462  0.00  0.00    +0.000 C 
ATOM     12  O   UNL     1       6.056   3.949  15.880  0.00  0.00    +0.000 OA
ENDBRANCH   5  12
BRANCH  10  13
ATOM     13  O   UNL     1       3.873   2.633  17.377  0.00  0.00    +0.000 OA
ATOM     14  C   UNL     1       3.680   2.022  18.644  0.00  0.00    +0.000 C 
ENDBRANCH  10  13
ENDBRANCH   1   8
BRANCH   3  15
ATOM     15  C   UNL     1       1.194   9.051  19.207  0.00  0.00    +0.000 A 
ATOM     16  C   UNL     1       0.408   9.971  18.517  0.00  0.00    +0.000 A 
ATOM     17  C   UNL     1      -0.398  10.882  19.199  0.00  0.00    +0.000 A 
ATOM     18  C   UNL     1      -0.468  10.914  20.594  0.00  0.00    +0.000 A 
ATOM     19  C   UNL     1       0.298   9.959  21.277  0.00  0.00    +0.000 A 
ATOM     20  C   UNL     1       1.108   9.026  20.600  0.00  0.00    +0.000 A 
BRANCH  18  21
ATOM     21  N   UNL     1      -1.236  11.858  21.238  0.00  0.00    +0.000 N 
ATOM     22  C   UNL     1      -1.214  12.026  22.702  0.00  0.00    +0.000 C 
ATOM     23  C   UNL     1      -2.650  12.041  23.268  0.00  0.00    +0.000 C 
ATOM     24  N   UNL     1      -3.489  13.074  22.620  0.00  0.00    +0.000 NA
ATOM     25  C   UNL     1      -4.837  13.069  23.179  0.00  0.00    +0.000 C 
ATOM     26  C   UNL     1      -3.517  12.818  21.161  0.00  0.00    +0.000 C 
ATOM     27  C   UNL     1      -2.101  12.804  20.523  0.00  0.00    +0.000 C 
ENDBRANCH  18  21
ENDBRANCH   3  15
TORSDOF 5
ENDMDL
MODEL 7
REMARK VINA RESULT:      -7.2      1.920      2.948
REMARK  Name = 
REMARK  8 active torsions:
REMARK  status: ('A' for Active; 'I' for Inactive)
REMARK    1  A    between atoms: C_1  and  O_2
REMARK    2  A    between atoms: O_2  and  C_3
REMARK    3  A    between atoms: C_6  and  C_7
REMARK    4  A    between atoms: N_9  and  C_10
REMARK    5  A    between atoms: C_13  and  N_14
REMARK    6  A    between atoms: N_17  and  C_18
REMARK    7  A    between atoms: C_24  and  O_25
REMARK    8  A    between atoms: O_25  and  C_26
REMARK                            x       y       z     vdW  Elec       q    Type
REMARK                         _______ _______ _______ _____ _____    ______ ____
ROOT
ATOM      1  C   UNL     1       2.063   7.535  19.748  0.00  0.00    +0.000 C 
ATOM      2  O   UNL     1       1.541   7.088  20.769  0.00  0.00    +0.000 OA
ATOM      3  N   UNL     1       1.781   8.749  19.140  0.00  0.00    +0.000 N 
ATOM      4  H   UNL     1       2.125   8.900  18.201  0.00  0.00    +0.000 HD
ENDROOT
BRANCH   1   8
ATOM      5  C   UNL     1       4.888   5.088  17.659  0.00  0.00    +0.000 A 
ATOM      6  C   UNL     1       4.398   6.278  17.104  0.00  0.00    +0.000 A 
ATOM      7  C   UNL     1       3.483   7.059  17.798  0.00  0.00    +0.000 A 
ATOM      8  C   UNL     1       3.018   6.645  19.052  0.00  0.00    +0.000 A 
ATOM      9  C   UNL     1       3.422   5.413  19.565  0.00  0.00    +0.000 A 
ATOM     10  C   UNL     1       4.351   4.620  18.872  0.00  0.00    +0.000 A 
BRANCH   5  12
ATOM     11  C   UNL     1       7.201   4.694  17.390  0.00  0.00    +0.000 C 
ATOM     12  O   UNL     1       5.861   4.373  17.014  0.00  0.00    +0.000 OA
ENDBRANCH   5  12
BRANCH  10  13
ATOM     13  O   UNL     1       4.620   3.450  19.533  0.00  0.00    +0.000 OA
ATOM     14  C   UNL     1       3.649   2.414  19.520  0.00  0.00    +0.000 C 
ENDBRANCH  10  13
ENDBRANCH   1   8
BRANCH   3  15
ATOM     15  C   UNL     1       0.855   9.694  19.641  0.00  0.00    +0.000 A 
ATOM     16  C   UNL     1       0.945  10.220  20.927  0.00  0.00    +0.000 A 
ATOM     17  C   UNL     1      -0.023  11.098  21.414  0.00  0.00    +0.000 A 
ATOM     18  C   UNL     1      -1.117  11.500  20.643  0.00  0.00    +0.000 A 
ATOM     19  C   UNL     1      -1.177  10.993  19.337  0.00  0.00    +0.000 A 
ATOM     20  C   UNL     1      -0.200  10.114  18.829  0.00  0.00    +0.000 A 
BRANCH  18  21
ATOM     21  N   UNL     1      -2.082  12.328  21.169  0.00  0.00    +0.000 N 
ATOM     22  C   UNL     1      -2.084  12.734  22.586  0.00  0.00    +0.000 C 
ATOM     23  C   UNL     1      -3.474  12.503  23.216  0.00  0.00    +0.000 C 
ATOM     24  N   UNL     1      -4.545  13.189  22.458  0.00  0.00    +0.000 NA
ATOM     25  C   UNL     1      -5.846  12.958  23.078  0.00  0.00    +0.000 C 
ATOM     26  C   UNL     1      -4.527  12.699  21.059  0.00  0.00    +0.000 C 
ATOM     27  C   UNL     1      -3.158  12.913  20.361  0.00  0.00    +0.000 C 
ENDBRANCH  18  21
ENDBRANCH   3  15
TORSDOF 5
ENDMDL
MODEL 8
REMARK VINA RESULT:      -7.2      1.038      2.224
REMARK  Name = 
REMARK  8 active torsions:
REMARK  status: ('A' for Active; 'I' for Inactive)
REMARK    1  A    between atoms: C_1  and  O_2
REMARK    2  A    between atoms: O_2  and  C_3
REMARK    3  A    between atoms: C_6  and  C_7
REMARK    4  A    between atoms: N_9  and  C_10
REMARK    5  A    between atoms: C_13  and  N_14
REMARK    6  A    between atoms: N_17  and  C_18
REMARK    7  A    between atoms: C_24  and  O_25
REMARK    8  A    between atoms: O_25  and  C_26
REMARK                            x       y       z     vdW  Elec       q    Type
REMARK                         _______ _______ _______ _____ _____    ______ ____
ROOT
ATOM      1  C   UNL     1       2.503   6.682  19.039  0.00  0.00    +0.000 C 
ATOM      2  O   UNL     1       2.026   6.146  20.039  0.00  0.00    +0.000 OA
ATOM      3  N   UNL     1       2.262   7.975  18.601  0.00  0.00    +0.000 N 
ATOM      4  H   UNL     1       2.548   8.219  17.662  0.00  0.00    +0.000 HD
ENDROOT
BRANCH   1   8
ATOM      5  C   UNL     1       5.044   4.327  16.522  0.00  0.00    +0.000 A 
ATOM      6  C   UNL     1       5.049   5.728  16.464  0.00  0.00    +0.000 A 
ATOM      7  C   UNL     1       4.219   6.474  17.290  0.00  0.00    +0.000 A 
ATOM      8  C   UNL     1       3.343   5.828  18.171  0.00  0.00    +0.000 A 
ATOM      9  C   UNL     1       3.258   4.436  18.161  0.00  0.00    +0.000 A 
ATOM     10  C   UNL     1       4.097   3.674  17.333  0.00  0.00    +0.000 A 
BRANCH   5  12
ATOM     11  C   UNL     1       6.121   4.062  14.437  0.00  0.00    +0.000 C 
ATOM     12  O   UNL     1       5.932   3.600  15.776  0.00  0.00    +0.000 OA
ENDBRANCH   5  12
BRANCH  10  13
ATOM     13  O   UNL     1       3.864   2.331  17.464  0.00  0.00    +0.000 OA
ATOM     14  C   UNL     1       3.312   1.844  18.678  0.00  0.00    +0.000 C 
ENDBRANCH  10  13
ENDBRANCH   1   8
BRANCH   3  15
ATOM     15  C   UNL     1       1.441   8.906  19.280  0.00  0.00    +0.000 A 
ATOM     16  C   UNL     1       1.251   8.869  20.659  0.00  0.00    +0.000 A 
ATOM     17  C   UNL     1       0.381   9.758  21.289  0.00  0.00    +0.000 A 
ATOM     18  C   UNL     1      -0.331  10.730  20.580  0.00  0.00    +0.000 A 
ATOM     19  C   UNL     1      -0.102  10.783  19.198  0.00  0.00    +0.000 A 
ATOM     20  C   UNL     1       0.783   9.897  18.551  0.00  0.00    +0.000 A 
BRANCH  18  21
ATOM     21  N   UNL     1      -1.218  11.560  21.224  0.00  0.00    +0.000 N 
ATOM     22  C   UNL     1      -2.201  12.382  20.494  0.00  0.00    +0.000 C 
ATOM     23  C   UNL     1      -2.148  13.848  20.976  0.00  0.00    +0.000 C 
ATOM     24  N   UNL     1      -2.338  13.956  22.440  0.00  0.00    +0.000 NA
ATOM     25  C   UNL     1      -2.289  15.351  22.865  0.00  0.00    +0.000 C 
ATOM     26  C   UNL     1      -1.290  13.156  23.116  0.00  0.00    +0.000 C 
ATOM     27  C   UNL     1      -1.296  11.664  22.686  0.00  0.00    +0.000 C 
ENDBRANCH  18  21
ENDBRANCH   3  15
TORSDOF 5
ENDMDL
MODEL 9
REMARK VINA RESULT:      -7.2      1.648      2.568
REMARK  Name = 
REMARK  8 active torsions:
REMARK  status: ('A' for Active; 'I' for Inactive)
REMARK    1  A    between atoms: C_1  and  O_2
REMARK    2  A    between atoms: O_2  and  C_3
REMARK    3  A    between atoms: C_6  and  C_7
REMARK    4  A    between atoms: N_9  and  C_10
REMARK    5  A    between atoms: C_13  and  N_14
REMARK    6  A    between atoms: N_17  and  C_18
REMARK    7  A    between atoms: C_24  and  O_25
REMARK    8  A    between atoms: O_25  and  C_26
REMARK                            x       y       z     vdW  Elec       q    Type
REMARK                         _______ _______ _______ _____ _____    ______ ____
ROOT
ATOM      1  C   UNL     1       2.442   7.665  18.582  0.00  0.00    +0.000 C 
ATOM      2  O   UNL     1       2.180   7.524  19.776  0.00  0.00    +0.000 OA
ATOM      3  N   UNL     1       1.955   8.653  17.740  0.00  0.00    +0.000 N 
ATOM      4  H   UNL     1       2.081   8.532  16.743  0.00  0.00    +0.000 HD
ENDROOT
BRANCH   1   8
ATOM      5  C   UNL     1       5.005   4.748  16.775  0.00  0.00    +0.000 A 
ATOM      6  C   UNL     1       5.074   6.104  16.423  0.00  0.00    +0.000 A 
ATOM      7  C   UNL     1       4.235   7.035  17.021  0.00  0.00    +0.000 A 
ATOM      8  C   UNL     1       3.288   6.620  17.965  0.00  0.00    +0.000 A 
ATOM      9  C   UNL     1       3.143   5.261  18.244  0.00  0.00    +0.000 A 
ATOM     10  C   UNL     1       3.990   4.314  17.647  0.00  0.00    +0.000 A 
BRANCH   5  12
ATOM     11  C   UNL     1       6.123   3.966  14.848  0.00  0.00    +0.000 C 
ATOM     12  O   UNL     1       5.898   3.851  16.253  0.00  0.00    +0.000 OA
ENDBRANCH   5  12
BRANCH  10  13
ATOM     13  O   UNL     1       3.692   3.037  18.045  0.00  0.00    +0.000 OA
ATOM     14  C   UNL     1       2.446   2.472  17.665  0.00  0.00    +0.000 C 
ENDBRANCH  10  13
ENDBRANCH   1   8
BRANCH   3  15
ATOM     15  C   UNL     1       1.093   9.696  18.152  0.00  0.00    +0.000 A 
ATOM     16  C   UNL     1       1.551  10.821  18.833  0.00  0.00    +0.000 A 
ATOM     17  C   UNL     1       0.666  11.798  19.286  0.00  0.00    +0.000 A 
ATOM     18  C   UNL     1      -0.713  11.707  19.075  0.00  0.00    +0.000 A 
ATOM     19  C   UNL     1      -1.159  10.589  18.356  0.00  0.00    +0.000 A 
ATOM     20  C   UNL     1      -0.274   9.601  17.884  0.00  0.00    +0.000 A 
BRANCH  18  21
ATOM     21  N   UNL     1      -1.565  12.663  19.578  0.00  0.00    +0.000 N 
ATOM     22  C   UNL     1      -1.093  13.992  20.008  0.00  0.00    +0.000 C 
ATOM     23  C   UNL     1      -1.624  14.326  21.419  0.00  0.00    +0.000 C 
ATOM     24  N   UNL     1      -3.099  14.229  21.492  0.00  0.00    +0.000 NA
ATOM     25  C   UNL     1      -3.572  14.556  22.833  0.00  0.00    +0.000 C 
ATOM     26  C   UNL     1      -3.506  12.859  21.103  0.00  0.00    +0.000 C 
ATOM     27  C   UNL     1      -3.015  12.462  19.684  0.00  0.00    +0.000 C 
ENDBRANCH  18  21
ENDBRANCH   3  15
TORSDOF 5
ENDMDL
