MODEL 1
REMARK VINA RESULT:      -7.0      0.000      0.000
REMARK  Name = 
REMARK  5 active torsions:
REMARK  status: ('A' for Active; 'I' for Inactive)
REMARK    1  A    between atoms: C_1  and  N_2
REMARK    2  A    between atoms: N_2  and  C_3
REMARK    3  A    between atoms: C_5  and  C_6
REMARK    4  A    between atoms: C_7  and  C_8
REMARK    5  A    between atoms: C_15  and  C_16
REMARK                            x       y       z     vdW  Elec       q    Type
REMARK                         _______ _______ _______ _____ _____    ______ ____
ROOT
ATOM      1  C   UNL     1       6.709   4.995  17.866  0.00  0.00    +0.000 A 
ATOM      2  O   UNL     1       7.203   5.906  18.751  0.00  0.00    +0.000 OA
ATOM      3  C   UNL     1       7.737   6.938  17.991  0.00  0.00    +0.000 A 
ATOM      4  N   UNL     1       7.601   6.707  16.691  0.00  0.00    +0.000 NA
ATOM      5  C   UNL     1       6.964   5.490  16.608  0.00  0.00    +0.000 A 
ENDROOT
BRANCH   1   7
ATOM      6  C   UNL     1       4.703   3.822  18.621  0.00  0.00    +0.000 C 
ATOM      7  N   UNL     1       6.134   3.904  18.416  0.00  0.00    +0.000 N 
ATOM      8  H   UNL     1       6.696   3.359  19.065  0.00  0.00    +0.000 HD
ENDBRANCH   1   7
BRANCH   3   9
ATOM      9  C   UNL     1       8.337   8.103  18.552  0.00  0.00    +0.000 C 
ATOM     10  C   UNL     1       8.247   9.297  17.945  0.00  0.00    +0.000 C 
BRANCH  10  11
ATOM     11  C   UNL     1       8.897  10.541  18.400  0.00  0.00    +0.000 A 
ATOM     12  C   UNL     1       9.694  10.481  19.554  0.00  0.00    +0.000 A 
ATOM     13  C   UNL     1      10.328  11.621  20.052  0.00  0.00    +0.000 A 
ATOM     14  C   UNL     1      10.188  12.839  19.393  0.00  0.00    +0.000 A 
ATOM     15  C   UNL     1       9.424  12.910  18.229  0.00  0.00    +0.000 A 
ATOM     16  C   UNL     1       8.787  11.767  17.731  0.00  0.00    +0.000 A 
ENDBRANCH  10  11
ENDBRANCH   3   9
BRANCH   5  17
ATOM     17  C   UNL     1       6.663   4.887  15.351  0.00  0.00    +0.000 C 
ATOM     18  N   UNL     1       6.426   4.368  14.342  0.00  0.00    +0.000 NA
ENDBRANCH   5  17
TORSDOF 4
ENDMDL
MODEL 2
REMARK VINA RESULT:      -6.9      0.638      1.306
REMARK  Name = 
REMARK  5 active torsions:
REMARK  status: ('A' for Active; 'I' for Inactive)
REMARK    1  A    between atoms: C_1  and  N_2
REMARK    2  A    between atoms: N_2  and  C_3
REMARK    3  A    between atoms: C_5  and  C_6
REMARK    4  A    between atoms: C_7  and  C_8
REMARK    5  A    between atoms: C_15  and  C_16
REMARK                            x       y       z     vdW  Elec       q    Type
REMARK                         _______ _______ _______ _____ _____    ______ ____
ROOT
ATOM      1  C   UNL     1       6.707   5.133  17.885  0.00  0.00    +0.000 A 
ATOM      2  O   UNL     1       7.092   6.299  18.477  0.00  0.00    +0.000 OA
ATOM      3  C   UNL     1       7.447   7.160  17.447  0.00  0.00    +0.000 A 
ATOM      4  N   UNL     1       7.305   6.585  16.259  0.00  0.00    +0.000 NA
ATOM      5  C   UNL     1       6.848   5.315  16.529  0.00  0.00    +0.000 A 
ENDROOT
BRANCH   1   7
ATOM      6  C   UNL     1       5.025   4.192  19.386  0.00  0.00    +0.000 C 
ATOM      7  N   UNL     1       6.314   4.155  18.730  0.00  0.00    +0.000 N 
ATOM      8  H   UNL     1       7.043   3.657  19.235  0.00  0.00    +0.000 HD
ENDBRANCH   1   7
BRANCH   3   9
ATOM      9  C   UNL     1       7.890   8.499  17.654  0.00  0.00    +0.000 C 
ATOM     10  C   UNL     1       8.685   8.821  18.687  0.00  0.00    +0.000 C 
BRANCH  10  11
ATOM     11  C   UNL     1       9.131  10.184  19.033  0.00  0.00    +0.000 A 
ATOM     12  C   UNL     1       9.096  11.161  18.026  0.00  0.00    +0.000 A 
ATOM     13  C   UNL     1       9.518  12.469  18.276  0.00  0.00    +0.000 A 
ATOM     14  C   UNL     1       9.965  12.825  19.545  0.00  0.00    +0.000 A 
ATOM     15  C   UNL     1       9.979  11.875  20.564  0.00  0.00    +0.000 A 
ATOM     16  C   UNL     1       9.558  10.562  20.312  0.00  0.00    +0.000 A 
ENDBRANCH  10  11
ENDBRANCH   3   9
BRANCH   5  17
ATOM     17  C   UNL     1       6.597   4.373  15.487  0.00  0.00    +0.000 C 
ATOM     18  N   UNL     1       6.406   3.628  14.619  0.00  0.00    +0.000 NA
ENDBRANCH   5  17
TORSDOF 4
ENDMDL
MODEL 3
REMARK VINA RESULT:      -6.8      1.124      2.572
REMARK  Name = 
REMARK  5 active torsions:
REMARK  status: ('A' for Active; 'I' for Inactive)
REMARK    1  A    between atoms: C_1  and  N_2
REMARK    2  A    between atoms: N_2  and  C_3
REMARK    3  A    between atoms: C_5  and  C_6
REMARK    4  A    between atoms: C_7  and  C_8
REMARK    5  A    between atoms: C_15  and  C_16
REMARK                            x       y       z     vdW  Elec       q    Type
REMARK                         _______ _______ _______ _____ _____    ______ ____
ROOT
ATOM      1  C   UNL     1       6.844   5.287  16.589  0.00  0.00    +0.000 A 
ATOM      2  O   UNL     1       7.481   6.459  16.308  0.00  0.00    +0.000 OA
ATOM      3  C   UNL     1       7.475   7.197  17.483  0.00  0.00    +0.000 A 
ATOM      4  N   UNL     1       6.866   6.546  18.466  0.00  0.00    +0.000 NA
ATOM      5  C   UNL     1       6.465   5.353  17.910  0.00  0.00    +0.000 A 
ENDROOT
BRANCH   1   7
ATOM      6  C   UNL     1       6.949   4.834  14.191  0.00  0.00    +0.000 C 
ATOM      7  N   UNL     1       6.750   4.416  15.562  0.00  0.00    +0.000 N 
ATOM      8  H   UNL     1       6.132   3.617  15.685  0.00  0.00    +0.000 HD
ENDBRANCH   1   7
BRANCH   3   9
ATOM      9  C   UNL     1       8.069   8.488  17.608  0.00  0.00    +0.000 C 
ATOM     10  C   UNL     1       8.640   8.887  18.756  0.00  0.00    +0.000 C 
BRANCH  10  11
ATOM     11  C   UNL     1       9.208  10.224  19.010  0.00  0.00    +0.000 A 
ATOM     12  C   UNL     1       9.385  11.082  17.914  0.00  0.00    +0.000 A 
ATOM     13  C   UNL     1       9.932  12.356  18.076  0.00  0.00    +0.000 A 
ATOM     14  C   UNL     1      10.295  12.800  19.345  0.00  0.00    +0.000 A 
ATOM     15  C   UNL     1      10.099  11.973  20.448  0.00  0.00    +0.000 A 
ATOM     16  C   UNL     1       9.553  10.693  20.284  0.00  0.00    +0.000 A 
ENDBRANCH  10  11
ENDBRANCH   3   9
BRANCH   5  17
ATOM     17  C   UNL     1       5.744   4.381  18.665  0.00  0.00    +0.000 C 
ATOM     18  N   UNL     1       5.153   3.612  19.301  0.00  0.00    +0.000 NA
ENDBRANCH   5  17
TORSDOF 4
ENDMDL
MODEL 4
REMARK VINA RESULT:      -6.8      1.200      2.217
REMARK  Name = 
REMARK  5 active torsions:
REMARK  status: ('A' for Active; 'I' for Inactive)
REMARK    1  A    between atoms: C_1  and  N_2
REMARK    2  A    between atoms: N_2  and  C_3
REMARK    3  A    between atoms: C_5  and  C_6
REMARK    4  A    between atoms: C_7  and  C_8
REMARK    5  A    between atoms: C_15  and  C_16
REMARK                            x       y       z     vdW  Elec       q    Type
REMARK                         _______ _______ _______ _____ _____    ______ ____
ROOT
ATOM      1  C   UNL     1       6.600   5.844  16.272  0.00  0.00    +0.000 A 
ATOM      2  O   UNL     1       7.470   6.875  16.466  0.00  0.00    +0.000 OA
ATOM      3  C   UNL     1       7.589   7.031  17.840  0.00  0.00    +0.000 A 
ATOM      4  N   UNL     1       6.837   6.158  18.498  0.00  0.00    +0.000 NA
ATOM      5  C   UNL     1       6.212   5.417  17.521  0.00  0.00    +0.000 A 
ENDROOT
BRANCH   1   7
ATOM      6  C   UNL     1       6.611   4.201  14.464  0.00  0.00    +0.000 C 
ATOM      7  N   UNL     1       6.352   5.527  14.983  0.00  0.00    +0.000 N 
ATOM      8  H   UNL     1       6.411   6.279  14.300  0.00  0.00    +0.000 HD
ENDBRANCH   1   7
BRANCH   3   9
ATOM      9  C   UNL     1       8.432   8.003  18.454  0.00  0.00    +0.000 C 
ATOM     10  C   UNL     1       8.362   9.302  18.120  0.00  0.00    +0.000 C 
BRANCH  10  11
ATOM     11  C   UNL     1       9.240  10.368  18.636  0.00  0.00    +0.000 A 
ATOM     12  C   UNL     1       9.336  10.524  20.028  0.00  0.00    +0.000 A 
ATOM     13  C   UNL     1      10.136  11.522  20.588  0.00  0.00    +0.000 A 
ATOM     14  C   UNL     1      10.868  12.371  19.764  0.00  0.00    +0.000 A 
ATOM     15  C   UNL     1      10.808  12.211  18.381  0.00  0.00    +0.000 A 
ATOM     16  C   UNL     1      10.003  11.212  17.819  0.00  0.00    +0.000 A 
ENDBRANCH  10  11
ENDBRANCH   3   9
BRANCH   5  17
ATOM     17  C   UNL     1       5.289   4.378  17.845  0.00  0.00    +0.000 C 
ATOM     18  N   UNL     1       4.516   3.556  18.111  0.00  0.00    +0.000 NA
ENDBRANCH   5  17
TORSDOF 4
ENDMDL
MODEL 5
REMARK VINA RESULT:      -6.7      1.177      1.537
REMARK  Name = 
REMARK  5 active torsions:
REMARK  status: ('A' for Active; 'I' for Inactive)
REMARK    1  A    between atoms: C_1  and  N_2
REMARK    2  A    between atoms: N_2  and  C_3
REMARK    3  A    between atoms: C_5  and  C_6
REMARK    4  A    between atoms: C_7  and  C_8
REMARK    5  A    between atoms: C_15  and  C_16
REMARK                            x       y       z     vdW  Elec       q    Type
REMARK                         _______ _______ _______ _____ _____    ______ ____
ROOT
ATOM      1  C   UNL     1       5.517   5.839  16.973  0.00  0.00    +0.000 A 
ATOM      2  O   UNL     1       6.008   6.688  17.919  0.00  0.00    +0.000 OA
ATOM      3  C   UNL     1       7.301   7.005  17.524  0.00  0.00    +0.000 A 
ATOM      4  N   UNL     1       7.630   6.394  16.393  0.00  0.00    +0.000 NA
ATOM      5  C   UNL     1       6.519   5.659  16.048  0.00  0.00    +0.000 A 
ENDROOT
BRANCH   1   7
ATOM      6  C   UNL     1       3.954   4.028  17.470  0.00  0.00    +0.000 C 
ATOM      7  N   UNL     1       4.251   5.414  17.176  0.00  0.00    +0.000 N 
ATOM      8  H   UNL     1       3.508   5.926  16.706  0.00  0.00    +0.000 HD
ENDBRANCH   1   7
BRANCH   3   9
ATOM      9  C   UNL     1       8.152   7.893  18.246  0.00  0.00    +0.000 C 
ATOM     10  C   UNL     1       8.204   9.203  17.955  0.00  0.00    +0.000 C 
BRANCH  10  11
ATOM     11  C   UNL     1       9.105  10.186  18.585  0.00  0.00    +0.000 A 
ATOM     12  C   UNL     1       9.903  10.978  17.745  0.00  0.00    +0.000 A 
ATOM     13  C   UNL     1      10.791  11.919  18.272  0.00  0.00    +0.000 A 
ATOM     14  C   UNL     1      10.882  12.094  19.650  0.00  0.00    +0.000 A 
ATOM     15  C   UNL     1      10.076  11.336  20.497  0.00  0.00    +0.000 A 
ATOM     16  C   UNL     1       9.187  10.391  19.968  0.00  0.00    +0.000 A 
ENDBRANCH  10  11
ENDBRANCH   3   9
BRANCH   5  17
ATOM     17  C   UNL     1       6.499   4.835  14.884  0.00  0.00    +0.000 C 
ATOM     18  N   UNL     1       6.458   4.147  13.951  0.00  0.00    +0.000 NA
ENDBRANCH   5  17
TORSDOF 4
ENDMDL
MODEL 6
REMARK VINA RESULT:      -6.6      1.379      1.395
REMARK  Name = 
REMARK  5 active torsions:
REMARK  status: ('A' for Active; 'I' for Inactive)
REMARK    1  A    between atoms: C_1  and  N_2
REMARK    2  A    between atoms: N_2  and  C_3
REMARK    3  A    between atoms: C_5  and  C_6
REMARK    4  A    between atoms: C_7  and  C_8
REMARK    5  A    between atoms: C_15  and  C_16
REMARK                            x       y       z     vdW  Elec       q    Type
REMARK                         _______ _______ _______ _____ _____    ______ ____
ROOT
ATOM      1  C   UNL     1       5.450   6.352  16.926  0.00  0.00    +0.000 A 
ATOM      2  O   UNL     1       6.001   7.270  17.769  0.00  0.00    +0.000 OA
ATOM      3  C   UNL     1       7.364   7.273  17.505  0.00  0.00    +0.000 A 
ATOM      4  N   UNL     1       7.678   6.405  16.551  0.00  0.00    +0.000 NA
ATOM      5  C   UNL     1       6.485   5.822  16.190  0.00  0.00    +0.000 A 
ENDROOT
BRANCH   1   7
ATOM      6  C   UNL     1       3.523   5.196  17.884  0.00  0.00    +0.000 C 
ATOM      7  N   UNL     1       4.112   6.201  17.026  0.00  0.00    +0.000 N 
ATOM      8  H   UNL     1       3.553   6.460  16.216  0.00  0.00    +0.000 HD
ENDBRANCH   1   7
BRANCH   3   9
ATOM      9  C   UNL     1       8.296   8.122  18.171  0.00  0.00    +0.000 C 
ATOM     10  C   UNL     1       8.273   9.454  18.002  0.00  0.00    +0.000 C 
BRANCH  10  11
ATOM     11  C   UNL     1       9.239  10.407  18.581  0.00  0.00    +0.000 A 
ATOM     12  C   UNL     1       9.254  10.561  19.976  0.00  0.00    +0.000 A 
ATOM     13  C   UNL     1      10.131  11.456  20.592  0.00  0.00    +0.000 A 
ATOM     14  C   UNL     1      11.019  12.201  19.822  0.00  0.00    +0.000 A 
ATOM     15  C   UNL     1      11.038  12.039  18.438  0.00  0.00    +0.000 A 
ATOM     16  C   UNL     1      10.157  11.143  17.820  0.00  0.00    +0.000 A 
ENDBRANCH  10  11
ENDBRANCH   3   9
BRANCH   5  17
ATOM     17  C   UNL     1       6.420   4.804  15.194  0.00  0.00    +0.000 C 
ATOM     18  N   UNL     1       6.388   3.993  14.365  0.00  0.00    +0.000 NA
ENDBRANCH   5  17
TORSDOF 4
ENDMDL
MODEL 7
REMARK VINA RESULT:      -6.6      5.760      7.628
REMARK  Name = 
REMARK  5 active torsions:
REMARK  status: ('A' for Active; 'I' for Inactive)
REMARK    1  A    between atoms: C_1  and  N_2
REMARK    2  A    between atoms: N_2  and  C_3
REMARK    3  A    between atoms: C_5  and  C_6
REMARK    4  A    between atoms: C_7  and  C_8
REMARK    5  A    between atoms: C_15  and  C_16
REMARK                            x       y       z     vdW  Elec       q    Type
REMARK                         _______ _______ _______ _____ _____    ______ ____
ROOT
ATOM      1  C   UNL     1       6.149   3.885  13.695  0.00  0.00    +0.000 A 
ATOM      2  O   UNL     1       5.204   3.652  14.649  0.00  0.00    +0.000 OA
ATOM      3  C   UNL     1       5.421   4.589  15.650  0.00  0.00    +0.000 A 
ATOM      4  N   UNL     1       6.449   5.378  15.365  0.00  0.00    +0.000 NA
ATOM      5  C   UNL     1       6.911   4.938  14.146  0.00  0.00    +0.000 A 
ENDROOT
BRANCH   1   7
ATOM      6  C   UNL     1       4.971   3.068  11.717  0.00  0.00    +0.000 C 
ATOM      7  N   UNL     1       6.102   3.070  12.620  0.00  0.00    +0.000 N 
ATOM      8  H   UNL     1       6.609   2.190  12.681  0.00  0.00    +0.000 HD
ENDBRANCH   1   7
BRANCH   3   9
ATOM      9  C   UNL     1       4.620   4.689  16.825  0.00  0.00    +0.000 C 
ATOM     10  C   UNL     1       3.638   3.810  17.080  0.00  0.00    +0.000 C 
BRANCH  10  11
ATOM     11  C   UNL     1       2.705   3.873  18.221  0.00  0.00    +0.000 A 
ATOM     12  C   UNL     1       2.782   4.988  19.070  0.00  0.00    +0.000 A 
ATOM     13  C   UNL     1       1.942   5.108  20.179  0.00  0.00    +0.000 A 
ATOM     14  C   UNL     1       0.998   4.121  20.447  0.00  0.00    +0.000 A 
ATOM     15  C   UNL     1       0.888   3.022  19.597  0.00  0.00    +0.000 A 
ATOM     16  C   UNL     1       1.733   2.901  18.486  0.00  0.00    +0.000 A 
ENDBRANCH  10  11
ENDBRANCH   3   9
BRANCH   5  17
ATOM     17  C   UNL     1       8.041   5.536  13.513  0.00  0.00    +0.000 C 
ATOM     18  N   UNL     1       8.944   6.049  12.997  0.00  0.00    +0.000 NA
ENDBRANCH   5  17
TORSDOF 4
ENDMDL
MODEL 8
REMARK VINA RESULT:      -6.6      5.707      7.564
REMARK  Name = 
REMARK  5 active torsions:
REMARK  status: ('A' for Active; 'I' for Inactive)
REMARK    1  A    between atoms: C_1  and  N_2
REMARK    2  A    between atoms: N_2  and  C_3
REMARK    3  A    between atoms: C_5  and  C_6
REMARK    4  A    between atoms: C_7  and  C_8
REMARK    5  A    between atoms: C_15  and  C_16
REMARK                            x       y       z     vdW  Elec       q    Type
REMARK                         _______ _______ _______ _____ _____    ______ ____
ROOT
ATOM      1  C   UNL     1       6.193   3.906  13.765  0.00  0.00    +0.000 A 
ATOM      2  O   UNL     1       5.294   3.652  14.756  0.00  0.00    +0.000 OA
ATOM      3  C   UNL     1       5.525   4.599  15.744  0.00  0.00    +0.000 A 
ATOM      4  N   UNL     1       6.517   5.416  15.416  0.00  0.00    +0.000 NA
ATOM      5  C   UNL     1       6.943   4.983  14.181  0.00  0.00    +0.000 A 
ENDROOT
BRANCH   1   7
ATOM      6  C   UNL     1       5.037   3.163  11.745  0.00  0.00    +0.000 C 
ATOM      7  N   UNL     1       6.127   3.085  12.695  0.00  0.00    +0.000 N 
ATOM      8  H   UNL     1       6.558   2.168  12.785  0.00  0.00    +0.000 HD
ENDBRANCH   1   7
BRANCH   3   9
ATOM      9  C   UNL     1       4.768   4.683  16.950  0.00  0.00    +0.000 C 
ATOM     10  C   UNL     1       3.634   3.983  17.115  0.00  0.00    +0.000 C 
BRANCH  10  11
ATOM     11  C   UNL     1       2.741   4.061  18.287  0.00  0.00    +0.000 A 
ATOM     12  C   UNL     1       1.828   3.014  18.487  0.00  0.00    +0.000 A 
ATOM     13  C   UNL     1       0.942   3.027  19.566  0.00  0.00    +0.000 A 
ATOM     14  C   UNL     1       0.967   4.083  20.474  0.00  0.00    +0.000 A 
ATOM     15  C   UNL     1       1.887   5.116  20.306  0.00  0.00    +0.000 A 
ATOM     16  C   UNL     1       2.774   5.103  19.222  0.00  0.00    +0.000 A 
ENDBRANCH  10  11
ENDBRANCH   3   9
BRANCH   5  17
ATOM     17  C   UNL     1       8.030   5.608  13.501  0.00  0.00    +0.000 C 
ATOM     18  N   UNL     1       8.925   6.087  12.942  0.00  0.00    +0.000 NA
ENDBRANCH   5  17
TORSDOF 4
ENDMDL
MODEL 9
REMARK VINA RESULT:      -6.5      5.852      7.421
REMARK  Name = 
REMARK  5 active torsions:
REMARK  status: ('A' for Active; 'I' for Inactive)
REMARK    1  A    between atoms: C_1  and  N_2
REMARK    2  A    between atoms: N_2  and  C_3
REMARK    3  A    between atoms: C_5  and  C_6
REMARK    4  A    between atoms: C_7  and  C_8
REMARK    5  A    between atoms: C_15  and  C_16
REMARK                            x       y       z     vdW  Elec       q    Type
REMARK                         _______ _______ _______ _____ _____    ______ ____
ROOT
ATOM      1  C   UNL     1       3.139   5.115  19.470  0.00  0.00    +0.000 A 
ATOM      2  O   UNL     1       3.709   5.260  18.241  0.00  0.00    +0.000 OA
ATOM      3  C   UNL     1       4.167   4.002  17.873  0.00  0.00    +0.000 A 
ATOM      4  N   UNL     1       3.913   3.097  18.810  0.00  0.00    +0.000 NA
ATOM      5  C   UNL     1       3.276   3.790  19.813  0.00  0.00    +0.000 A 
ENDROOT
BRANCH   1   7
ATOM      6  C   UNL     1       2.429   7.439  19.217  0.00  0.00    +0.000 C 
ATOM      7  N   UNL     1       2.622   6.241  20.006  0.00  0.00    +0.000 N 
ATOM      8  H   UNL     1       2.779   6.398  20.999  0.00  0.00    +0.000 HD
ENDBRANCH   1   7
BRANCH   3   9
ATOM      9  C   UNL     1       4.811   3.728  16.631  0.00  0.00    +0.000 C 
ATOM     10  C   UNL     1       5.398   4.702  15.917  0.00  0.00    +0.000 C 
BRANCH  10  11
ATOM     11  C   UNL     1       6.019   4.536  14.589  0.00  0.00    +0.000 A 
ATOM     12  C   UNL     1       5.383   3.689  13.668  0.00  0.00    +0.000 A 
ATOM     13  C   UNL     1       5.921   3.472  12.398  0.00  0.00    +0.000 A 
ATOM     14  C   UNL     1       7.097   4.114  12.022  0.00  0.00    +0.000 A 
ATOM     15  C   UNL     1       7.726   4.981  12.914  0.00  0.00    +0.000 A 
ATOM     16  C   UNL     1       7.188   5.197  14.189  0.00  0.00    +0.000 A 
ENDBRANCH  10  11
ENDBRANCH   3   9
BRANCH   5  17
ATOM     17  C   UNL     1       2.862   3.150  21.019  0.00  0.00    +0.000 C 
ATOM     18  N   UNL     1       2.518   2.603  21.982  0.00  0.00    +0.000 NA
ENDBRANCH   5  17
TORSDOF 4
ENDMDL
