MODEL 1
REMARK VINA RESULT:      -6.7      0.000      0.000
REMARK  Name = 
REMARK  2 active torsions:
REMARK  status: ('A' for Active; 'I' for Inactive)
REMARK    1  A    between atoms: N_20  and  C_21
REMARK    2  A    between atoms: C_21  and  C_22
REMARK                            x       y       z     vdW  Elec       q    Type
REMARK                         _______ _______ _______ _____ _____    ______ ____
ROOT
ATOM      1  O   UNL     1       1.237  12.419  18.621  0.00  0.00    +0.000 OA
ATOM      2  C   UNL     1       0.526  11.566  19.157  0.00  0.00    +0.000 C 
ATOM      3  C   UNL     1       1.196  10.364  19.699  0.00  0.00    +0.000 A 
ATOM      4  C   UNL     1       1.698   9.449  18.769  0.00  0.00    +0.000 A 
ATOM      5  C   UNL     1       1.878   8.136  19.176  0.00  0.00    +0.000 A 
ATOM      6 CL   UNL     1       2.310   6.952  18.004  0.00  0.00    +0.000 Cl
ATOM      7  C   UNL     1       1.610   7.748  20.491  0.00  0.00    +0.000 A 
ATOM      8  C   UNL     1       1.188   8.694  21.431  0.00  0.00    +0.000 A 
ATOM      9  C   UNL     1       0.949  10.006  21.021  0.00  0.00    +0.000 A 
ATOM     10  O   UNL     1       0.541  10.909  21.959  0.00  0.00    +0.000 OA
ATOM     11  C   UNL     1      -0.744  11.412  21.909  0.00  0.00    +0.000 A 
ATOM     12  C   UNL     1      -1.376  11.407  23.170  0.00  0.00    +0.000 A 
ATOM     13  C   UNL     1      -2.639  11.955  23.350  0.00  0.00    +0.000 A 
ATOM     14  C   UNL     1      -3.257  12.578  22.284  0.00  0.00    +0.000 A 
ATOM     15  C   UNL     1      -2.645  12.591  21.025  0.00  0.00    +0.000 A 
ATOM     16  C   UNL     1      -1.399  11.963  20.784  0.00  0.00    +0.000 A 
ATOM     17  C   UNL     1      -0.999  11.612  19.318  0.00  0.00    +0.000 C 
ATOM     18  C   UNL     1      -1.663  10.213  19.147  0.00  0.00    +0.000 C 
ATOM     19  C   UNL     1      -1.781   9.678  17.738  0.00  0.00    +0.000 C 
ATOM     20  N   UNL     1      -2.299  10.580  16.733  0.00  0.00    +0.000 NA
ATOM     21  C   UNL     1      -1.641  11.895  16.806  0.00  0.00    +0.000 C 
ATOM     22  C   UNL     1      -1.570  12.547  18.204  0.00  0.00    +0.000 C 
ENDROOT
BRANCH  20  23
ATOM     23  C   UNL     1      -3.761  10.610  16.608  0.00  0.00    +0.000 C 
BRANCH  23  24
ATOM     24  C   UNL     1      -4.448  11.725  17.386  0.00  0.00    +0.000 C 
ATOM     25  C   UNL     1      -5.938  12.042  17.471  0.00  0.00    +0.000 C 
ATOM     26  C   UNL     1      -5.268  11.353  18.607  0.00  0.00    +0.000 C 
ENDBRANCH  23  24
ENDBRANCH  20  23
TORSDOF 2
ENDMDL
MODEL 2
REMARK VINA RESULT:      -6.7      3.000      5.144
REMARK  Name = 
REMARK  2 active torsions:
REMARK  status: ('A' for Active; 'I' for Inactive)
REMARK    1  A    between atoms: N_20  and  C_21
REMARK    2  A    between atoms: C_21  and  C_22
REMARK                            x       y       z     vdW  Elec       q    Type
REMARK                         _______ _______ _______ _____ _____    ______ ____
ROOT
ATOM      1  O   UNL     1       0.331  10.594  22.543  0.00  0.00    +0.000 OA
ATOM      2  C   UNL     1      -0.019  11.573  21.880  0.00  0.00    +0.000 C 
ATOM      3  C   UNL     1      -0.835  12.601  22.561  0.00  0.00    +0.000 A 
ATOM      4  C   UNL     1      -2.157  12.257  22.864  0.00  0.00    +0.000 A 
ATOM      5  C   UNL     1      -3.075  13.281  23.034  0.00  0.00    +0.000 A 
ATOM      6 CL   UNL     1      -4.740  12.885  23.216  0.00  0.00    +0.000 Cl
ATOM      7  C   UNL     1      -2.683  14.620  22.954  0.00  0.00    +0.000 A 
ATOM      8  C   UNL     1      -1.342  14.946  22.733  0.00  0.00    +0.000 A 
ATOM      9  C   UNL     1      -0.417  13.927  22.504  0.00  0.00    +0.000 A 
ATOM     10  O   UNL     1       0.885  14.274  22.294  0.00  0.00    +0.000 OA
ATOM     11  C   UNL     1       1.448  14.096  21.046  0.00  0.00    +0.000 A 
ATOM     12  C   UNL     1       2.182  15.222  20.618  0.00  0.00    +0.000 A 
ATOM     13  C   UNL     1       2.899  15.211  19.428  0.00  0.00    +0.000 A 
ATOM     14  C   UNL     1       2.947  14.047  18.687  0.00  0.00    +0.000 A 
ATOM     15  C   UNL     1       2.223  12.921  19.096  0.00  0.00    +0.000 A 
ATOM     16  C   UNL     1       1.409  12.925  20.254  0.00  0.00    +0.000 A 
ATOM     17  C   UNL     1       0.298  11.841  20.402  0.00  0.00    +0.000 C 
ATOM     18  C   UNL     1      -0.886  12.513  19.647  0.00  0.00    +0.000 C 
ATOM     19  C   UNL     1      -2.058  11.629  19.284  0.00  0.00    +0.000 C 
ATOM     20  N   UNL     1      -1.755  10.357  18.664  0.00  0.00    +0.000 NA
ATOM     21  C   UNL     1      -0.691   9.648  19.394  0.00  0.00    +0.000 C 
ATOM     22  C   UNL     1       0.579  10.466  19.715  0.00  0.00    +0.000 C 
ENDROOT
BRANCH  20  23
ATOM     23  C   UNL     1      -1.609  10.387  17.204  0.00  0.00    +0.000 C 
BRANCH  23  24
ATOM     24  C   UNL     1      -2.849   9.965  16.426  0.00  0.00    +0.000 C 
ATOM     25  C   UNL     1      -3.966  10.844  15.874  0.00  0.00    +0.000 C 
ATOM     26  C   UNL     1      -2.928  10.310  14.951  0.00  0.00    +0.000 C 
ENDBRANCH  23  24
ENDBRANCH  20  23
TORSDOF 2
ENDMDL
MODEL 3
REMARK VINA RESULT:      -6.6      3.386      5.469
REMARK  Name = 
REMARK  2 active torsions:
REMARK  status: ('A' for Active; 'I' for Inactive)
REMARK    1  A    between atoms: N_20  and  C_21
REMARK    2  A    between atoms: C_21  and  C_22
REMARK                            x       y       z     vdW  Elec       q    Type
REMARK                         _______ _______ _______ _____ _____    ______ ____
ROOT
ATOM      1  O   UNL     1      -0.379  11.053  23.054  0.00  0.00    +0.000 OA
ATOM      2  C   UNL     1      -0.777  12.097  22.531  0.00  0.00    +0.000 C 
ATOM      3  C   UNL     1      -1.726  12.927  23.304  0.00  0.00    +0.000 A 
ATOM      4  C   UNL     1      -3.026  12.432  23.446  0.00  0.00    +0.000 A 
ATOM      5  C   UNL     1      -4.044  13.336  23.707  0.00  0.00    +0.000 A 
ATOM      6 CL   UNL     1      -5.673  12.781  23.695  0.00  0.00    +0.000 Cl
ATOM      7  C   UNL     1      -3.772  14.696  23.872  0.00  0.00    +0.000 A 
ATOM      8  C   UNL     1      -2.456  15.162  23.810  0.00  0.00    +0.000 A 
ATOM      9  C   UNL     1      -1.429  14.274  23.492  0.00  0.00    +0.000 A 
ATOM     10  O   UNL     1      -0.154  14.755  23.441  0.00  0.00    +0.000 OA
ATOM     11  C   UNL     1       0.500  14.834  22.227  0.00  0.00    +0.000 A 
ATOM     12  C   UNL     1       1.151  16.071  22.042  0.00  0.00    +0.000 A 
ATOM     13  C   UNL     1       1.939  16.316  20.925  0.00  0.00    +0.000 A 
ATOM     14  C   UNL     1       2.141  15.299  20.012  0.00  0.00    +0.000 A 
ATOM     15  C   UNL     1       1.500  14.066  20.179  0.00  0.00    +0.000 A 
ATOM     16  C   UNL     1       0.619  13.811  21.257  0.00  0.00    +0.000 A 
ATOM     17  C   UNL     1      -0.395  12.631  21.145  0.00  0.00    +0.000 C 
ATOM     18  C   UNL     1      -1.587  13.322  20.418  0.00  0.00    +0.000 C 
ATOM     19  C   UNL     1      -2.647  12.418  19.829  0.00  0.00    +0.000 C 
ATOM     20  N   UNL     1      -2.190  11.296  19.039  0.00  0.00    +0.000 NA
ATOM     21  C   UNL     1      -1.112  10.564  19.725  0.00  0.00    +0.000 C 
ATOM     22  C   UNL     1       0.054  11.417  20.270  0.00  0.00    +0.000 C 
ENDROOT
BRANCH  20  23
ATOM     23  C   UNL     1      -1.956  11.580  17.618  0.00  0.00    +0.000 C 
BRANCH  23  24
ATOM     24  C   UNL     1      -3.048  11.085  16.678  0.00  0.00    +0.000 C 
ATOM     25  C   UNL     1      -2.943  10.766  15.190  0.00  0.00    +0.000 C 
ATOM     26  C   UNL     1      -2.976   9.654  16.178  0.00  0.00    +0.000 C 
ENDBRANCH  23  24
ENDBRANCH  20  23
TORSDOF 2
ENDMDL
MODEL 4
REMARK VINA RESULT:      -6.5      8.717     10.295
REMARK  Name = 
REMARK  2 active torsions:
REMARK  status: ('A' for Active; 'I' for Inactive)
REMARK    1  A    between atoms: N_20  and  C_21
REMARK    2  A    between atoms: C_21  and  C_22
REMARK                            x       y       z     vdW  Elec       q    Type
REMARK                         _______ _______ _______ _____ _____    ______ ____
ROOT
ATOM      1  O   UNL     1      10.726  15.949  21.050  0.00  0.00    +0.000 OA
ATOM      2  C   UNL     1      10.012  15.018  20.670  0.00  0.00    +0.000 C 
ATOM      3  C   UNL     1      10.671  13.898  19.964  0.00  0.00    +0.000 A 
ATOM      4  C   UNL     1      11.131  14.153  18.668  0.00  0.00    +0.000 A 
ATOM      5  C   UNL     1      11.294  13.078  17.809  0.00  0.00    +0.000 A 
ATOM      6 CL   UNL     1      11.673  13.381  16.158  0.00  0.00    +0.000 Cl
ATOM      7  C   UNL     1      11.052  11.771  18.240  0.00  0.00    +0.000 A 
ATOM      8  C   UNL     1      10.673  11.526  19.563  0.00  0.00    +0.000 A 
ATOM      9  C   UNL     1      10.450  12.603  20.422  0.00  0.00    +0.000 A 
ATOM     10  O   UNL     1      10.083  12.335  21.708  0.00  0.00    +0.000 OA
ATOM     11  C   UNL     1       8.808  12.648  22.135  0.00  0.00    +0.000 A 
ATOM     12  C   UNL     1       8.208  11.598  22.862  0.00  0.00    +0.000 A 
ATOM     13  C   UNL     1       6.961  11.748  23.454  0.00  0.00    +0.000 A 
ATOM     14  C   UNL     1       6.330  12.973  23.386  0.00  0.00    +0.000 A 
ATOM     15  C   UNL     1       6.910  14.025  22.667  0.00  0.00    +0.000 A 
ATOM     16  C   UNL     1       8.136  13.882  21.975  0.00  0.00    +0.000 A 
ATOM     17  C   UNL     1       8.492  14.897  20.846  0.00  0.00    +0.000 C 
ATOM     18  C   UNL     1       7.796  14.242  19.616  0.00  0.00    +0.000 C 
ATOM     19  C   UNL     1       7.632  15.101  18.383  0.00  0.00    +0.000 C 
ATOM     20  N   UNL     1       7.107  16.435  18.575  0.00  0.00    +0.000 NA
ATOM     21  C   UNL     1       7.793  17.124  19.682  0.00  0.00    +0.000 C 
ATOM     22  C   UNL     1       7.912  16.339  21.006  0.00  0.00    +0.000 C 
ENDROOT
BRANCH  20  23
ATOM     23  C   UNL     1       5.643  16.542  18.575  0.00  0.00    +0.000 C 
BRANCH  23  24
ATOM     24  C   UNL     1       4.919  15.419  17.841  0.00  0.00    +0.000 C 
ATOM     25  C   UNL     1       3.814  14.507  18.362  0.00  0.00    +0.000 C 
ATOM     26  C   UNL     1       3.469  15.631  17.450  0.00  0.00    +0.000 C 
ENDBRANCH  23  24
ENDBRANCH  20  23
TORSDOF 2
ENDMDL
MODEL 5
REMARK VINA RESULT:      -6.5      5.993      9.249
REMARK  Name = 
REMARK  2 active torsions:
REMARK  status: ('A' for Active; 'I' for Inactive)
REMARK    1  A    between atoms: N_20  and  C_21
REMARK    2  A    between atoms: C_21  and  C_22
REMARK                            x       y       z     vdW  Elec       q    Type
REMARK                         _______ _______ _______ _____ _____    ______ ____
ROOT
ATOM      1  O   UNL     1       6.362   5.136  19.951  0.00  0.00    +0.000 OA
ATOM      2  C   UNL     1       5.338   5.014  19.275  0.00  0.00    +0.000 C 
ATOM      3  C   UNL     1       4.300   4.084  19.770  0.00  0.00    +0.000 A 
ATOM      4  C   UNL     1       4.588   2.718  19.690  0.00  0.00    +0.000 A 
ATOM      5  C   UNL     1       3.527   1.827  19.667  0.00  0.00    +0.000 A 
ATOM      6 CL   UNL     1       3.844   0.161  19.376  0.00  0.00    +0.000 Cl
ATOM      7  C   UNL     1       2.208   2.277  19.768  0.00  0.00    +0.000 A 
ATOM      8  C   UNL     1       1.942   3.640  19.931  0.00  0.00    +0.000 A 
ATOM      9  C   UNL     1       2.996   4.552  19.899  0.00  0.00    +0.000 A 
ATOM     10  O   UNL     1       2.708   5.875  20.064  0.00  0.00    +0.000 OA
ATOM     11  C   UNL     1       2.861   6.746  19.002  0.00  0.00    +0.000 A 
ATOM     12  C   UNL     1       1.756   7.609  18.848  0.00  0.00    +0.000 A 
ATOM     13  C   UNL     1       1.753   8.619  17.894  0.00  0.00    +0.000 A 
ATOM     14  C   UNL     1       2.884   8.820  17.129  0.00  0.00    +0.000 A 
ATOM     15  C   UNL     1       3.988   7.971  17.267  0.00  0.00    +0.000 A 
ATOM     16  C   UNL     1       3.993   6.876  18.165  0.00  0.00    +0.000 A 
ATOM     17  C   UNL     1       5.023   5.726  17.952  0.00  0.00    +0.000 C 
ATOM     18  C   UNL     1       4.259   4.814  16.947  0.00  0.00    +0.000 C 
ATOM     19  C   UNL     1       5.065   3.750  16.237  0.00  0.00    +0.000 C 
ATOM     20  N   UNL     1       6.323   4.160  15.650  0.00  0.00    +0.000 NA
ATOM     21  C   UNL     1       7.116   4.961  16.597  0.00  0.00    +0.000 C 
ATOM     22  C   UNL     1       6.380   6.128  17.289  0.00  0.00    +0.000 C 
ENDROOT
BRANCH  20  23
ATOM     23  C   UNL     1       6.237   4.694  14.286  0.00  0.00    +0.000 C 
BRANCH  23  24
ATOM     24  C   UNL     1       6.249   3.641  13.184  0.00  0.00    +0.000 C 
ATOM     25  C   UNL     1       5.378   3.569  11.935  0.00  0.00    +0.000 C 
ATOM     26  C   UNL     1       6.787   4.032  11.820  0.00  0.00    +0.000 C 
ENDBRANCH  23  24
ENDBRANCH  20  23
TORSDOF 2
ENDMDL
MODEL 6
REMARK VINA RESULT:      -6.3      8.843     11.690
REMARK  Name = 
REMARK  2 active torsions:
REMARK  status: ('A' for Active; 'I' for Inactive)
REMARK    1  A    between atoms: N_20  and  C_21
REMARK    2  A    between atoms: C_21  and  C_22
REMARK                            x       y       z     vdW  Elec       q    Type
REMARK                         _______ _______ _______ _____ _____    ______ ____
ROOT
ATOM      1  O   UNL     1       9.265  16.874  20.661  0.00  0.00    +0.000 OA
ATOM      2  C   UNL     1       8.859  15.752  20.349  0.00  0.00    +0.000 C 
ATOM      3  C   UNL     1       7.765  15.675  19.357  0.00  0.00    +0.000 A 
ATOM      4  C   UNL     1       6.497  16.081  19.784  0.00  0.00    +0.000 A 
ATOM      5  C   UNL     1       5.391  15.590  19.108  0.00  0.00    +0.000 A 
ATOM      6 CL   UNL     1       3.821  15.919  19.730  0.00  0.00    +0.000 Cl
ATOM      7  C   UNL     1       5.540  14.751  18.001  0.00  0.00    +0.000 A 
ATOM      8  C   UNL     1       6.816  14.421  17.536  0.00  0.00    +0.000 A 
ATOM      9  C   UNL     1       7.937  14.862  18.241  0.00  0.00    +0.000 A 
ATOM     10  O   UNL     1       9.170  14.528  17.763  0.00  0.00    +0.000 OA
ATOM     11  C   UNL     1       9.959  13.641  18.467  0.00  0.00    +0.000 A 
ATOM     12  C   UNL     1      10.536  12.655  17.639  0.00  0.00    +0.000 A 
ATOM     13  C   UNL     1      11.434  11.722  18.140  0.00  0.00    +0.000 A 
ATOM     14  C   UNL     1      11.819  11.807  19.463  0.00  0.00    +0.000 A 
ATOM     15  C   UNL     1      11.255  12.777  20.300  0.00  0.00    +0.000 A 
ATOM     16  C   UNL     1      10.270  13.687  19.846  0.00  0.00    +0.000 A 
ATOM     17  C   UNL     1       9.367  14.410  20.891  0.00  0.00    +0.000 C 
ATOM     18  C   UNL     1       8.225  13.368  21.080  0.00  0.00    +0.000 C 
ATOM     19  C   UNL     1       7.313  13.558  22.272  0.00  0.00    +0.000 C 
ATOM     20  N   UNL     1       7.944  13.813  23.549  0.00  0.00    +0.000 NA
ATOM     21  C   UNL     1       8.981  14.852  23.433  0.00  0.00    +0.000 C 
ATOM     22  C   UNL     1      10.006  14.670  22.293  0.00  0.00    +0.000 C 
ENDROOT
BRANCH  20  23
ATOM     23  C   UNL     1       8.328  12.619  24.311  0.00  0.00    +0.000 C 
BRANCH  23  24
ATOM     24  C   UNL     1       7.161  11.803  24.853  0.00  0.00    +0.000 C 
ATOM     25  C   UNL     1       6.789  11.532  26.307  0.00  0.00    +0.000 C 
ATOM     26  C   UNL     1       6.018  12.538  25.528  0.00  0.00    +0.000 C 
ENDBRANCH  23  24
ENDBRANCH  20  23
TORSDOF 2
ENDMDL
MODEL 7
REMARK VINA RESULT:      -6.3     10.086     12.443
REMARK  Name = 
REMARK  2 active torsions:
REMARK  status: ('A' for Active; 'I' for Inactive)
REMARK    1  A    between atoms: N_20  and  C_21
REMARK    2  A    between atoms: C_21  and  C_22
REMARK                            x       y       z     vdW  Elec       q    Type
REMARK                         _______ _______ _______ _____ _____    ______ ____
ROOT
ATOM      1  O   UNL     1       7.215  14.667  17.465  0.00  0.00    +0.000 OA
ATOM      2  C   UNL     1       8.295  14.609  18.057  0.00  0.00    +0.000 C 
ATOM      3  C   UNL     1       9.178  13.462  17.755  0.00  0.00    +0.000 A 
ATOM      4  C   UNL     1       8.777  12.213  18.239  0.00  0.00    +0.000 A 
ATOM      5  C   UNL     1       9.747  11.240  18.419  0.00  0.00    +0.000 A 
ATOM      6 CL   UNL     1       9.314   9.764  19.191  0.00  0.00    +0.000 Cl
ATOM      7  C   UNL     1      11.081  11.484  18.081  0.00  0.00    +0.000 A 
ATOM      8  C   UNL     1      11.451  12.709  17.520  0.00  0.00    +0.000 A 
ATOM      9  C   UNL     1      10.495  13.717  17.386  0.00  0.00    +0.000 A 
ATOM     10  O   UNL     1      10.883  14.902  16.833  0.00  0.00    +0.000 OA
ATOM     11  C   UNL     1      10.936  16.038  17.617  0.00  0.00    +0.000 A 
ATOM     12  C   UNL     1      12.126  16.771  17.426  0.00  0.00    +0.000 A 
ATOM     13  C   UNL     1      12.333  17.992  18.056  0.00  0.00    +0.000 A 
ATOM     14  C   UNL     1      11.323  18.527  18.829  0.00  0.00    +0.000 A 
ATOM     15  C   UNL     1      10.136  17.812  19.030  0.00  0.00    +0.000 A 
ATOM     16  C   UNL     1       9.926  16.525  18.479  0.00  0.00    +0.000 A 
ATOM     17  C   UNL     1       8.827  15.607  19.095  0.00  0.00    +0.000 C 
ATOM     18  C   UNL     1       9.616  14.914  20.245  0.00  0.00    +0.000 C 
ATOM     19  C   UNL     1       8.803  14.187  21.292  0.00  0.00    +0.000 C 
ATOM     20  N   UNL     1       7.666  14.888  21.847  0.00  0.00    +0.000 NA
ATOM     21  C   UNL     1       6.844  15.494  20.786  0.00  0.00    +0.000 C 
ATOM     22  C   UNL     1       7.599  16.334  19.733  0.00  0.00    +0.000 C 
ENDROOT
BRANCH  20  23
ATOM     23  C   UNL     1       7.959  15.755  22.994  0.00  0.00    +0.000 C 
BRANCH  23  24
ATOM     24  C   UNL     1       9.286  15.473  23.688  0.00  0.00    +0.000 C 
ATOM     25  C   UNL     1      10.520  16.366  23.769  0.00  0.00    +0.000 C 
ATOM     26  C   UNL     1       9.621  16.249  24.948  0.00  0.00    +0.000 C 
ENDBRANCH  23  24
ENDBRANCH  20  23
TORSDOF 2
ENDMDL
MODEL 8
REMARK VINA RESULT:      -6.2      3.566      5.457
REMARK  Name = 
REMARK  2 active torsions:
REMARK  status: ('A' for Active; 'I' for Inactive)
REMARK    1  A    between atoms: N_20  and  C_21
REMARK    2  A    between atoms: C_21  and  C_22
REMARK                            x       y       z     vdW  Elec       q    Type
REMARK                         _______ _______ _______ _____ _____    ______ ____
ROOT
ATOM      1  O   UNL     1      -0.318  14.967  23.651  0.00  0.00    +0.000 OA
ATOM      2  C   UNL     1      -0.611  14.280  22.670  0.00  0.00    +0.000 C 
ATOM      3  C   UNL     1      -0.063  14.693  21.360  0.00  0.00    +0.000 A 
ATOM      4  C   UNL     1      -0.603  15.849  20.788  0.00  0.00    +0.000 A 
ATOM      5  C   UNL     1      -0.503  16.005  19.414  0.00  0.00    +0.000 A 
ATOM      6 CL   UNL     1      -1.324  17.318  18.663  0.00  0.00    +0.000 Cl
ATOM      7  C   UNL     1       0.161  15.059  18.630  0.00  0.00    +0.000 A 
ATOM      8  C   UNL     1       0.768  13.951  19.228  0.00  0.00    +0.000 A 
ATOM      9  C   UNL     1       0.626  13.752  20.602  0.00  0.00    +0.000 A 
ATOM     10  O   UNL     1       1.231  12.664  21.160  0.00  0.00    +0.000 OA
ATOM     11  C   UNL     1       0.460  11.629  21.650  0.00  0.00    +0.000 A 
ATOM     12  C   UNL     1       0.933  10.364  21.245  0.00  0.00    +0.000 A 
ATOM     13  C   UNL     1       0.348   9.190  21.704  0.00  0.00    +0.000 A 
ATOM     14  C   UNL     1      -0.672   9.269  22.631  0.00  0.00    +0.000 A 
ATOM     15  C   UNL     1      -1.155  10.517  23.043  0.00  0.00    +0.000 A 
ATOM     16  C   UNL     1      -0.645  11.732  22.527  0.00  0.00    +0.000 A 
ATOM     17  C   UNL     1      -1.500  13.029  22.658  0.00  0.00    +0.000 C 
ATOM     18  C   UNL     1      -2.391  12.938  21.384  0.00  0.00    +0.000 C 
ATOM     19  C   UNL     1      -3.594  13.852  21.322  0.00  0.00    +0.000 C 
ATOM     20  N   UNL     1      -4.440  13.907  22.494  0.00  0.00    +0.000 NA
ATOM     21  C   UNL     1      -3.642  14.073  23.720  0.00  0.00    +0.000 C 
ATOM     22  C   UNL     1      -2.451  13.107  23.896  0.00  0.00    +0.000 C 
ENDROOT
BRANCH  20  23
ATOM     23  C   UNL     1      -5.494  12.887  22.558  0.00  0.00    +0.000 C 
BRANCH  23  24
ATOM     24  C   UNL     1      -6.366  12.788  21.312  0.00  0.00    +0.000 C 
ATOM     25  C   UNL     1      -6.459  11.642  20.310  0.00  0.00    +0.000 C 
ATOM     26  C   UNL     1      -7.533  11.819  21.324  0.00  0.00    +0.000 C 
ENDBRANCH  23  24
ENDBRANCH  20  23
TORSDOF 2
ENDMDL
MODEL 9
REMARK VINA RESULT:      -6.1      9.622     12.003
REMARK  Name = 
REMARK  2 active torsions:
REMARK  status: ('A' for Active; 'I' for Inactive)
REMARK    1  A    between atoms: N_20  and  C_21
REMARK    2  A    between atoms: C_21  and  C_22
REMARK                            x       y       z     vdW  Elec       q    Type
REMARK                         _______ _______ _______ _____ _____    ______ ____
ROOT
ATOM      1  O   UNL     1       7.057  14.770  17.832  0.00  0.00    +0.000 OA
ATOM      2  C   UNL     1       8.142  14.566  18.381  0.00  0.00    +0.000 C 
ATOM      3  C   UNL     1       8.968  13.452  17.868  0.00  0.00    +0.000 A 
ATOM      4  C   UNL     1       8.518  12.156  18.142  0.00  0.00    +0.000 A 
ATOM      5  C   UNL     1       9.447  11.127  18.131  0.00  0.00    +0.000 A 
ATOM      6 CL   UNL     1       8.959   9.561  18.652  0.00  0.00    +0.000 Cl
ATOM      7  C   UNL     1      10.784  11.369  17.810  0.00  0.00    +0.000 A 
ATOM      8  C   UNL     1      11.201  12.656  17.457  0.00  0.00    +0.000 A 
ATOM      9  C   UNL     1      10.289  13.711  17.518  0.00  0.00    +0.000 A 
ATOM     10  O   UNL     1      10.722  14.956  17.166  0.00  0.00    +0.000 OA
ATOM     11  C   UNL     1      10.838  15.938  18.130  0.00  0.00    +0.000 A 
ATOM     12  C   UNL     1      12.057  16.642  18.039  0.00  0.00    +0.000 A 
ATOM     13  C   UNL     1      12.329  17.728  18.862  0.00  0.00    +0.000 A 
ATOM     14  C   UNL     1      11.355  18.165  19.737  0.00  0.00    +0.000 A 
ATOM     15  C   UNL     1      10.141  17.476  19.842  0.00  0.00    +0.000 A 
ATOM     16  C   UNL     1       9.865  16.312  19.085  0.00  0.00    +0.000 A 
ATOM     17  C   UNL     1       8.734  15.350  19.561  0.00  0.00    +0.000 C 
ATOM     18  C   UNL     1       9.509  14.438  20.558  0.00  0.00    +0.000 C 
ATOM     19  C   UNL     1       8.681  13.577  21.485  0.00  0.00    +0.000 C 
ATOM     20  N   UNL     1       7.585  14.220  22.177  0.00  0.00    +0.000 NA
ATOM     21  C   UNL     1       6.775  15.033  21.253  0.00  0.00    +0.000 C 
ATOM     22  C   UNL     1       7.551  16.007  20.341  0.00  0.00    +0.000 C 
ENDROOT
BRANCH  20  23
ATOM     23  C   UNL     1       7.935  14.865  23.447  0.00  0.00    +0.000 C 
BRANCH  23  24
ATOM     24  C   UNL     1       8.484  13.926  24.514  0.00  0.00    +0.000 C 
ATOM     25  C   UNL     1       7.862  13.548  25.854  0.00  0.00    +0.000 C 
ATOM     26  C   UNL     1       7.798  12.588  24.719  0.00  0.00    +0.000 C 
ENDBRANCH  23  24
ENDBRANCH  20  23
TORSDOF 2
ENDMDL
