MODEL 1
REMARK VINA RESULT:      -7.8      0.000      0.000
REMARK  Name = 
REMARK  6 active torsions:
REMARK  status: ('A' for Active; 'I' for Inactive)
REMARK    1  A    between atoms: C_1  and  C_2
REMARK    2  A    between atoms: C_2  and  N_3
REMARK    3  A    between atoms: C_7  and  C_8
REMARK    4  A    between atoms: C_11  and  N_12
REMARK    5  A    between atoms: N_21  and  C_22
REMARK    6  A    between atoms: C_22  and  C_23
REMARK                            x       y       z     vdW  Elec       q    Type
REMARK                         _______ _______ _______ _____ _____    ______ ____
ROOT
ATOM      1  N   UNL     1       4.475   4.935  17.878  0.00  0.00    +0.000 N 
ATOM      2  C   UNL     1       4.135   6.230  17.489  0.00  0.00    +0.000 C 
ATOM      3  O   UNL     1       4.721   6.827  16.585  0.00  0.00    +0.000 OA
ATOM      4  C   UNL     1       3.043   6.877  18.238  0.00  0.00    +0.000 C 
ATOM      5  C   UNL     1       2.661   8.079  17.752  0.00  0.00    +0.000 C 
ATOM      6  C   UNL     1       2.503   6.242  19.452  0.00  0.00    +0.000 C 
ATOM      7  O   UNL     1       1.731   6.836  20.204  0.00  0.00    +0.000 OA
ATOM      8  N   UNL     1       2.933   4.933  19.703  0.00  0.00    +0.000 N 
ATOM      9  C   UNL     1       3.833   4.200  18.896  0.00  0.00    +0.000 C 
ATOM     10  S   UNL     1       4.140   2.547  19.149  0.00  0.00    +0.000 S 
ENDROOT
BRANCH   5  11
ATOM     11  C   UNL     1       1.736   8.960  18.364  0.00  0.00    +0.000 A 
ATOM     12  C   UNL     1       0.529   9.417  17.854  0.00  0.00    +0.000 A 
ATOM     13  C   UNL     1      -0.091  10.192  18.856  0.00  0.00    +0.000 A 
ATOM     14  C   UNL     1       0.751  10.180  19.945  0.00  0.00    +0.000 A 
ATOM     15  O   UNL     1       1.852   9.433  19.648  0.00  0.00    +0.000 OA
BRANCH  14  16
ATOM     16  N   UNL     1       0.651  10.711  21.185  0.00  0.00    +0.000 N 
ATOM     17  C   UNL     1       0.747   9.878  22.390  0.00  0.00    +0.000 C 
ATOM     18  C   UNL     1      -0.619   9.801  23.093  0.00  0.00    +0.000 C 
ATOM     19  O   UNL     1      -1.148  11.110  23.370  0.00  0.00    +0.000 OA
ATOM     20  C   UNL     1      -1.309  11.849  22.145  0.00  0.00    +0.000 C 
ATOM     21  C   UNL     1       0.033  12.021  21.418  0.00  0.00    +0.000 C 
ENDBRANCH  14  16
ENDBRANCH   5  11
BRANCH   1  23
ATOM     22  C   UNL     1       6.959   4.680  17.752  0.00  0.00    +0.000 C 
ATOM     23  C   UNL     1       5.611   4.368  17.115  0.00  0.00    +0.000 C 
ENDBRANCH   1  23
BRANCH   8  24
ATOM     24  C   UNL     1       2.393   4.360  20.959  0.00  0.00    +0.000 C 
ATOM     25  C   UNL     1       1.117   3.549  20.759  0.00  0.00    +0.000 C 
ENDBRANCH   8  24
TORSDOF 4
ENDMDL
MODEL 2
REMARK VINA RESULT:      -7.4      2.223      2.944
REMARK  Name = 
REMARK  6 active torsions:
REMARK  status: ('A' for Active; 'I' for Inactive)
REMARK    1  A    between atoms: C_1  and  C_2
REMARK    2  A    between atoms: C_2  and  N_3
REMARK    3  A    between atoms: C_7  and  C_8
REMARK    4  A    between atoms: C_11  and  N_12
REMARK    5  A    between atoms: N_21  and  C_22
REMARK    6  A    between atoms: C_22  and  C_23
REMARK                            x       y       z     vdW  Elec       q    Type
REMARK                         _______ _______ _______ _____ _____    ______ ____
ROOT
ATOM      1  N   UNL     1       4.775   5.336  18.105  0.00  0.00    +0.000 N 
ATOM      2  C   UNL     1       4.411   6.573  17.575  0.00  0.00    +0.000 C 
ATOM      3  O   UNL     1       5.071   7.142  16.704  0.00  0.00    +0.000 OA
ATOM      4  C   UNL     1       3.196   7.196  18.131  0.00  0.00    +0.000 C 
ATOM      5  C   UNL     1       2.809   8.330  17.506  0.00  0.00    +0.000 C 
ATOM      6  C   UNL     1       2.545   6.614  19.317  0.00  0.00    +0.000 C 
ATOM      7  O   UNL     1       1.650   7.206  19.918  0.00  0.00    +0.000 OA
ATOM      8  N   UNL     1       3.017   5.359  19.722  0.00  0.00    +0.000 N 
ATOM      9  C   UNL     1       4.054   4.634  19.092  0.00  0.00    +0.000 C 
ATOM     10  S   UNL     1       4.423   3.028  19.512  0.00  0.00    +0.000 S 
ENDROOT
BRANCH   5  11
ATOM     11  C   UNL     1       1.763   9.187  17.928  0.00  0.00    +0.000 A 
ATOM     12  C   UNL     1       1.874  10.415  18.567  0.00  0.00    +0.000 A 
ATOM     13  C   UNL     1       0.574  10.945  18.700  0.00  0.00    +0.000 A 
ATOM     14  C   UNL     1      -0.287  10.031  18.136  0.00  0.00    +0.000 A 
ATOM     15  O   UNL     1       0.433   8.972  17.667  0.00  0.00    +0.000 OA
BRANCH  14  16
ATOM     16  N   UNL     1      -1.626  10.032  17.944  0.00  0.00    +0.000 N 
ATOM     17  C   UNL     1      -2.218   9.711  16.641  0.00  0.00    +0.000 C 
ATOM     18  C   UNL     1      -2.851  10.968  16.020  0.00  0.00    +0.000 C 
ATOM     19  O   UNL     1      -3.794  11.586  16.914  0.00  0.00    +0.000 OA
ATOM     20  C   UNL     1      -3.139  11.965  18.139  0.00  0.00    +0.000 C 
ATOM     21  C   UNL     1      -2.536  10.744  18.850  0.00  0.00    +0.000 C 
ENDBRANCH  14  16
ENDBRANCH   5  11
BRANCH   1  23
ATOM     22  C   UNL     1       7.260   5.194  18.339  0.00  0.00    +0.000 C 
ATOM     23  C   UNL     1       6.030   4.795  17.534  0.00  0.00    +0.000 C 
ENDBRANCH   1  23
BRANCH   8  24
ATOM     24  C   UNL     1       2.356   4.843  20.944  0.00  0.00    +0.000 C 
ATOM     25  C   UNL     1       1.122   3.995  20.657  0.00  0.00    +0.000 C 
ENDBRANCH   8  24
TORSDOF 4
ENDMDL
MODEL 3
REMARK VINA RESULT:      -7.4      2.021      2.727
REMARK  Name = 
REMARK  6 active torsions:
REMARK  status: ('A' for Active; 'I' for Inactive)
REMARK    1  A    between atoms: C_1  and  C_2
REMARK    2  A    between atoms: C_2  and  N_3
REMARK    3  A    between atoms: C_7  and  C_8
REMARK    4  A    between atoms: C_11  and  N_12
REMARK    5  A    between atoms: N_21  and  C_22
REMARK    6  A    between atoms: C_22  and  C_23
REMARK                            x       y       z     vdW  Elec       q    Type
REMARK                         _______ _______ _______ _____ _____    ______ ____
ROOT
ATOM      1  N   UNL     1       4.638   5.033  18.255  0.00  0.00    +0.000 N 
ATOM      2  C   UNL     1       4.274   6.304  17.813  0.00  0.00    +0.000 C 
ATOM      3  O   UNL     1       4.928   6.927  16.976  0.00  0.00    +0.000 OA
ATOM      4  C   UNL     1       3.068   6.893  18.421  0.00  0.00    +0.000 C 
ATOM      5  C   UNL     1       2.679   8.068  17.877  0.00  0.00    +0.000 C 
ATOM      6  C   UNL     1       2.426   6.236  19.572  0.00  0.00    +0.000 C 
ATOM      7  O   UNL     1       1.539   6.791  20.221  0.00  0.00    +0.000 OA
ATOM      8  N   UNL     1       2.895   4.955  19.888  0.00  0.00    +0.000 N 
ATOM      9  C   UNL     1       3.923   4.270  19.202  0.00  0.00    +0.000 C 
ATOM     10  S   UNL     1       4.289   2.638  19.510  0.00  0.00    +0.000 S 
ENDROOT
BRANCH   5  11
ATOM     11  C   UNL     1       1.642   8.899  18.366  0.00  0.00    +0.000 A 
ATOM     12  C   UNL     1       1.550   9.504  19.612  0.00  0.00    +0.000 A 
ATOM     13  C   UNL     1       0.396  10.315  19.610  0.00  0.00    +0.000 A 
ATOM     14  C   UNL     1      -0.177  10.184  18.365  0.00  0.00    +0.000 A 
ATOM     15  O   UNL     1       0.578   9.333  17.614  0.00  0.00    +0.000 OA
BRANCH  14  16
ATOM     16  N   UNL     1      -1.261  10.756  17.792  0.00  0.00    +0.000 N 
ATOM     17  C   UNL     1      -1.824  12.015  18.294  0.00  0.00    +0.000 C 
ATOM     18  C   UNL     1      -3.195  11.761  18.945  0.00  0.00    +0.000 C 
ATOM     19  O   UNL     1      -4.090  11.078  18.049  0.00  0.00    +0.000 OA
ATOM     20  C   UNL     1      -3.530   9.809  17.663  0.00  0.00    +0.000 C 
ATOM     21  C   UNL     1      -2.183   9.990  16.946  0.00  0.00    +0.000 C 
ENDBRANCH  14  16
ENDBRANCH   5  11
BRANCH   1  23
ATOM     22  C   UNL     1       5.650   3.911  16.264  0.00  0.00    +0.000 C 
ATOM     23  C   UNL     1       5.885   4.526  17.637  0.00  0.00    +0.000 C 
ENDBRANCH   1  23
BRANCH   8  24
ATOM     24  C   UNL     1       2.244   4.361  21.080  0.00  0.00    +0.000 C 
ATOM     25  C   UNL     1       1.107   3.405  20.740  0.00  0.00    +0.000 C 
ENDBRANCH   8  24
TORSDOF 4
ENDMDL
MODEL 4
REMARK VINA RESULT:      -7.2      1.468      1.858
REMARK  Name = 
REMARK  6 active torsions:
REMARK  status: ('A' for Active; 'I' for Inactive)
REMARK    1  A    between atoms: C_1  and  C_2
REMARK    2  A    between atoms: C_2  and  N_3
REMARK    3  A    between atoms: C_7  and  C_8
REMARK    4  A    between atoms: C_11  and  N_12
REMARK    5  A    between atoms: N_21  and  C_22
REMARK    6  A    between atoms: C_22  and  C_23
REMARK                            x       y       z     vdW  Elec       q    Type
REMARK                         _______ _______ _______ _____ _____    ______ ____
ROOT
ATOM      1  N   UNL     1       4.707   5.209  18.048  0.00  0.00    +0.000 N 
ATOM      2  C   UNL     1       4.374   6.460  17.531  0.00  0.00    +0.000 C 
ATOM      3  O   UNL     1       5.027   7.005  16.640  0.00  0.00    +0.000 OA
ATOM      4  C   UNL     1       3.202   7.128  18.125  0.00  0.00    +0.000 C 
ATOM      5  C   UNL     1       2.838   8.277  17.514  0.00  0.00    +0.000 C 
ATOM      6  C   UNL     1       2.568   6.570  19.332  0.00  0.00    +0.000 C 
ATOM      7  O   UNL     1       1.715   7.195  19.962  0.00  0.00    +0.000 OA
ATOM      8  N   UNL     1       3.004   5.297  19.721  0.00  0.00    +0.000 N 
ATOM      9  C   UNL     1       3.992   4.534  19.058  0.00  0.00    +0.000 C 
ATOM     10  S   UNL     1       4.313   2.915  19.465  0.00  0.00    +0.000 S 
ENDROOT
BRANCH   5  11
ATOM     11  C   UNL     1       1.841   9.173  17.970  0.00  0.00    +0.000 A 
ATOM     12  C   UNL     1       0.477   9.130  17.717  0.00  0.00    +0.000 A 
ATOM     13  C   UNL     1      -0.128  10.166  18.459  0.00  0.00    +0.000 A 
ATOM     14  C   UNL     1       0.882  10.805  19.142  0.00  0.00    +0.000 A 
ATOM     15  O   UNL     1       2.069  10.203  18.850  0.00  0.00    +0.000 OA
BRANCH  14  16
ATOM     16  N   UNL     1       0.882  11.828  20.028  0.00  0.00    +0.000 N 
ATOM     17  C   UNL     1      -0.315  12.178  20.801  0.00  0.00    +0.000 C 
ATOM     18  C   UNL     1      -0.874  13.532  20.331  0.00  0.00    +0.000 C 
ATOM     19  O   UNL     1       0.128  14.564  20.372  0.00  0.00    +0.000 OA
ATOM     20  C   UNL     1       1.236  14.211  19.524  0.00  0.00    +0.000 C 
ATOM     21  C   UNL     1       1.888  12.896  19.975  0.00  0.00    +0.000 C 
ENDBRANCH  14  16
ENDBRANCH   5  11
BRANCH   1  23
ATOM     22  C   UNL     1       7.197   5.018  18.170  0.00  0.00    +0.000 C 
ATOM     23  C   UNL     1       5.922   4.622  17.437  0.00  0.00    +0.000 C 
ENDBRANCH   1  23
BRANCH   8  24
ATOM     24  C   UNL     1       2.363   4.805  20.964  0.00  0.00    +0.000 C 
ATOM     25  C   UNL     1       1.102   3.986  20.715  0.00  0.00    +0.000 C 
ENDBRANCH   8  24
TORSDOF 4
ENDMDL
MODEL 5
REMARK VINA RESULT:      -7.0      3.662      8.155
REMARK  Name = 
REMARK  6 active torsions:
REMARK  status: ('A' for Active; 'I' for Inactive)
REMARK    1  A    between atoms: C_1  and  C_2
REMARK    2  A    between atoms: C_2  and  N_3
REMARK    3  A    between atoms: C_7  and  C_8
REMARK    4  A    between atoms: C_11  and  N_12
REMARK    5  A    between atoms: N_21  and  C_22
REMARK    6  A    between atoms: C_22  and  C_23
REMARK                            x       y       z     vdW  Elec       q    Type
REMARK                         _______ _______ _______ _____ _____    ______ ____
ROOT
ATOM      1  N   UNL     1      -2.648  12.284  19.784  0.00  0.00    +0.000 N 
ATOM      2  C   UNL     1      -1.346  11.902  20.108  0.00  0.00    +0.000 C 
ATOM      3  O   UNL     1      -0.686  12.468  20.980  0.00  0.00    +0.000 OA
ATOM      4  C   UNL     1      -0.773  10.789  19.330  0.00  0.00    +0.000 C 
ATOM      5  C   UNL     1       0.437  10.367  19.757  0.00  0.00    +0.000 C 
ATOM      6  C   UNL     1      -1.486  10.270  18.150  0.00  0.00    +0.000 C 
ATOM      7  O   UNL     1      -0.956   9.478  17.371  0.00  0.00    +0.000 OA
ATOM      8  N   UNL     1      -2.791  10.743  17.965  0.00  0.00    +0.000 N 
ATOM      9  C   UNL     1      -3.453  11.666  18.805  0.00  0.00    +0.000 C 
ATOM     10  S   UNL     1      -5.106  12.027  18.635  0.00  0.00    +0.000 S 
ENDROOT
BRANCH   5  11
ATOM     11  C   UNL     1       1.256   9.414  19.103  0.00  0.00    +0.000 A 
ATOM     12  C   UNL     1       1.967   9.570  17.921  0.00  0.00    +0.000 A 
ATOM     13  C   UNL     1       2.714   8.391  17.714  0.00  0.00    +0.000 A 
ATOM     14  C   UNL     1       2.440   7.557  18.774  0.00  0.00    +0.000 A 
ATOM     15  O   UNL     1       1.563   8.177  19.614  0.00  0.00    +0.000 OA
BRANCH  14  16
ATOM     16  N   UNL     1       2.900   6.332  19.118  0.00  0.00    +0.000 N 
ATOM     17  C   UNL     1       3.771   5.559  18.225  0.00  0.00    +0.000 C 
ATOM     18  C   UNL     1       3.019   4.332  17.681  0.00  0.00    +0.000 C 
ATOM     19  O   UNL     1       2.469   3.531  18.742  0.00  0.00    +0.000 OA
ATOM     20  C   UNL     1       1.552   4.314  19.528  0.00  0.00    +0.000 C 
ATOM     21  C   UNL     1       2.253   5.527  20.159  0.00  0.00    +0.000 C 
ENDBRANCH  14  16
ENDBRANCH   5  11
BRANCH   1  23
ATOM     22  C   UNL     1      -3.822  13.016  21.866  0.00  0.00    +0.000 C 
ATOM     23  C   UNL     1      -3.138  13.438  20.572  0.00  0.00    +0.000 C 
ENDBRANCH   1  23
BRANCH   8  24
ATOM     24  C   UNL     1      -3.443  10.221  16.740  0.00  0.00    +0.000 C 
ATOM     25  C   UNL     1      -3.202  11.084  15.507  0.00  0.00    +0.000 C 
ENDBRANCH   8  24
TORSDOF 4
ENDMDL
MODEL 6
REMARK VINA RESULT:      -6.9      1.618      2.308
REMARK  Name = 
REMARK  6 active torsions:
REMARK  status: ('A' for Active; 'I' for Inactive)
REMARK    1  A    between atoms: C_1  and  C_2
REMARK    2  A    between atoms: C_2  and  N_3
REMARK    3  A    between atoms: C_7  and  C_8
REMARK    4  A    between atoms: C_11  and  N_12
REMARK    5  A    between atoms: N_21  and  C_22
REMARK    6  A    between atoms: C_22  and  C_23
REMARK                            x       y       z     vdW  Elec       q    Type
REMARK                         _______ _______ _______ _____ _____    ______ ____
ROOT
ATOM      1  N   UNL     1       4.093   4.439  18.106  0.00  0.00    +0.000 N 
ATOM      2  C   UNL     1       3.928   5.816  18.254  0.00  0.00    +0.000 C 
ATOM      3  O   UNL     1       4.704   6.634  17.760  0.00  0.00    +0.000 OA
ATOM      4  C   UNL     1       2.780   6.258  19.066  0.00  0.00    +0.000 C 
ATOM      5  C   UNL     1       2.582   7.594  19.082  0.00  0.00    +0.000 C 
ATOM      6  C   UNL     1       1.994   5.273  19.830  0.00  0.00    +0.000 C 
ATOM      7  O   UNL     1       1.155   5.620  20.661  0.00  0.00    +0.000 OA
ATOM      8  N   UNL     1       2.270   3.927  19.562  0.00  0.00    +0.000 N 
ATOM      9  C   UNL     1       3.232   3.458  18.639  0.00  0.00    +0.000 C 
ATOM     10  S   UNL     1       3.359   1.817  18.214  0.00  0.00    +0.000 S 
ENDROOT
BRANCH   5  11
ATOM     11  C   UNL     1       1.641   8.279  19.890  0.00  0.00    +0.000 A 
ATOM     12  C   UNL     1       1.532   8.261  21.273  0.00  0.00    +0.000 A 
ATOM     13  C   UNL     1       0.515   9.169  21.633  0.00  0.00    +0.000 A 
ATOM     14  C   UNL     1       0.039   9.715  20.463  0.00  0.00    +0.000 A 
ATOM     15  O   UNL     1       0.722   9.180  19.411  0.00  0.00    +0.000 OA
BRANCH  14  16
ATOM     16  N   UNL     1      -0.895  10.660  20.207  0.00  0.00    +0.000 N 
ATOM     17  C   UNL     1      -1.362  10.933  18.844  0.00  0.00    +0.000 C 
ATOM     18  C   UNL     1      -0.873  12.317  18.382  0.00  0.00    +0.000 C 
ATOM     19  O   UNL     1      -1.250  13.351  19.310  0.00  0.00    +0.000 OA
ATOM     20  C   UNL     1      -0.687  13.080  20.607  0.00  0.00    +0.000 C 
ATOM     21  C   UNL     1      -1.185  11.737  21.161  0.00  0.00    +0.000 C 
ENDBRANCH  14  16
ENDBRANCH   5  11
BRANCH   1  23
ATOM     22  C   UNL     1       5.067   4.183  15.818  0.00  0.00    +0.000 C 
ATOM     23  C   UNL     1       5.293   4.070  17.320  0.00  0.00    +0.000 C 
ENDBRANCH   1  23
BRANCH   8  24
ATOM     24  C   UNL     1       1.481   2.983  20.389  0.00  0.00    +0.000 C 
ATOM     25  C   UNL     1       2.165   2.601  21.697  0.00  0.00    +0.000 C 
ENDBRANCH   8  24
TORSDOF 4
ENDMDL
MODEL 7
REMARK VINA RESULT:      -6.9      3.130      7.780
REMARK  Name = 
REMARK  6 active torsions:
REMARK  status: ('A' for Active; 'I' for Inactive)
REMARK    1  A    between atoms: C_1  and  C_2
REMARK    2  A    between atoms: C_2  and  N_3
REMARK    3  A    between atoms: C_7  and  C_8
REMARK    4  A    between atoms: C_11  and  N_12
REMARK    5  A    between atoms: N_21  and  C_22
REMARK    6  A    between atoms: C_22  and  C_23
REMARK                            x       y       z     vdW  Elec       q    Type
REMARK                         _______ _______ _______ _____ _____    ______ ____
ROOT
ATOM      1  N   UNL     1      -0.660  11.398  21.014  0.00  0.00    +0.000 N 
ATOM      2  C   UNL     1       0.396  10.495  21.135  0.00  0.00    +0.000 C 
ATOM      3  O   UNL     1       1.095  10.424  22.146  0.00  0.00    +0.000 OA
ATOM      4  C   UNL     1       0.664   9.634  19.969  0.00  0.00    +0.000 C 
ATOM      5  C   UNL     1       1.610   8.690  20.171  0.00  0.00    +0.000 C 
ATOM      6  C   UNL     1      -0.032   9.880  18.694  0.00  0.00    +0.000 C 
ATOM      7  O   UNL     1       0.301   9.310  17.656  0.00  0.00    +0.000 OA
ATOM      8  N   UNL     1      -1.078  10.809  18.736  0.00  0.00    +0.000 N 
ATOM      9  C   UNL     1      -1.498  11.516  19.886  0.00  0.00    +0.000 C 
ATOM     10  S   UNL     1      -2.909  12.464  19.904  0.00  0.00    +0.000 S 
ENDROOT
BRANCH   5  11
ATOM     11  C   UNL     1       2.145   7.834  19.178  0.00  0.00    +0.000 A 
ATOM     12  C   UNL     1       2.986   8.170  18.126  0.00  0.00    +0.000 A 
ATOM     13  C   UNL     1       3.336   6.976  17.461  0.00  0.00    +0.000 A 
ATOM     14  C   UNL     1       2.704   5.951  18.128  0.00  0.00    +0.000 A 
ATOM     15  O   UNL     1       1.989   6.469  19.167  0.00  0.00    +0.000 OA
BRANCH  14  16
ATOM     16  N   UNL     1       2.713   4.608  17.962  0.00  0.00    +0.000 N 
ATOM     17  C   UNL     1       1.483   3.813  18.046  0.00  0.00    +0.000 C 
ATOM     18  C   UNL     1       1.503   2.935  19.309  0.00  0.00    +0.000 C 
ATOM     19  O   UNL     1       2.689   2.122  19.372  0.00  0.00    +0.000 OA
ATOM     20  C   UNL     1       3.861   2.957  19.381  0.00  0.00    +0.000 C 
ATOM     21  C   UNL     1       3.941   3.820  18.112  0.00  0.00    +0.000 C 
ENDBRANCH  14  16
ENDBRANCH   5  11
BRANCH   1  23
ATOM     22  C   UNL     1      -1.796  11.665  23.224  0.00  0.00    +0.000 C 
ATOM     23  C   UNL     1      -0.837  12.262  22.203  0.00  0.00    +0.000 C 
ENDBRANCH   1  23
BRANCH   8  24
ATOM     24  C   UNL     1      -1.712  11.049  17.418  0.00  0.00    +0.000 C 
ATOM     25  C   UNL     1      -2.827  10.063  17.089  0.00  0.00    +0.000 C 
ENDBRANCH   8  24
TORSDOF 4
ENDMDL
MODEL 8
REMARK VINA RESULT:      -6.8      1.603      1.903
REMARK  Name = 
REMARK  6 active torsions:
REMARK  status: ('A' for Active; 'I' for Inactive)
REMARK    1  A    between atoms: C_1  and  C_2
REMARK    2  A    between atoms: C_2  and  N_3
REMARK    3  A    between atoms: C_7  and  C_8
REMARK    4  A    between atoms: C_11  and  N_12
REMARK    5  A    between atoms: N_21  and  C_22
REMARK    6  A    between atoms: C_22  and  C_23
REMARK                            x       y       z     vdW  Elec       q    Type
REMARK                         _______ _______ _______ _____ _____    ______ ____
ROOT
ATOM      1  N   UNL     1       4.717   5.342  18.067  0.00  0.00    +0.000 N 
ATOM      2  C   UNL     1       4.398   6.579  17.509  0.00  0.00    +0.000 C 
ATOM      3  O   UNL     1       5.073   7.101  16.622  0.00  0.00    +0.000 OA
ATOM      4  C   UNL     1       3.211   7.262  18.056  0.00  0.00    +0.000 C 
ATOM      5  C   UNL     1       2.863   8.394  17.406  0.00  0.00    +0.000 C 
ATOM      6  C   UNL     1       2.546   6.734  19.259  0.00  0.00    +0.000 C 
ATOM      7  O   UNL     1       1.677   7.375  19.851  0.00  0.00    +0.000 OA
ATOM      8  N   UNL     1       2.971   5.473  19.693  0.00  0.00    +0.000 N 
ATOM      9  C   UNL     1       3.976   4.693  19.076  0.00  0.00    +0.000 C 
ATOM     10  S   UNL     1       4.285   3.085  19.533  0.00  0.00    +0.000 S 
ENDROOT
BRANCH   5  11
ATOM     11  C   UNL     1       1.854   9.302  17.813  0.00  0.00    +0.000 A 
ATOM     12  C   UNL     1       0.489   9.073  17.902  0.00  0.00    +0.000 A 
ATOM     13  C   UNL     1      -0.104  10.232  18.446  0.00  0.00    +0.000 A 
ATOM     14  C   UNL     1       0.916  11.127  18.675  0.00  0.00    +0.000 A 
ATOM     15  O   UNL     1       2.098  10.564  18.296  0.00  0.00    +0.000 OA
BRANCH  14  16
ATOM     16  N   UNL     1       0.941  12.366  19.218  0.00  0.00    +0.000 N 
ATOM     17  C   UNL     1       2.192  13.119  19.365  0.00  0.00    +0.000 C 
ATOM     18  C   UNL     1       2.567  13.242  20.852  0.00  0.00    +0.000 C 
ATOM     19  O   UNL     1       1.493  13.805  21.626  0.00  0.00    +0.000 OA
ATOM     20  C   UNL     1       0.320  12.977  21.521  0.00  0.00    +0.000 C 
ATOM     21  C   UNL     1      -0.152  12.862  20.063  0.00  0.00    +0.000 C 
ENDBRANCH  14  16
ENDBRANCH   5  11
BRANCH   1  23
ATOM     22  C   UNL     1       7.200   5.138  18.271  0.00  0.00    +0.000 C 
ATOM     23  C   UNL     1       5.947   4.740  17.503  0.00  0.00    +0.000 C 
ENDBRANCH   1  23
BRANCH   8  24
ATOM     24  C   UNL     1       2.299   5.012  20.931  0.00  0.00    +0.000 C 
ATOM     25  C   UNL     1       1.123   4.076  20.674  0.00  0.00    +0.000 C 
ENDBRANCH   8  24
TORSDOF 4
ENDMDL
MODEL 9
REMARK VINA RESULT:      -6.6      2.870      7.095
REMARK  Name = 
REMARK  6 active torsions:
REMARK  status: ('A' for Active; 'I' for Inactive)
REMARK    1  A    between atoms: C_1  and  C_2
REMARK    2  A    between atoms: C_2  and  N_3
REMARK    3  A    between atoms: C_7  and  C_8
REMARK    4  A    between atoms: C_11  and  N_12
REMARK    5  A    between atoms: N_21  and  C_22
REMARK    6  A    between atoms: C_22  and  C_23
REMARK                            x       y       z     vdW  Elec       q    Type
REMARK                         _______ _______ _______ _____ _____    ______ ____
ROOT
ATOM      1  N   UNL     1      -0.483  11.074  19.541  0.00  0.00    +0.000 N 
ATOM      2  C   UNL     1      -0.017  10.273  18.499  0.00  0.00    +0.000 C 
ATOM      3  O   UNL     1      -0.417  10.393  17.341  0.00  0.00    +0.000 OA
ATOM      4  C   UNL     1       0.971   9.238  18.855  0.00  0.00    +0.000 C 
ATOM      5  C   UNL     1       1.489   8.568  17.802  0.00  0.00    +0.000 C 
ATOM      6  C   UNL     1       1.272   8.961  20.270  0.00  0.00    +0.000 C 
ATOM      7  O   UNL     1       1.941   7.985  20.609  0.00  0.00    +0.000 OA
ATOM      8  N   UNL     1       0.740   9.863  21.199  0.00  0.00    +0.000 N 
ATOM      9  C   UNL     1      -0.054  10.989  20.882  0.00  0.00    +0.000 C 
ATOM     10  S   UNL     1      -0.483  12.153  22.044  0.00  0.00    +0.000 S 
ENDROOT
BRANCH   5  11
ATOM     11  C   UNL     1       2.346   7.443  17.881  0.00  0.00    +0.000 A 
ATOM     12  C   UNL     1       3.731   7.420  17.797  0.00  0.00    +0.000 A 
ATOM     13  C   UNL     1       4.150   6.093  18.030  0.00  0.00    +0.000 A 
ATOM     14  C   UNL     1       3.012   5.351  18.252  0.00  0.00    +0.000 A 
ATOM     15  O   UNL     1       1.924   6.168  18.166  0.00  0.00    +0.000 OA
BRANCH  14  16
ATOM     16  N   UNL     1       2.815   4.050  18.565  0.00  0.00    +0.000 N 
ATOM     17  C   UNL     1       1.539   3.376  18.293  0.00  0.00    +0.000 C 
ATOM     18  C   UNL     1       0.815   3.059  19.612  0.00  0.00    +0.000 C 
ATOM     19  O   UNL     1       1.652   2.309  20.511  0.00  0.00    +0.000 OA
ATOM     20  C   UNL     1       2.844   3.056  20.817  0.00  0.00    +0.000 C 
ATOM     21  C   UNL     1       3.655   3.355  19.547  0.00  0.00    +0.000 C 
ENDBRANCH  14  16
ENDBRANCH   5  11
BRANCH   1  23
ATOM     22  C   UNL     1      -0.899  13.369  18.644  0.00  0.00    +0.000 C 
ATOM     23  C   UNL     1      -1.507  12.056  19.118  0.00  0.00    +0.000 C 
ENDBRANCH   1  23
BRANCH   8  24
ATOM     24  C   UNL     1       1.038   9.510  22.607  0.00  0.00    +0.000 C 
ATOM     25  C   UNL     1      -0.207   9.240  23.444  0.00  0.00    +0.000 C 
ENDBRANCH   8  24
TORSDOF 4
ENDMDL
