MODEL 1
REMARK VINA RESULT:      -5.9      0.000      0.000
REMARK  Name = 
REMARK  4 active torsions:
REMARK  status: ('A' for Active; 'I' for Inactive)
REMARK    1  A    between atoms: N_1  and  C_2
REMARK    2  A    between atoms: C_2  and  N_4
REMARK    3  A    between atoms: N_4  and  N_5
REMARK    4  A    between atoms: C_6  and  C_7
REMARK                            x       y       z     vdW  Elec       q    Type
REMARK                         _______ _______ _______ _____ _____    ______ ____
ROOT
ATOM      1  N   UNL     1       5.566   3.981  13.877  0.00  0.00    +0.000 NA
ATOM      2  C   UNL     1       5.894   4.050  15.120  0.00  0.00    +0.000 C 
ENDROOT
BRANCH   2   3
ATOM      3  C   UNL     1       5.073   4.812  16.087  0.00  0.00    +0.000 A 
ATOM      4  C   UNL     1       5.240   6.197  16.264  0.00  0.00    +0.000 A 
ATOM      5  C   UNL     1       4.454   6.890  17.189  0.00  0.00    +0.000 A 
ATOM      6  C   UNL     1       3.495   6.212  17.949  0.00  0.00    +0.000 A 
ATOM      7 CL   UNL     1       2.528   7.117  19.107  0.00  0.00    +0.000 Cl
ATOM      8  C   UNL     1       3.321   4.829  17.779  0.00  0.00    +0.000 A 
ATOM      9 CL   UNL     1       2.127   3.938  18.713  0.00  0.00    +0.000 Cl
ATOM     10  C   UNL     1       4.108   4.136  16.851  0.00  0.00    +0.000 A 
ENDBRANCH   2   3
BRANCH   1  11
ATOM     11  N   UNL     1       6.327   3.280  12.968  0.00  0.00    +0.000 N 
ATOM     12  H   UNL     1       7.355   3.255  13.061  0.00  0.00    +0.000 HD
BRANCH  11  13
ATOM     13  C   UNL     1       5.714   2.584  11.890  0.00  0.00    +0.000 C 
ATOM     14 SE   UNL     1       4.211   3.179  11.227  0.00  0.00    +0.000 Se
BRANCH  13  15
ATOM     15  N   UNL     1       6.304   1.415  11.346  0.00  0.00    +0.000 N 
ATOM     16  H   UNL     1       5.855   0.922  10.559  0.00  0.00    +0.000 HD
ATOM     17  H   UNL     1       7.184   1.038  11.724  0.00  0.00    +0.000 HD
ENDBRANCH  13  15
ENDBRANCH  11  13
ENDBRANCH   1  11
TORSDOF 4
ENDMDL
MODEL 2
REMARK VINA RESULT:      -5.9      2.568      2.914
REMARK  Name = 
REMARK  4 active torsions:
REMARK  status: ('A' for Active; 'I' for Inactive)
REMARK    1  A    between atoms: N_1  and  C_2
REMARK    2  A    between atoms: C_2  and  N_4
REMARK    3  A    between atoms: N_4  and  N_5
REMARK    4  A    between atoms: C_6  and  C_7
REMARK                            x       y       z     vdW  Elec       q    Type
REMARK                         _______ _______ _______ _____ _____    ______ ____
ROOT
ATOM      1  N   UNL     1       6.273   5.051  16.268  0.00  0.00    +0.000 NA
ATOM      2  C   UNL     1       5.306   5.844  16.574  0.00  0.00    +0.000 C 
ENDROOT
BRANCH   2   3
ATOM      3  C   UNL     1       4.204   5.402  17.456  0.00  0.00    +0.000 A 
ATOM      4  C   UNL     1       3.438   6.322  18.197  0.00  0.00    +0.000 A 
ATOM      5  C   UNL     1       2.407   5.874  19.027  0.00  0.00    +0.000 A 
ATOM      6  C   UNL     1       2.126   4.508  19.129  0.00  0.00    +0.000 A 
ATOM      7 CL   UNL     1       0.822   3.983  20.188  0.00  0.00    +0.000 Cl
ATOM      8  C   UNL     1       2.883   3.583  18.393  0.00  0.00    +0.000 A 
ATOM      9 CL   UNL     1       2.563   1.856  18.493  0.00  0.00    +0.000 Cl
ATOM     10  C   UNL     1       3.916   4.032  17.562  0.00  0.00    +0.000 A 
ENDBRANCH   2   3
BRANCH   1  11
ATOM     11  N   UNL     1       7.300   5.450  15.441  0.00  0.00    +0.000 N 
ATOM     12  H   UNL     1       8.072   6.026  15.813  0.00  0.00    +0.000 HD
BRANCH  11  13
ATOM     13  C   UNL     1       7.314   5.078  14.069  0.00  0.00    +0.000 C 
ATOM     14 SE   UNL     1       6.190   3.870  13.494  0.00  0.00    +0.000 Se
BRANCH  13  15
ATOM     15  N   UNL     1       8.227   5.673  13.160  0.00  0.00    +0.000 N 
ATOM     16  H   UNL     1       8.522   5.167  12.312  0.00  0.00    +0.000 HD
ATOM     17  H   UNL     1       8.610   6.613  13.331  0.00  0.00    +0.000 HD
ENDBRANCH  13  15
ENDBRANCH  11  13
ENDBRANCH   1  11
TORSDOF 4
ENDMDL
MODEL 3
REMARK VINA RESULT:      -5.8      2.442      3.249
REMARK  Name = 
REMARK  4 active torsions:
REMARK  status: ('A' for Active; 'I' for Inactive)
REMARK    1  A    between atoms: N_1  and  C_2
REMARK    2  A    between atoms: C_2  and  N_4
REMARK    3  A    between atoms: N_4  and  N_5
REMARK    4  A    between atoms: C_6  and  C_7
REMARK                            x       y       z     vdW  Elec       q    Type
REMARK                         _______ _______ _______ _____ _____    ______ ____
ROOT
ATOM      1  N   UNL     1       6.235   4.518  16.288  0.00  0.00    +0.000 NA
ATOM      2  C   UNL     1       5.305   5.294  16.726  0.00  0.00    +0.000 C 
ENDROOT
BRANCH   2   3
ATOM      3  C   UNL     1       4.160   4.760  17.494  0.00  0.00    +0.000 A 
ATOM      4  C   UNL     1       3.611   3.494  17.215  0.00  0.00    +0.000 A 
ATOM      5  C   UNL     1       2.525   3.018  17.954  0.00  0.00    +0.000 A 
ATOM      6  C   UNL     1       1.973   3.794  18.978  0.00  0.00    +0.000 A 
ATOM      7 CL   UNL     1       0.603   3.162  19.883  0.00  0.00    +0.000 Cl
ATOM      8  C   UNL     1       2.514   5.058  19.265  0.00  0.00    +0.000 A 
ATOM      9 CL   UNL     1       1.850   6.066  20.543  0.00  0.00    +0.000 Cl
ATOM     10  C   UNL     1       3.602   5.534  18.524  0.00  0.00    +0.000 A 
ENDBRANCH   2   3
BRANCH   1  11
ATOM     11  N   UNL     1       7.301   5.005  15.565  0.00  0.00    +0.000 N 
ATOM     12  H   UNL     1       8.102   5.441  16.050  0.00  0.00    +0.000 HD
BRANCH  11  13
ATOM     13  C   UNL     1       7.317   4.917  14.146  0.00  0.00    +0.000 C 
ATOM     14 SE   UNL     1       6.208   3.836  13.339  0.00  0.00    +0.000 Se
BRANCH  13  15
ATOM     15  N   UNL     1       8.220   5.695  13.376  0.00  0.00    +0.000 N 
ATOM     16  H   UNL     1       8.799   5.252  12.647  0.00  0.00    +0.000 HD
ATOM     17  H   UNL     1       8.314   6.709  13.531  0.00  0.00    +0.000 HD
ENDBRANCH  13  15
ENDBRANCH  11  13
ENDBRANCH   1  11
TORSDOF 4
ENDMDL
MODEL 4
REMARK VINA RESULT:      -5.8      2.802      3.770
REMARK  Name = 
REMARK  4 active torsions:
REMARK  status: ('A' for Active; 'I' for Inactive)
REMARK    1  A    between atoms: N_1  and  C_2
REMARK    2  A    between atoms: C_2  and  N_4
REMARK    3  A    between atoms: N_4  and  N_5
REMARK    4  A    between atoms: C_6  and  C_7
REMARK                            x       y       z     vdW  Elec       q    Type
REMARK                         _______ _______ _______ _____ _____    ______ ____
ROOT
ATOM      1  N   UNL     1       6.439   4.380  17.072  0.00  0.00    +0.000 NA
ATOM      2  C   UNL     1       5.730   5.151  17.820  0.00  0.00    +0.000 C 
ENDROOT
BRANCH   2   3
ATOM      3  C   UNL     1       4.713   4.599  18.742  0.00  0.00    +0.000 A 
ATOM      4  C   UNL     1       4.699   3.237  19.095  0.00  0.00    +0.000 A 
ATOM      5  C   UNL     1       3.722   2.744  19.963  0.00  0.00    +0.000 A 
ATOM      6  C   UNL     1       2.749   3.599  20.491  0.00  0.00    +0.000 A 
ATOM      7 CL   UNL     1       1.532   2.940  21.578  0.00  0.00    +0.000 Cl
ATOM      8  C   UNL     1       2.755   4.960  20.146  0.00  0.00    +0.000 A 
ATOM      9 CL   UNL     1       1.550   6.070  20.786  0.00  0.00    +0.000 Cl
ATOM     10  C   UNL     1       3.735   5.453  19.276  0.00  0.00    +0.000 A 
ENDBRANCH   2   3
BRANCH   1  11
ATOM     11  N   UNL     1       7.383   4.884  16.205  0.00  0.00    +0.000 N 
ATOM     12  H   UNL     1       8.265   5.277  16.569  0.00  0.00    +0.000 HD
BRANCH  11  13
ATOM     13  C   UNL     1       7.159   4.870  14.800  0.00  0.00    +0.000 C 
ATOM     14 SE   UNL     1       5.784   4.006  14.157  0.00  0.00    +0.000 Se
BRANCH  13  15
ATOM     15  N   UNL     1       8.035   5.550  13.915  0.00  0.00    +0.000 N 
ATOM     16  H   UNL     1       8.154   5.221  12.945  0.00  0.00    +0.000 HD
ATOM     17  H   UNL     1       8.565   6.377  14.223  0.00  0.00    +0.000 HD
ENDBRANCH  13  15
ENDBRANCH  11  13
ENDBRANCH   1  11
TORSDOF 4
ENDMDL
MODEL 5
REMARK VINA RESULT:      -5.6      1.361      1.415
REMARK  Name = 
REMARK  4 active torsions:
REMARK  status: ('A' for Active; 'I' for Inactive)
REMARK    1  A    between atoms: N_1  and  C_2
REMARK    2  A    between atoms: C_2  and  N_4
REMARK    3  A    between atoms: N_4  and  N_5
REMARK    4  A    between atoms: C_6  and  C_7
REMARK                            x       y       z     vdW  Elec       q    Type
REMARK                         _______ _______ _______ _____ _____    ______ ____
ROOT
ATOM      1  N   UNL     1       5.750   3.839  14.316  0.00  0.00    +0.000 NA
ATOM      2  C   UNL     1       6.300   3.991  15.470  0.00  0.00    +0.000 C 
ENDROOT
BRANCH   2   3
ATOM      3  C   UNL     1       5.486   4.247  16.678  0.00  0.00    +0.000 A 
ATOM      4  C   UNL     1       6.077   4.606  17.903  0.00  0.00    +0.000 A 
ATOM      5  C   UNL     1       5.283   4.836  19.030  0.00  0.00    +0.000 A 
ATOM      6  C   UNL     1       3.892   4.710  18.950  0.00  0.00    +0.000 A 
ATOM      7 CL   UNL     1       2.925   5.003  20.391  0.00  0.00    +0.000 Cl
ATOM      8  C   UNL     1       3.292   4.353  17.732  0.00  0.00    +0.000 A 
ATOM      9 CL   UNL     1       1.548   4.184  17.588  0.00  0.00    +0.000 Cl
ATOM     10  C   UNL     1       4.089   4.124  16.604  0.00  0.00    +0.000 A 
ENDBRANCH   2   3
BRANCH   1  11
ATOM     11  N   UNL     1       6.500   3.609  13.184  0.00  0.00    +0.000 N 
ATOM     12  H   UNL     1       7.463   3.975  13.115  0.00  0.00    +0.000 HD
BRANCH  11  13
ATOM     13  C   UNL     1       5.963   2.866  12.097  0.00  0.00    +0.000 C 
ATOM     14 SE   UNL     1       4.388   3.281  11.465  0.00  0.00    +0.000 Se
BRANCH  13  15
ATOM     15  N   UNL     1       6.689   1.793  11.516  0.00  0.00    +0.000 N 
ATOM     16  H   UNL     1       6.293   0.842  11.505  0.00  0.00    +0.000 HD
ATOM     17  H   UNL     1       7.618   1.944  11.100  0.00  0.00    +0.000 HD
ENDBRANCH  13  15
ENDBRANCH  11  13
ENDBRANCH   1  11
TORSDOF 4
ENDMDL
MODEL 6
REMARK VINA RESULT:      -5.6      2.091      2.552
REMARK  Name = 
REMARK  4 active torsions:
REMARK  status: ('A' for Active; 'I' for Inactive)
REMARK    1  A    between atoms: N_1  and  C_2
REMARK    2  A    between atoms: C_2  and  N_4
REMARK    3  A    between atoms: N_4  and  N_5
REMARK    4  A    between atoms: C_6  and  C_7
REMARK                            x       y       z     vdW  Elec       q    Type
REMARK                         _______ _______ _______ _____ _____    ______ ____
ROOT
ATOM      1  N   UNL     1       5.511   4.400  16.234  0.00  0.00    +0.000 NA
ATOM      2  C   UNL     1       4.336   4.071  16.647  0.00  0.00    +0.000 C 
ENDROOT
BRANCH   2   3
ATOM      3  C   UNL     1       3.624   4.886  17.656  0.00  0.00    +0.000 A 
ATOM      4  C   UNL     1       3.713   6.290  17.666  0.00  0.00    +0.000 A 
ATOM      5  C   UNL     1       3.034   7.032  18.636  0.00  0.00    +0.000 A 
ATOM      6  C   UNL     1       2.259   6.387  19.606  0.00  0.00    +0.000 A 
ATOM      7 CL   UNL     1       1.422   7.355  20.813  0.00  0.00    +0.000 Cl
ATOM      8  C   UNL     1       2.164   4.986  19.603  0.00  0.00    +0.000 A 
ATOM      9 CL   UNL     1       1.202   4.134  20.804  0.00  0.00    +0.000 Cl
ATOM     10  C   UNL     1       2.845   4.243  18.631  0.00  0.00    +0.000 A 
ENDBRANCH   2   3
BRANCH   1  11
ATOM     11  N   UNL     1       6.185   3.645  15.300  0.00  0.00    +0.000 N 
ATOM     12  H   UNL     1       6.360   2.642  15.472  0.00  0.00    +0.000 HD
BRANCH  11  13
ATOM     13  C   UNL     1       6.649   4.230  14.091  0.00  0.00    +0.000 C 
ATOM     14 SE   UNL     1       6.176   3.533  12.560  0.00  0.00    +0.000 Se
BRANCH  13  15
ATOM     15  N   UNL     1       7.490   5.373  14.108  0.00  0.00    +0.000 N 
ATOM     16  H   UNL     1       7.801   5.778  15.003  0.00  0.00    +0.000 HD
ATOM     17  H   UNL     1       7.800   5.818  13.232  0.00  0.00    +0.000 HD
ENDBRANCH  13  15
ENDBRANCH  11  13
ENDBRANCH   1  11
TORSDOF 4
ENDMDL
MODEL 7
REMARK VINA RESULT:      -5.6      4.483      5.349
REMARK  Name = 
REMARK  4 active torsions:
REMARK  status: ('A' for Active; 'I' for Inactive)
REMARK    1  A    between atoms: N_1  and  C_2
REMARK    2  A    between atoms: C_2  and  N_4
REMARK    3  A    between atoms: N_4  and  N_5
REMARK    4  A    between atoms: C_6  and  C_7
REMARK                            x       y       z     vdW  Elec       q    Type
REMARK                         _______ _______ _______ _____ _____    ______ ____
ROOT
ATOM      1  N   UNL     1       5.813   6.648  17.344  0.00  0.00    +0.000 NA
ATOM      2  C   UNL     1       5.751   5.364  17.410  0.00  0.00    +0.000 C 
ENDROOT
BRANCH   2   3
ATOM      3  C   UNL     1       4.502   4.678  17.809  0.00  0.00    +0.000 A 
ATOM      4  C   UNL     1       3.822   3.817  16.929  0.00  0.00    +0.000 A 
ATOM      5  C   UNL     1       2.641   3.187  17.331  0.00  0.00    +0.000 A 
ATOM      6  C   UNL     1       2.124   3.406  18.612  0.00  0.00    +0.000 A 
ATOM      7 CL   UNL     1       0.633   2.599  19.081  0.00  0.00    +0.000 Cl
ATOM      8  C   UNL     1       2.797   4.263  19.498  0.00  0.00    +0.000 A 
ATOM      9 CL   UNL     1       2.183   4.567  21.118  0.00  0.00    +0.000 Cl
ATOM     10  C   UNL     1       3.981   4.893  19.094  0.00  0.00    +0.000 A 
ENDBRANCH   2   3
BRANCH   1  11
ATOM     11  N   UNL     1       6.973   7.297  16.982  0.00  0.00    +0.000 N 
ATOM     12  H   UNL     1       7.205   7.427  15.985  0.00  0.00    +0.000 HD
BRANCH  11  13
ATOM     13  C   UNL     1       7.864   7.797  17.970  0.00  0.00    +0.000 C 
ATOM     14 SE   UNL     1       8.313   9.486  17.949  0.00  0.00    +0.000 Se
BRANCH  13  15
ATOM     15  N   UNL     1       8.394   6.946  18.974  0.00  0.00    +0.000 N 
ATOM     16  H   UNL     1       9.076   6.213  18.730  0.00  0.00    +0.000 HD
ATOM     17  H   UNL     1       8.107   7.043  19.958  0.00  0.00    +0.000 HD
ENDBRANCH  13  15
ENDBRANCH  11  13
ENDBRANCH   1  11
TORSDOF 4
ENDMDL
MODEL 8
REMARK VINA RESULT:      -5.5      4.455      5.230
REMARK  Name = 
REMARK  4 active torsions:
REMARK  status: ('A' for Active; 'I' for Inactive)
REMARK    1  A    between atoms: N_1  and  C_2
REMARK    2  A    between atoms: C_2  and  N_4
REMARK    3  A    between atoms: N_4  and  N_5
REMARK    4  A    between atoms: C_6  and  C_7
REMARK                            x       y       z     vdW  Elec       q    Type
REMARK                         _______ _______ _______ _____ _____    ______ ____
ROOT
ATOM      1  N   UNL     1       6.372   5.352  18.825  0.00  0.00    +0.000 NA
ATOM      2  C   UNL     1       5.192   5.770  18.524  0.00  0.00    +0.000 C 
ENDROOT
BRANCH   2   3
ATOM      3  C   UNL     1       4.020   4.870  18.593  0.00  0.00    +0.000 A 
ATOM      4  C   UNL     1       3.404   4.372  17.430  0.00  0.00    +0.000 A 
ATOM      5  C   UNL     1       2.294   3.529  17.526  0.00  0.00    +0.000 A 
ATOM      6  C   UNL     1       1.785   3.171  18.779  0.00  0.00    +0.000 A 
ATOM      7 CL   UNL     1       0.384   2.110  18.860  0.00  0.00    +0.000 Cl
ATOM      8  C   UNL     1       2.394   3.661  19.945  0.00  0.00    +0.000 A 
ATOM      9 CL   UNL     1       1.787   3.237  21.540  0.00  0.00    +0.000 Cl
ATOM     10  C   UNL     1       3.506   4.507  19.848  0.00  0.00    +0.000 A 
ENDBRANCH   2   3
BRANCH   1  11
ATOM     11  N   UNL     1       7.470   6.180  18.757  0.00  0.00    +0.000 N 
ATOM     12  H   UNL     1       8.160   6.193  19.525  0.00  0.00    +0.000 HD
BRANCH  11  13
ATOM     13  C   UNL     1       7.672   7.028  17.633  0.00  0.00    +0.000 C 
ATOM     14 SE   UNL     1       8.023   8.721  17.884  0.00  0.00    +0.000 Se
BRANCH  13  15
ATOM     15  N   UNL     1       7.595   6.518  16.311  0.00  0.00    +0.000 N 
ATOM     16  H   UNL     1       6.854   6.841  15.670  0.00  0.00    +0.000 HD
ATOM     17  H   UNL     1       8.271   5.821  15.970  0.00  0.00    +0.000 HD
ENDBRANCH  13  15
ENDBRANCH  11  13
ENDBRANCH   1  11
TORSDOF 4
ENDMDL
MODEL 9
REMARK VINA RESULT:      -5.5      2.513      3.318
REMARK  Name = 
REMARK  4 active torsions:
REMARK  status: ('A' for Active; 'I' for Inactive)
REMARK    1  A    between atoms: N_1  and  C_2
REMARK    2  A    between atoms: C_2  and  N_4
REMARK    3  A    between atoms: N_4  and  N_5
REMARK    4  A    between atoms: C_6  and  C_7
REMARK                            x       y       z     vdW  Elec       q    Type
REMARK                         _______ _______ _______ _____ _____    ______ ____
ROOT
ATOM      1  N   UNL     1       5.153   4.480  16.451  0.00  0.00    +0.000 NA
ATOM      2  C   UNL     1       4.669   4.055  17.566  0.00  0.00    +0.000 C 
ENDROOT
BRANCH   2   3
ATOM      3  C   UNL     1       3.814   4.921  18.409  0.00  0.00    +0.000 A 
ATOM      4  C   UNL     1       3.333   4.488  19.658  0.00  0.00    +0.000 A 
ATOM      5  C   UNL     1       2.522   5.325  20.429  0.00  0.00    +0.000 A 
ATOM      6  C   UNL     1       2.182   6.601  19.967  0.00  0.00    +0.000 A 
ATOM      7 CL   UNL     1       1.156   7.625  20.964  0.00  0.00    +0.000 Cl
ATOM      8  C   UNL     1       2.659   7.042  18.722  0.00  0.00    +0.000 A 
ATOM      9 CL   UNL     1       2.256   8.638  18.103  0.00  0.00    +0.000 Cl
ATOM     10  C   UNL     1       3.472   6.202  17.950  0.00  0.00    +0.000 A 
ENDBRANCH   2   3
BRANCH   1  11
ATOM     11  N   UNL     1       5.956   3.685  15.663  0.00  0.00    +0.000 N 
ATOM     12  H   UNL     1       6.101   2.692  15.905  0.00  0.00    +0.000 HD
BRANCH  11  13
ATOM     13  C   UNL     1       6.595   4.216  14.509  0.00  0.00    +0.000 C 
ATOM     14 SE   UNL     1       6.161   3.609  12.930  0.00  0.00    +0.000 Se
BRANCH  13  15
ATOM     15  N   UNL     1       7.578   5.233  14.621  0.00  0.00    +0.000 N 
ATOM     16  H   UNL     1       8.172   5.475  13.814  0.00  0.00    +0.000 HD
ATOM     17  H   UNL     1       7.717   5.743  15.505  0.00  0.00    +0.000 HD
ENDBRANCH  13  15
ENDBRANCH  11  13
ENDBRANCH   1  11
TORSDOF 4
ENDMDL
