MODEL 1
REMARK VINA RESULT:      -8.2      0.000      0.000
REMARK  Name = 
REMARK  7 active torsions:
REMARK  status: ('A' for Active; 'I' for Inactive)
REMARK    1  A    between atoms: C_2  and  C_4
REMARK    2  A    between atoms: C_9  and  C_11
REMARK    3  A    between atoms: C_11  and  C_12
REMARK    4  A    between atoms: C_12  and  C_13
REMARK    5  A    between atoms: C_13  and  C_14
REMARK    6  A    between atoms: C_14  and  N_15
REMARK    7  A    between atoms: N_18  and  C_19
REMARK                            x       y       z     vdW  Elec       q    Type
REMARK                         _______ _______ _______ _____ _____    ______ ____
ROOT
ATOM      1  C   UNL     1       8.507   8.561  18.434  0.00  0.00    +0.000 C 
ENDROOT
BRANCH   1   2
ATOM      2  C   UNL     1       8.718  10.028  18.019  0.00  0.00    +0.000 C 
BRANCH   2   3
ATOM      3  C   UNL     1       9.518  10.793  19.070  0.00  0.00    +0.000 C 
BRANCH   3   9
ATOM      4  C   UNL     1      10.432  13.105  20.748  0.00  0.00    +0.000 C 
ATOM      5  C   UNL     1      10.596  14.613  20.969  0.00  0.00    +0.000 C 
ATOM      6  C   UNL     1      11.641  15.023  19.944  0.00  0.00    +0.000 C 
ATOM      7  C   UNL     1      11.465  14.038  18.797  0.00  0.00    +0.000 C 
ATOM      8  N   UNL     1      10.569  13.001  19.284  0.00  0.00    +0.000 N 
ATOM      9  C   UNL     1      10.472  11.836  18.531  0.00  0.00    +0.000 C 
ATOM     10  O   UNL     1      11.036  11.700  17.441  0.00  0.00    +0.000 OA
BRANCH   4  12
ATOM     11  N   UNL     1       9.202  11.578  22.264  0.00  0.00    +0.000 N 
ATOM     12  C   UNL     1       9.129  12.645  21.417  0.00  0.00    +0.000 C 
ATOM     13  O   UNL     1       8.041  13.153  21.154  0.00  0.00    +0.000 OA
ATOM     14  H   UNL     1       8.345  11.294  22.721  0.00  0.00    +0.000 HD
ATOM     15  H   UNL     1      10.087  11.213  22.586  0.00  0.00    +0.000 HD
ENDBRANCH   4  12
ENDBRANCH   3   9
ENDBRANCH   2   3
ENDBRANCH   1   2
BRANCH   1  16
ATOM     16  C   UNL     1       7.441   7.853  17.578  0.00  0.00    +0.000 C 
BRANCH  16  17
ATOM     17  N   UNL     1       7.655   6.412  17.372  0.00  0.00    +0.000 NA
ATOM     18  C   UNL     1       7.518   5.612  18.613  0.00  0.00    +0.000 C 
ATOM     19  C   UNL     1       6.086   5.495  19.196  0.00  0.00    +0.000 C 
ATOM     20  N   UNL     1       5.134   5.048  18.165  0.00  0.00    +0.000 N 
ATOM     21  C   UNL     1       5.205   5.793  16.894  0.00  0.00    +0.000 C 
ATOM     22  C   UNL     1       6.671   5.883  16.390  0.00  0.00    +0.000 C 
BRANCH  20  23
ATOM     23  C   UNL     1       4.123   4.126  18.422  0.00  0.00    +0.000 A 
ATOM     24  C   UNL     1       4.249   2.832  17.865  0.00  0.00    +0.000 A 
ATOM     25  C   UNL     1       3.339   1.802  18.114  0.00  0.00    +0.000 A 
ATOM     26  C   UNL     1       2.265   2.024  18.960  0.00  0.00    +0.000 A 
ATOM     27  C   UNL     1       2.085   3.284  19.528  0.00  0.00    +0.000 A 
ATOM     28 CL   UNL     1       0.717   3.466  20.580  0.00  0.00    +0.000 Cl
ATOM     29  C   UNL     1       2.984   4.340  19.249  0.00  0.00    +0.000 A 
ATOM     30 CL   UNL     1       2.582   5.924  19.855  0.00  0.00    +0.000 Cl
ENDBRANCH  20  23
ENDBRANCH  16  17
ENDBRANCH   1  16
TORSDOF 7
ENDMDL
MODEL 2
REMARK VINA RESULT:      -8.2      1.287      1.519
REMARK  Name = 
REMARK  7 active torsions:
REMARK  status: ('A' for Active; 'I' for Inactive)
REMARK    1  A    between atoms: C_2  and  C_4
REMARK    2  A    between atoms: C_9  and  C_11
REMARK    3  A    between atoms: C_11  and  C_12
REMARK    4  A    between atoms: C_12  and  C_13
REMARK    5  A    between atoms: C_13  and  C_14
REMARK    6  A    between atoms: C_14  and  N_15
REMARK    7  A    between atoms: N_18  and  C_19
REMARK                            x       y       z     vdW  Elec       q    Type
REMARK                         _______ _______ _______ _____ _____    ______ ____
ROOT
ATOM      1  C   UNL     1       8.441   8.592  18.142  0.00  0.00    +0.000 C 
ENDROOT
BRANCH   1   2
ATOM      2  C   UNL     1       7.984  10.062  18.167  0.00  0.00    +0.000 C 
BRANCH   2   3
ATOM      3  C   UNL     1       9.174  11.013  18.246  0.00  0.00    +0.000 C 
BRANCH   3   9
ATOM      4  C   UNL     1      11.013  13.226  19.094  0.00  0.00    +0.000 C 
ATOM      5  C   UNL     1      11.261  14.552  19.824  0.00  0.00    +0.000 C 
ATOM      6  C   UNL     1      10.514  15.577  18.985  0.00  0.00    +0.000 C 
ATOM      7  C   UNL     1       9.362  14.801  18.362  0.00  0.00    +0.000 C 
ATOM      8  N   UNL     1       9.625  13.395  18.629  0.00  0.00    +0.000 N 
ATOM      9  C   UNL     1       8.875  12.460  17.924  0.00  0.00    +0.000 C 
ATOM     10  O   UNL     1       7.952  12.781  17.169  0.00  0.00    +0.000 OA
BRANCH   4  12
ATOM     11  N   UNL     1      10.569  11.914  21.150  0.00  0.00    +0.000 N 
ATOM     12  C   UNL     1      11.353  12.068  20.043  0.00  0.00    +0.000 C 
ATOM     13  O   UNL     1      12.332  11.345  19.873  0.00  0.00    +0.000 OA
ATOM     14  H   UNL     1      10.782  11.134  21.759  0.00  0.00    +0.000 HD
ATOM     15  H   UNL     1       9.699  12.413  21.260  0.00  0.00    +0.000 HD
ENDBRANCH   4  12
ENDBRANCH   3   9
ENDBRANCH   2   3
ENDBRANCH   1   2
BRANCH   1  16
ATOM     16  C   UNL     1       7.551   7.714  17.243  0.00  0.00    +0.000 C 
BRANCH  16  17
ATOM     17  N   UNL     1       7.764   6.264  17.372  0.00  0.00    +0.000 NA
ATOM     18  C   UNL     1       7.399   5.730  18.707  0.00  0.00    +0.000 C 
ATOM     19  C   UNL     1       5.887   5.717  19.048  0.00  0.00    +0.000 C 
ATOM     20  N   UNL     1       5.114   5.058  17.980  0.00  0.00    +0.000 N 
ATOM     21  C   UNL     1       5.418   5.530  16.616  0.00  0.00    +0.000 C 
ATOM     22  C   UNL     1       6.950   5.534  16.364  0.00  0.00    +0.000 C 
BRANCH  20  23
ATOM     23  C   UNL     1       4.054   4.195  18.240  0.00  0.00    +0.000 A 
ATOM     24  C   UNL     1       4.047   2.939  17.591  0.00  0.00    +0.000 A 
ATOM     25  C   UNL     1       3.077   1.962  17.830  0.00  0.00    +0.000 A 
ATOM     26  C   UNL     1       2.077   2.198  18.758  0.00  0.00    +0.000 A 
ATOM     27  C   UNL     1       2.029   3.425  19.420  0.00  0.00    +0.000 A 
ATOM     28 CL   UNL     1       0.745   3.628  20.570  0.00  0.00    +0.000 Cl
ATOM     29  C   UNL     1       2.987   4.430  19.154  0.00  0.00    +0.000 A 
ATOM     30 CL   UNL     1       2.744   5.992  19.890  0.00  0.00    +0.000 Cl
ENDBRANCH  20  23
ENDBRANCH  16  17
ENDBRANCH   1  16
TORSDOF 7
ENDMDL
MODEL 3
REMARK VINA RESULT:      -8.0      1.730      1.879
REMARK  Name = 
REMARK  7 active torsions:
REMARK  status: ('A' for Active; 'I' for Inactive)
REMARK    1  A    between atoms: C_2  and  C_4
REMARK    2  A    between atoms: C_9  and  C_11
REMARK    3  A    between atoms: C_11  and  C_12
REMARK    4  A    between atoms: C_12  and  C_13
REMARK    5  A    between atoms: C_13  and  C_14
REMARK    6  A    between atoms: C_14  and  N_15
REMARK    7  A    between atoms: N_18  and  C_19
REMARK                            x       y       z     vdW  Elec       q    Type
REMARK                         _______ _______ _______ _____ _____    ______ ____
ROOT
ATOM      1  C   UNL     1       8.140   9.113  17.681  0.00  0.00    +0.000 C 
ENDROOT
BRANCH   1   2
ATOM      2  C   UNL     1       9.000   9.912  18.678  0.00  0.00    +0.000 C 
BRANCH   2   3
ATOM      3  C   UNL     1       9.010  11.399  18.335  0.00  0.00    +0.000 C 
BRANCH   3   9
ATOM      4  C   UNL     1       9.643  14.331  18.393  0.00  0.00    +0.000 C 
ATOM      5  C   UNL     1      10.054  15.623  17.679  0.00  0.00    +0.000 C 
ATOM      6  C   UNL     1      11.502  15.381  17.287  0.00  0.00    +0.000 C 
ATOM      7  C   UNL     1      11.604  13.874  17.095  0.00  0.00    +0.000 C 
ATOM      8  N   UNL     1      10.365  13.313  17.610  0.00  0.00    +0.000 N 
ATOM      9  C   UNL     1      10.323  11.937  17.812  0.00  0.00    +0.000 C 
ATOM     10  O   UNL     1      11.249  11.189  17.486  0.00  0.00    +0.000 OA
BRANCH   4  12
ATOM     11  N   UNL     1       7.424  14.235  17.292  0.00  0.00    +0.000 N 
ATOM     12  C   UNL     1       8.110  14.273  18.471  0.00  0.00    +0.000 C 
ATOM     13  O   UNL     1       7.504  14.336  19.537  0.00  0.00    +0.000 OA
ATOM     14  H   UNL     1       6.416  14.172  17.348  0.00  0.00    +0.000 HD
ATOM     15  H   UNL     1       7.888  14.069  16.411  0.00  0.00    +0.000 HD
ENDBRANCH   4  12
ENDBRANCH   3   9
ENDBRANCH   2   3
ENDBRANCH   1   2
BRANCH   1  16
ATOM     16  C   UNL     1       7.896   7.664  18.142  0.00  0.00    +0.000 C 
BRANCH  16  17
ATOM     17  N   UNL     1       7.512   6.723  17.079  0.00  0.00    +0.000 NA
ATOM     18  C   UNL     1       7.495   5.308  17.521  0.00  0.00    +0.000 C 
ATOM     19  C   UNL     1       6.373   4.916  18.517  0.00  0.00    +0.000 C 
ATOM     20  N   UNL     1       5.053   5.333  18.010  0.00  0.00    +0.000 N 
ATOM     21  C   UNL     1       4.983   6.730  17.547  0.00  0.00    +0.000 C 
ATOM     22  C   UNL     1       6.151   7.047  16.574  0.00  0.00    +0.000 C 
BRANCH  20  23
ATOM     23  C   UNL     1       3.916   4.538  18.128  0.00  0.00    +0.000 A 
ATOM     24  C   UNL     1       3.798   3.419  17.272  0.00  0.00    +0.000 A 
ATOM     25  C   UNL     1       2.741   2.509  17.348  0.00  0.00    +0.000 A 
ATOM     26  C   UNL     1       1.761   2.672  18.312  0.00  0.00    +0.000 A 
ATOM     27  C   UNL     1       1.821   3.764  19.176  0.00  0.00    +0.000 A 
ATOM     28 CL   UNL     1       0.555   3.883  20.356  0.00  0.00    +0.000 Cl
ATOM     29  C   UNL     1       2.869   4.709  19.078  0.00  0.00    +0.000 A 
ATOM     30 CL   UNL     1       2.766   6.135  20.076  0.00  0.00    +0.000 Cl
ENDBRANCH  20  23
ENDBRANCH  16  17
ENDBRANCH   1  16
TORSDOF 7
ENDMDL
MODEL 4
REMARK VINA RESULT:      -7.7      0.938      2.185
REMARK  Name = 
REMARK  7 active torsions:
REMARK  status: ('A' for Active; 'I' for Inactive)
REMARK    1  A    between atoms: C_2  and  C_4
REMARK    2  A    between atoms: C_9  and  C_11
REMARK    3  A    between atoms: C_11  and  C_12
REMARK    4  A    between atoms: C_12  and  C_13
REMARK    5  A    between atoms: C_13  and  C_14
REMARK    6  A    between atoms: C_14  and  N_15
REMARK    7  A    between atoms: N_18  and  C_19
REMARK                            x       y       z     vdW  Elec       q    Type
REMARK                         _______ _______ _______ _____ _____    ______ ____
ROOT
ATOM      1  C   UNL     1       8.529   8.940  17.737  0.00  0.00    +0.000 C 
ENDROOT
BRANCH   1   2
ATOM      2  C   UNL     1       8.802   9.706  19.044  0.00  0.00    +0.000 C 
BRANCH   2   3
ATOM      3  C   UNL     1       9.303  11.120  18.765  0.00  0.00    +0.000 C 
BRANCH   3   9
ATOM      4  C   UNL     1      10.772  13.734  18.681  0.00  0.00    +0.000 C 
ATOM      5  C   UNL     1      11.826  14.693  19.245  0.00  0.00    +0.000 C 
ATOM      6  C   UNL     1      11.243  15.134  20.579  0.00  0.00    +0.000 C 
ATOM      7  C   UNL     1      10.390  13.959  21.035  0.00  0.00    +0.000 C 
ATOM      8  N   UNL     1      10.302  13.054  19.900  0.00  0.00    +0.000 N 
ATOM      9  C   UNL     1       9.347  12.044  19.962  0.00  0.00    +0.000 C 
ATOM     10  O   UNL     1       8.658  11.842  20.965  0.00  0.00    +0.000 OA
BRANCH   4  12
ATOM     11  N   UNL     1      11.068  13.226  16.273  0.00  0.00    +0.000 N 
ATOM     12  C   UNL     1      11.408  12.906  17.555  0.00  0.00    +0.000 C 
ATOM     13  O   UNL     1      12.136  11.942  17.779  0.00  0.00    +0.000 OA
ATOM     14  H   UNL     1      11.509  12.693  15.533  0.00  0.00    +0.000 HD
ATOM     15  H   UNL     1      10.568  14.074  16.049  0.00  0.00    +0.000 HD
ENDBRANCH   4  12
ENDBRANCH   3   9
ENDBRANCH   2   3
ENDBRANCH   1   2
BRANCH   1  16
ATOM     16  C   UNL     1       7.262   8.069  17.818  0.00  0.00    +0.000 C 
BRANCH  16  17
ATOM     17  N   UNL     1       7.404   6.702  17.293  0.00  0.00    +0.000 NA
ATOM     18  C   UNL     1       7.490   5.668  18.352  0.00  0.00    +0.000 C 
ATOM     19  C   UNL     1       6.194   5.411  19.163  0.00  0.00    +0.000 C 
ATOM     20  N   UNL     1       5.054   5.160  18.264  0.00  0.00    +0.000 N 
ATOM     21  C   UNL     1       4.896   6.144  17.178  0.00  0.00    +0.000 C 
ATOM     22  C   UNL     1       6.241   6.360  16.431  0.00  0.00    +0.000 C 
BRANCH  20  23
ATOM     23  C   UNL     1       4.092   4.186  18.521  0.00  0.00    +0.000 A 
ATOM     24  C   UNL     1       4.184   2.964  17.817  0.00  0.00    +0.000 A 
ATOM     25  C   UNL     1       3.323   1.887  18.043  0.00  0.00    +0.000 A 
ATOM     26  C   UNL     1       2.339   1.985  19.013  0.00  0.00    +0.000 A 
ATOM     27  C   UNL     1       2.196   3.172  19.730  0.00  0.00    +0.000 A 
ATOM     28 CL   UNL     1       0.942   3.200  20.929  0.00  0.00    +0.000 Cl
ATOM     29  C   UNL     1       3.042   4.277  19.477  0.00  0.00    +0.000 A 
ATOM     30 CL   UNL     1       2.675   5.776  20.290  0.00  0.00    +0.000 Cl
ENDBRANCH  20  23
ENDBRANCH  16  17
ENDBRANCH   1  16
TORSDOF 7
ENDMDL
MODEL 5
REMARK VINA RESULT:      -7.6      1.931      2.371
REMARK  Name = 
REMARK  7 active torsions:
REMARK  status: ('A' for Active; 'I' for Inactive)
REMARK    1  A    between atoms: C_2  and  C_4
REMARK    2  A    between atoms: C_9  and  C_11
REMARK    3  A    between atoms: C_11  and  C_12
REMARK    4  A    between atoms: C_12  and  C_13
REMARK    5  A    between atoms: C_13  and  C_14
REMARK    6  A    between atoms: C_14  and  N_15
REMARK    7  A    between atoms: N_18  and  C_19
REMARK                            x       y       z     vdW  Elec       q    Type
REMARK                         _______ _______ _______ _____ _____    ______ ____
ROOT
ATOM      1  C   UNL     1       8.399   8.548  17.423  0.00  0.00    +0.000 C 
ENDROOT
BRANCH   1   2
ATOM      2  C   UNL     1       7.924   9.891  18.006  0.00  0.00    +0.000 C 
BRANCH   2   3
ATOM      3  C   UNL     1       9.051  10.920  18.020  0.00  0.00    +0.000 C 
BRANCH   3   9
ATOM      4  C   UNL     1      10.837  13.247  18.647  0.00  0.00    +0.000 C 
ATOM      5  C   UNL     1      11.082  14.597  19.330  0.00  0.00    +0.000 C 
ATOM      6  C   UNL     1      10.196  15.564  18.560  0.00  0.00    +0.000 C 
ATOM      7  C   UNL     1       9.033  14.714  18.068  0.00  0.00    +0.000 C 
ATOM      8  N   UNL     1       9.401  13.330  18.325  0.00  0.00    +0.000 N 
ATOM      9  C   UNL     1       8.638  12.342  17.712  0.00  0.00    +0.000 C 
ATOM     10  O   UNL     1       7.626  12.598  17.052  0.00  0.00    +0.000 OA
BRANCH   4  12
ATOM     11  N   UNL     1      12.307  11.300  19.083  0.00  0.00    +0.000 N 
ATOM     12  C   UNL     1      11.337  12.127  19.570  0.00  0.00    +0.000 C 
ATOM     13  O   UNL     1      10.844  11.917  20.676  0.00  0.00    +0.000 OA
ATOM     14  H   UNL     1      12.651  10.578  19.704  0.00  0.00    +0.000 HD
ATOM     15  H   UNL     1      12.809  11.510  18.233  0.00  0.00    +0.000 HD
ENDBRANCH   4  12
ENDBRANCH   3   9
ENDBRANCH   2   3
ENDBRANCH   1   2
BRANCH   1  16
ATOM     16  C   UNL     1       7.859   7.340  18.210  0.00  0.00    +0.000 C 
BRANCH  16  17
ATOM     17  N   UNL     1       7.189   6.310  17.401  0.00  0.00    +0.000 NA
ATOM     18  C   UNL     1       7.039   5.012  18.102  0.00  0.00    +0.000 C 
ATOM     19  C   UNL     1       6.038   4.985  19.285  0.00  0.00    +0.000 C 
ATOM     20  N   UNL     1       4.729   5.524  18.876  0.00  0.00    +0.000 N 
ATOM     21  C   UNL     1       4.787   6.816  18.168  0.00  0.00    +0.000 C 
ATOM     22  C   UNL     1       5.827   6.767  17.016  0.00  0.00    +0.000 C 
BRANCH  20  23
ATOM     23  C   UNL     1       3.522   4.961  19.282  0.00  0.00    +0.000 A 
ATOM     24  C   UNL     1       2.771   5.643  20.267  0.00  0.00    +0.000 A 
ATOM     25  C   UNL     1       1.512   5.215  20.698  0.00  0.00    +0.000 A 
ATOM     26  C   UNL     1       0.940   4.087  20.136  0.00  0.00    +0.000 A 
ATOM     27  C   UNL     1       1.641   3.369  19.168  0.00  0.00    +0.000 A 
ATOM     28 CL   UNL     1       0.842   1.974  18.515  0.00  0.00    +0.000 Cl
ATOM     29  C   UNL     1       2.931   3.777  18.755  0.00  0.00    +0.000 A 
ATOM     30 CL   UNL     1       3.805   2.722  17.678  0.00  0.00    +0.000 Cl
ENDBRANCH  20  23
ENDBRANCH  16  17
ENDBRANCH   1  16
TORSDOF 7
ENDMDL
MODEL 6
REMARK VINA RESULT:      -7.5      1.458      2.232
REMARK  Name = 
REMARK  7 active torsions:
REMARK  status: ('A' for Active; 'I' for Inactive)
REMARK    1  A    between atoms: C_2  and  C_4
REMARK    2  A    between atoms: C_9  and  C_11
REMARK    3  A    between atoms: C_11  and  C_12
REMARK    4  A    between atoms: C_12  and  C_13
REMARK    5  A    between atoms: C_13  and  C_14
REMARK    6  A    between atoms: C_14  and  N_15
REMARK    7  A    between atoms: N_18  and  C_19
REMARK                            x       y       z     vdW  Elec       q    Type
REMARK                         _______ _______ _______ _____ _____    ______ ____
ROOT
ATOM      1  C   UNL     1       7.892   8.812  17.717  0.00  0.00    +0.000 C 
ENDROOT
BRANCH   1   2
ATOM      2  C   UNL     1       8.856   9.216  18.847  0.00  0.00    +0.000 C 
BRANCH   2   3
ATOM      3  C   UNL     1       9.113  10.720  18.847  0.00  0.00    +0.000 C 
BRANCH   3   9
ATOM      4  C   UNL     1       8.705  13.659  19.290  0.00  0.00    +0.000 C 
ATOM      5  C   UNL     1       9.217  15.021  19.772  0.00  0.00    +0.000 C 
ATOM      6  C   UNL     1       9.299  14.868  21.282  0.00  0.00    +0.000 C 
ATOM      7  C   UNL     1       9.573  13.387  21.506  0.00  0.00    +0.000 C 
ATOM      8  N   UNL     1       9.384  12.738  20.218  0.00  0.00    +0.000 N 
ATOM      9  C   UNL     1       9.296  11.350  20.210  0.00  0.00    +0.000 C 
ATOM     10  O   UNL     1       9.465  10.667  21.224  0.00  0.00    +0.000 OA
BRANCH   4  12
ATOM     11  N   UNL     1       7.895  13.300  16.975  0.00  0.00    +0.000 N 
ATOM     12  C   UNL     1       8.969  13.537  17.782  0.00  0.00    +0.000 C 
ATOM     13  O   UNL     1      10.103  13.570  17.308  0.00  0.00    +0.000 OA
ATOM     14  H   UNL     1       8.070  13.244  15.979  0.00  0.00    +0.000 HD
ATOM     15  H   UNL     1       6.947  13.378  17.312  0.00  0.00    +0.000 HD
ENDBRANCH   4  12
ENDBRANCH   3   9
ENDBRANCH   2   3
ENDBRANCH   1   2
BRANCH   1  16
ATOM     16  C   UNL     1       7.803   7.285  17.535  0.00  0.00    +0.000 C 
BRANCH  16  17
ATOM     17  N   UNL     1       6.862   6.829  16.501  0.00  0.00    +0.000 NA
ATOM     18  C   UNL     1       6.871   5.359  16.302  0.00  0.00    +0.000 C 
ATOM     19  C   UNL     1       6.287   4.509  17.459  0.00  0.00    +0.000 C 
ATOM     20  N   UNL     1       4.946   4.988  17.838  0.00  0.00    +0.000 N 
ATOM     21  C   UNL     1       4.848   6.443  18.054  0.00  0.00    +0.000 C 
ATOM     22  C   UNL     1       5.473   7.220  16.863  0.00  0.00    +0.000 C 
BRANCH  20  23
ATOM     23  C   UNL     1       3.898   4.126  18.148  0.00  0.00    +0.000 A 
ATOM     24  C   UNL     1       3.768   2.941  17.389  0.00  0.00    +0.000 A 
ATOM     25  C   UNL     1       2.804   1.965  17.656  0.00  0.00    +0.000 A 
ATOM     26  C   UNL     1       1.935   2.130  18.721  0.00  0.00    +0.000 A 
ATOM     27  C   UNL     1       2.011   3.286  19.498  0.00  0.00    +0.000 A 
ATOM     28 CL   UNL     1       0.889   3.403  20.816  0.00  0.00    +0.000 Cl
ATOM     29  C   UNL     1       2.961   4.293  19.208  0.00  0.00    +0.000 A 
ATOM     30 CL   UNL     1       2.865   5.779  20.114  0.00  0.00    +0.000 Cl
ENDBRANCH  20  23
ENDBRANCH  16  17
ENDBRANCH   1  16
TORSDOF 7
ENDMDL
MODEL 7
REMARK VINA RESULT:      -7.4      1.376      1.914
REMARK  Name = 
REMARK  7 active torsions:
REMARK  status: ('A' for Active; 'I' for Inactive)
REMARK    1  A    between atoms: C_2  and  C_4
REMARK    2  A    between atoms: C_9  and  C_11
REMARK    3  A    between atoms: C_11  and  C_12
REMARK    4  A    between atoms: C_12  and  C_13
REMARK    5  A    between atoms: C_13  and  C_14
REMARK    6  A    between atoms: C_14  and  N_15
REMARK    7  A    between atoms: N_18  and  C_19
REMARK                            x       y       z     vdW  Elec       q    Type
REMARK                         _______ _______ _______ _____ _____    ______ ____
ROOT
ATOM      1  C   UNL     1       8.190   8.482  18.418  0.00  0.00    +0.000 C 
ENDROOT
BRANCH   1   2
ATOM      2  C   UNL     1       9.054   9.693  18.022  0.00  0.00    +0.000 C 
BRANCH   2   3
ATOM      3  C   UNL     1       8.542  10.977  18.669  0.00  0.00    +0.000 C 
BRANCH   3   9
ATOM      4  C   UNL     1       8.683  13.844  19.538  0.00  0.00    +0.000 C 
ATOM      5  C   UNL     1       9.495  15.074  19.961  0.00  0.00    +0.000 C 
ATOM      6  C   UNL     1      10.044  14.697  21.327  0.00  0.00    +0.000 C 
ATOM      7  C   UNL     1      10.183  13.182  21.283  0.00  0.00    +0.000 C 
ATOM      8  N   UNL     1       9.502  12.744  20.075  0.00  0.00    +0.000 N 
ATOM      9  C   UNL     1       9.239  11.385  19.947  0.00  0.00    +0.000 C 
ATOM     10  O   UNL     1       9.640  10.550  20.764  0.00  0.00    +0.000 OA
BRANCH   4  12
ATOM     11  N   UNL     1       9.510  13.985  17.205  0.00  0.00    +0.000 N 
ATOM     12  C   UNL     1       8.422  13.919  18.026  0.00  0.00    +0.000 C 
ATOM     13  O   UNL     1       7.289  13.997  17.558  0.00  0.00    +0.000 OA
ATOM     14  H   UNL     1       9.334  14.010  16.209  0.00  0.00    +0.000 HD
ATOM     15  H   UNL     1      10.445  13.812  17.544  0.00  0.00    +0.000 HD
ENDBRANCH   4  12
ENDBRANCH   3   9
ENDBRANCH   2   3
ENDBRANCH   1   2
BRANCH   1  16
ATOM     16  C   UNL     1       7.367   7.933  17.238  0.00  0.00    +0.000 C 
BRANCH  16  17
ATOM     17  N   UNL     1       7.537   6.498  16.966  0.00  0.00    +0.000 NA
ATOM     18  C   UNL     1       7.501   5.657  18.188  0.00  0.00    +0.000 C 
ATOM     19  C   UNL     1       6.127   5.540  18.896  0.00  0.00    +0.000 C 
ATOM     20  N   UNL     1       5.077   5.141  17.942  0.00  0.00    +0.000 N 
ATOM     21  C   UNL     1       5.044   5.928  16.695  0.00  0.00    +0.000 C 
ATOM     22  C   UNL     1       6.460   6.015  16.062  0.00  0.00    +0.000 C 
BRANCH  20  23
ATOM     23  C   UNL     1       4.079   4.225  18.260  0.00  0.00    +0.000 A 
ATOM     24  C   UNL     1       4.099   2.970  17.609  0.00  0.00    +0.000 A 
ATOM     25  C   UNL     1       3.196   1.945  17.900  0.00  0.00    +0.000 A 
ATOM     26  C   UNL     1       2.240   2.129  18.884  0.00  0.00    +0.000 A 
ATOM     27  C   UNL     1       2.167   3.351  19.552  0.00  0.00    +0.000 A 
ATOM     28 CL   UNL     1       0.943   3.488  20.774  0.00  0.00    +0.000 Cl
ATOM     29  C   UNL     1       3.055   4.405  19.234  0.00  0.00    +0.000 A 
ATOM     30 CL   UNL     1       2.775   5.952  19.988  0.00  0.00    +0.000 Cl
ENDBRANCH  20  23
ENDBRANCH  16  17
ENDBRANCH   1  16
TORSDOF 7
ENDMDL
MODEL 8
REMARK VINA RESULT:      -7.4      1.194      1.614
REMARK  Name = 
REMARK  7 active torsions:
REMARK  status: ('A' for Active; 'I' for Inactive)
REMARK    1  A    between atoms: C_2  and  C_4
REMARK    2  A    between atoms: C_9  and  C_11
REMARK    3  A    between atoms: C_11  and  C_12
REMARK    4  A    between atoms: C_12  and  C_13
REMARK    5  A    between atoms: C_13  and  C_14
REMARK    6  A    between atoms: C_14  and  N_15
REMARK    7  A    between atoms: N_18  and  C_19
REMARK                            x       y       z     vdW  Elec       q    Type
REMARK                         _______ _______ _______ _____ _____    ______ ____
ROOT
ATOM      1  C   UNL     1       8.473   8.521  18.201  0.00  0.00    +0.000 C 
ENDROOT
BRANCH   1   2
ATOM      2  C   UNL     1       8.428  10.047  18.400  0.00  0.00    +0.000 C 
BRANCH   2   3
ATOM      3  C   UNL     1       9.533  10.518  19.340  0.00  0.00    +0.000 C 
BRANCH   3   9
ATOM      4  C   UNL     1      10.368  12.952  20.882  0.00  0.00    +0.000 C 
ATOM      5  C   UNL     1      10.507  14.474  21.004  0.00  0.00    +0.000 C 
ATOM      6  C   UNL     1      11.581  14.826  19.987  0.00  0.00    +0.000 C 
ATOM      7  C   UNL     1      11.452  13.762  18.906  0.00  0.00    +0.000 C 
ATOM      8  N   UNL     1      10.552  12.749  19.435  0.00  0.00    +0.000 N 
ATOM      9  C   UNL     1      10.492  11.534  18.761  0.00  0.00    +0.000 C 
ATOM     10  O   UNL     1      11.093  11.332  17.701  0.00  0.00    +0.000 OA
BRANCH   4  12
ATOM     11  N   UNL     1       9.115  11.557  22.504  0.00  0.00    +0.000 N 
ATOM     12  C   UNL     1       9.049  12.521  21.540  0.00  0.00    +0.000 C 
ATOM     13  O   UNL     1       7.960  12.957  21.176  0.00  0.00    +0.000 OA
ATOM     14  H   UNL     1       8.246  11.294  22.952  0.00  0.00    +0.000 HD
ATOM     15  H   UNL     1       9.993  11.262  22.903  0.00  0.00    +0.000 HD
ENDBRANCH   4  12
ENDBRANCH   3   9
ENDBRANCH   2   3
ENDBRANCH   1   2
BRANCH   1  16
ATOM     16  C   UNL     1       7.371   8.017  17.251  0.00  0.00    +0.000 C 
BRANCH  16  17
ATOM     17  N   UNL     1       7.253   6.555  17.145  0.00  0.00    +0.000 NA
ATOM     18  C   UNL     1       7.199   5.870  18.459  0.00  0.00    +0.000 C 
ATOM     19  C   UNL     1       5.911   6.089  19.292  0.00  0.00    +0.000 C 
ATOM     20  N   UNL     1       4.710   5.798  18.489  0.00  0.00    +0.000 N 
ATOM     21  C   UNL     1       4.684   6.441  17.162  0.00  0.00    +0.000 C 
ATOM     22  C   UNL     1       6.016   6.193  16.404  0.00  0.00    +0.000 C 
BRANCH  20  23
ATOM     23  C   UNL     1       3.605   5.125  19.002  0.00  0.00    +0.000 A 
ATOM     24  C   UNL     1       2.866   5.754  20.031  0.00  0.00    +0.000 A 
ATOM     25  C   UNL     1       1.697   5.211  20.571  0.00  0.00    +0.000 A 
ATOM     26  C   UNL     1       1.204   4.013  20.081  0.00  0.00    +0.000 A 
ATOM     27  C   UNL     1       1.899   3.344  19.074  0.00  0.00    +0.000 A 
ATOM     28 CL   UNL     1       1.202   1.856  18.517  0.00  0.00    +0.000 Cl
ATOM     29  C   UNL     1       3.102   3.872  18.550  0.00  0.00    +0.000 A 
ATOM     30 CL   UNL     1       3.996   2.883  17.427  0.00  0.00    +0.000 Cl
ENDBRANCH  20  23
ENDBRANCH  16  17
ENDBRANCH   1  16
TORSDOF 7
ENDMDL
MODEL 9
REMARK VINA RESULT:      -7.4      4.799     11.057
REMARK  Name = 
REMARK  7 active torsions:
REMARK  status: ('A' for Active; 'I' for Inactive)
REMARK    1  A    between atoms: C_2  and  C_4
REMARK    2  A    between atoms: C_9  and  C_11
REMARK    3  A    between atoms: C_11  and  C_12
REMARK    4  A    between atoms: C_12  and  C_13
REMARK    5  A    between atoms: C_13  and  C_14
REMARK    6  A    between atoms: C_14  and  N_15
REMARK    7  A    between atoms: N_18  and  C_19
REMARK                            x       y       z     vdW  Elec       q    Type
REMARK                         _______ _______ _______ _____ _____    ______ ____
ROOT
ATOM      1  C   UNL     1       8.862   8.693  18.383  0.00  0.00    +0.000 C 
ENDROOT
BRANCH   1   2
ATOM      2  C   UNL     1       7.558   8.040  17.888  0.00  0.00    +0.000 C 
BRANCH   2   3
ATOM      3  C   UNL     1       7.727   6.535  17.701  0.00  0.00    +0.000 C 
BRANCH   3   9
ATOM      4  C   UNL     1       5.696   4.583  16.670  0.00  0.00    +0.000 C 
ATOM      5  C   UNL     1       4.265   4.035  16.639  0.00  0.00    +0.000 C 
ATOM      6  C   UNL     1       4.083   3.405  18.011  0.00  0.00    +0.000 C 
ATOM      7  C   UNL     1       4.990   4.212  18.930  0.00  0.00    +0.000 C 
ATOM      8  N   UNL     1       5.809   5.046  18.064  0.00  0.00    +0.000 N 
ATOM      9  C   UNL     1       6.914   5.668  18.637  0.00  0.00    +0.000 C 
ATOM     10  O   UNL     1       7.158   5.609  19.845  0.00  0.00    +0.000 OA
BRANCH   4  12
ATOM     11  N   UNL     1       5.086   6.712  15.558  0.00  0.00    +0.000 N 
ATOM     12  C   UNL     1       5.865   5.592  15.526  0.00  0.00    +0.000 C 
ATOM     13  O   UNL     1       6.609   5.384  14.570  0.00  0.00    +0.000 OA
ATOM     14  H   UNL     1       5.218   7.386  14.814  0.00  0.00    +0.000 HD
ATOM     15  H   UNL     1       4.553   6.967  16.376  0.00  0.00    +0.000 HD
ENDBRANCH   4  12
ENDBRANCH   3   9
ENDBRANCH   2   3
ENDBRANCH   1   2
BRANCH   1  16
ATOM     16  C   UNL     1       8.736  10.220  18.536  0.00  0.00    +0.000 C 
BRANCH  16  17
ATOM     17  N   UNL     1       9.949  10.907  19.003  0.00  0.00    +0.000 NA
ATOM     18  C   UNL     1      10.600  11.732  17.957  0.00  0.00    +0.000 C 
ATOM     19  C   UNL     1       9.835  13.007  17.516  0.00  0.00    +0.000 C 
ATOM     20  N   UNL     1       9.461  13.824  18.684  0.00  0.00    +0.000 N 
ATOM     21  C   UNL     1       8.807  13.078  19.775  0.00  0.00    +0.000 C 
ATOM     22  C   UNL     1       9.622  11.808  20.141  0.00  0.00    +0.000 C 
BRANCH  20  23
ATOM     23  C   UNL     1       9.544  15.213  18.690  0.00  0.00    +0.000 A 
ATOM     24  C   UNL     1       8.410  15.947  18.272  0.00  0.00    +0.000 A 
ATOM     25  C   UNL     1       8.350  17.342  18.306  0.00  0.00    +0.000 A 
ATOM     26  C   UNL     1       9.428  18.066  18.786  0.00  0.00    +0.000 A 
ATOM     27  C   UNL     1      10.577  17.394  19.201  0.00  0.00    +0.000 A 
ATOM     28 CL   UNL     1      11.874  18.383  19.795  0.00  0.00    +0.000 Cl
ATOM     29  C   UNL     1      10.656  15.984  19.134  0.00  0.00    +0.000 A 
ATOM     30 CL   UNL     1      12.192  15.243  19.501  0.00  0.00    +0.000 Cl
ENDBRANCH  20  23
ENDBRANCH  16  17
ENDBRANCH   1  16
TORSDOF 7
ENDMDL
