MODEL 1
REMARK VINA RESULT:      -7.3      0.000      0.000
REMARK  Name = 
REMARK  3 active torsions:
REMARK  status: ('A' for Active; 'I' for Inactive)
REMARK    1  A    between atoms: C_6  and  C_7
REMARK    2  A    between atoms: C_7  and  C_8
REMARK    3  A    between atoms: C_16  and  N_17
REMARK                            x       y       z     vdW  Elec       q    Type
REMARK                         _______ _______ _______ _____ _____    ______ ____
ROOT
ATOM      1  N   UNL     1       0.756   2.698  21.209  0.00  0.00    +0.000 N 
ATOM      2  C   UNL     1       1.863   3.355  20.713  0.00  0.00    +0.000 A 
ATOM      3  N   UNL     1       1.780   4.678  20.578  0.00  0.00    +0.000 NA
ATOM      4  C   UNL     1       2.833   5.297  20.031  0.00  0.00    +0.000 A 
ATOM      5  N   UNL     1       2.716   6.686  19.951  0.00  0.00    +0.000 N 
ATOM      6  C   UNL     1       3.980   4.632  19.636  0.00  0.00    +0.000 A 
ATOM      7  C   UNL     1       3.992   3.277  19.921  0.00  0.00    +0.000 A 
ATOM      8  N   UNL     1       2.943   2.628  20.441  0.00  0.00    +0.000 NA
ATOM      9  H   UNL     1       0.185   3.333  21.748  0.00  0.00    +0.000 HD
ATOM     10  H   UNL     1       1.032   1.828  21.642  0.00  0.00    +0.000 HD
ATOM     11  H   UNL     1       1.783   6.929  20.273  0.00  0.00    +0.000 HD
ATOM     12  H   UNL     1       2.886   7.040  19.018  0.00  0.00    +0.000 HD
ENDROOT
BRANCH   7  13
ATOM     13  N   UNL     1       5.111   2.479  19.671  0.00  0.00    +0.000 N 
ATOM     14  H   UNL     1       5.744   2.463  20.465  0.00  0.00    +0.000 HD
ATOM     15  H   UNL     1       4.767   1.544  19.459  0.00  0.00    +0.000 HD
ENDBRANCH   7  13
BRANCH   6  16
ATOM     16  C   UNL     1       5.128   5.329  18.954  0.00  0.00    +0.000 C 
BRANCH  16  17
ATOM     17  C   UNL     1       5.473   4.920  17.534  0.00  0.00    +0.000 A 
ATOM     18  C   UNL     1       4.493   4.758  16.539  0.00  0.00    +0.000 A 
ATOM     19  C   UNL     1       4.849   4.465  15.220  0.00  0.00    +0.000 A 
ATOM     20  C   UNL     1       6.189   4.319  14.877  0.00  0.00    +0.000 A 
ATOM     21 CL   UNL     1       6.625   4.016  13.242  0.00  0.00    +0.000 Cl
ATOM     22  C   UNL     1       7.177   4.422  15.849  0.00  0.00    +0.000 A 
ATOM     23  C   UNL     1       6.821   4.712  17.168  0.00  0.00    +0.000 A 
ATOM     24 CL   UNL     1       8.103   4.807  18.329  0.00  0.00    +0.000 Cl
ENDBRANCH  16  17
ENDBRANCH   6  16
TORSDOF 3
ENDMDL
MODEL 2
REMARK VINA RESULT:      -7.3      0.897      2.102
REMARK  Name = 
REMARK  3 active torsions:
REMARK  status: ('A' for Active; 'I' for Inactive)
REMARK    1  A    between atoms: C_6  and  C_7
REMARK    2  A    between atoms: C_7  and  C_8
REMARK    3  A    between atoms: C_16  and  N_17
REMARK                            x       y       z     vdW  Elec       q    Type
REMARK                         _______ _______ _______ _____ _____    ______ ____
ROOT
ATOM      1  N   UNL     1       0.581   2.935  20.751  0.00  0.00    +0.000 N 
ATOM      2  C   UNL     1       1.744   3.438  20.208  0.00  0.00    +0.000 A 
ATOM      3  N   UNL     1       2.834   2.674  20.278  0.00  0.00    +0.000 NA
ATOM      4  C   UNL     1       3.973   3.200  19.810  0.00  0.00    +0.000 A 
ATOM      5  N   UNL     1       5.075   2.346  19.866  0.00  0.00    +0.000 N 
ATOM      6  C   UNL     1       4.048   4.463  19.250  0.00  0.00    +0.000 A 
ATOM      7  C   UNL     1       2.835   5.121  19.137  0.00  0.00    +0.000 A 
ATOM      8  N   UNL     1       1.687   4.630  19.621  0.00  0.00    +0.000 NA
ATOM      9  H   UNL     1       0.619   1.926  20.786  0.00  0.00    +0.000 HD
ATOM     10  H   UNL     1      -0.223   3.362  20.312  0.00  0.00    +0.000 HD
ATOM     11  H   UNL     1       4.776   1.497  20.339  0.00  0.00    +0.000 HD
ATOM     12  H   UNL     1       5.871   2.764  20.331  0.00  0.00    +0.000 HD
ENDROOT
BRANCH   7  13
ATOM     13  N   UNL     1       2.725   6.365  18.511  0.00  0.00    +0.000 N 
ATOM     14  H   UNL     1       2.287   7.051  19.118  0.00  0.00    +0.000 HD
ATOM     15  H   UNL     1       3.668   6.652  18.254  0.00  0.00    +0.000 HD
ENDBRANCH   7  13
BRANCH   6  16
ATOM     16  C   UNL     1       5.349   5.072  18.796  0.00  0.00    +0.000 C 
BRANCH  16  17
ATOM     17  C   UNL     1       5.789   4.837  17.363  0.00  0.00    +0.000 A 
ATOM     18  C   UNL     1       5.180   3.874  16.539  0.00  0.00    +0.000 A 
ATOM     19  C   UNL     1       5.549   3.740  15.197  0.00  0.00    +0.000 A 
ATOM     20  C   UNL     1       6.539   4.558  14.663  0.00  0.00    +0.000 A 
ATOM     21 CL   UNL     1       6.947   4.429  12.998  0.00  0.00    +0.000 Cl
ATOM     22  C   UNL     1       7.194   5.483  15.466  0.00  0.00    +0.000 A 
ATOM     23  C   UNL     1       6.828   5.616  16.807  0.00  0.00    +0.000 A 
ATOM     24 CL   UNL     1       7.699   6.775  17.753  0.00  0.00    +0.000 Cl
ENDBRANCH  16  17
ENDBRANCH   6  16
TORSDOF 3
ENDMDL
MODEL 3
REMARK VINA RESULT:      -7.2      3.770      6.161
REMARK  Name = 
REMARK  3 active torsions:
REMARK  status: ('A' for Active; 'I' for Inactive)
REMARK    1  A    between atoms: C_6  and  C_7
REMARK    2  A    between atoms: C_7  and  C_8
REMARK    3  A    between atoms: C_16  and  N_17
REMARK                            x       y       z     vdW  Elec       q    Type
REMARK                         _______ _______ _______ _____ _____    ______ ____
ROOT
ATOM      1  N   UNL     1       7.070   4.656  13.566  0.00  0.00    +0.000 N 
ATOM      2  C   UNL     1       6.721   5.008  14.853  0.00  0.00    +0.000 A 
ATOM      3  N   UNL     1       7.447   4.497  15.847  0.00  0.00    +0.000 NA
ATOM      4  C   UNL     1       7.057   4.790  17.093  0.00  0.00    +0.000 A 
ATOM      5  N   UNL     1       7.874   4.267  18.097  0.00  0.00    +0.000 N 
ATOM      6  C   UNL     1       5.973   5.603  17.375  0.00  0.00    +0.000 A 
ATOM      7  C   UNL     1       5.361   6.159  16.265  0.00  0.00    +0.000 A 
ATOM      8  N   UNL     1       5.712   5.861  15.008  0.00  0.00    +0.000 NA
ATOM      9  H   UNL     1       8.038   4.370  13.532  0.00  0.00    +0.000 HD
ATOM     10  H   UNL     1       6.763   5.364  12.914  0.00  0.00    +0.000 HD
ATOM     11  H   UNL     1       8.578   3.690  17.644  0.00  0.00    +0.000 HD
ATOM     12  H   UNL     1       7.356   3.739  18.788  0.00  0.00    +0.000 HD
ENDROOT
BRANCH   7  13
ATOM     13  N   UNL     1       4.311   7.073  16.381  0.00  0.00    +0.000 N 
ATOM     14  H   UNL     1       3.579   6.726  16.992  0.00  0.00    +0.000 HD
ATOM     15  H   UNL     1       4.711   7.938  16.744  0.00  0.00    +0.000 HD
ENDBRANCH   7  13
BRANCH   6  16
ATOM     16  C   UNL     1       5.500   5.864  18.781  0.00  0.00    +0.000 C 
BRANCH  16  17
ATOM     17  C   UNL     1       4.416   4.968  19.352  0.00  0.00    +0.000 A 
ATOM     18  C   UNL     1       4.612   3.592  19.562  0.00  0.00    +0.000 A 
ATOM     19  C   UNL     1       3.626   2.809  20.168  0.00  0.00    +0.000 A 
ATOM     20  C   UNL     1       2.424   3.388  20.563  0.00  0.00    +0.000 A 
ATOM     21 CL   UNL     1       1.237   2.434  21.361  0.00  0.00    +0.000 Cl
ATOM     22  C   UNL     1       2.181   4.735  20.321  0.00  0.00    +0.000 A 
ATOM     23  C   UNL     1       3.166   5.516  19.713  0.00  0.00    +0.000 A 
ATOM     24 CL   UNL     1       2.787   7.182  19.426  0.00  0.00    +0.000 Cl
ENDBRANCH  16  17
ENDBRANCH   6  16
TORSDOF 3
ENDMDL
MODEL 4
REMARK VINA RESULT:      -7.1      1.721      3.125
REMARK  Name = 
REMARK  3 active torsions:
REMARK  status: ('A' for Active; 'I' for Inactive)
REMARK    1  A    between atoms: C_6  and  C_7
REMARK    2  A    between atoms: C_7  and  C_8
REMARK    3  A    between atoms: C_16  and  N_17
REMARK                            x       y       z     vdW  Elec       q    Type
REMARK                         _______ _______ _______ _____ _____    ______ ____
ROOT
ATOM      1  N   UNL     1       1.301   2.638  22.268  0.00  0.00    +0.000 N 
ATOM      2  C   UNL     1       1.969   2.745  21.066  0.00  0.00    +0.000 A 
ATOM      3  N   UNL     1       3.207   2.257  21.007  0.00  0.00    +0.000 NA
ATOM      4  C   UNL     1       3.871   2.428  19.857  0.00  0.00    +0.000 A 
ATOM      5  N   UNL     1       5.146   1.862  19.830  0.00  0.00    +0.000 N 
ATOM      6  C   UNL     1       3.321   3.055  18.752  0.00  0.00    +0.000 A 
ATOM      7  C   UNL     1       1.995   3.427  18.897  0.00  0.00    +0.000 A 
ATOM      8  N   UNL     1       1.317   3.293  20.044  0.00  0.00    +0.000 NA
ATOM      9  H   UNL     1       1.688   1.883  22.816  0.00  0.00    +0.000 HD
ATOM     10  H   UNL     1       0.303   2.648  22.116  0.00  0.00    +0.000 HD
ATOM     11  H   UNL     1       5.330   1.489  20.758  0.00  0.00    +0.000 HD
ATOM     12  H   UNL     1       5.862   2.521  19.551  0.00  0.00    +0.000 HD
ENDROOT
BRANCH   7  13
ATOM     13  N   UNL     1       1.266   3.987  17.846  0.00  0.00    +0.000 N 
ATOM     14  H   UNL     1       1.288   5.002  17.874  0.00  0.00    +0.000 HD
ATOM     15  H   UNL     1       1.676   3.636  16.981  0.00  0.00    +0.000 HD
ENDBRANCH   7  13
BRANCH   6  16
ATOM     16  C   UNL     1       4.103   3.307  17.491  0.00  0.00    +0.000 C 
BRANCH  16  17
ATOM     17  C   UNL     1       5.001   4.530  17.436  0.00  0.00    +0.000 A 
ATOM     18  C   UNL     1       4.984   5.519  18.435  0.00  0.00    +0.000 A 
ATOM     19  C   UNL     1       5.883   6.589  18.403  0.00  0.00    +0.000 A 
ATOM     20  C   UNL     1       6.804   6.691  17.366  0.00  0.00    +0.000 A 
ATOM     21 CL   UNL     1       7.947   7.976  17.362  0.00  0.00    +0.000 Cl
ATOM     22  C   UNL     1       6.811   5.757  16.338  0.00  0.00    +0.000 A 
ATOM     23  C   UNL     1       5.911   4.689  16.369  0.00  0.00    +0.000 A 
ATOM     24 CL   UNL     1       5.964   3.573  15.045  0.00  0.00    +0.000 Cl
ENDBRANCH  16  17
ENDBRANCH   6  16
TORSDOF 3
ENDMDL
MODEL 5
REMARK VINA RESULT:      -7.1      1.433      1.752
REMARK  Name = 
REMARK  3 active torsions:
REMARK  status: ('A' for Active; 'I' for Inactive)
REMARK    1  A    between atoms: C_6  and  C_7
REMARK    2  A    between atoms: C_7  and  C_8
REMARK    3  A    between atoms: C_16  and  N_17
REMARK                            x       y       z     vdW  Elec       q    Type
REMARK                         _______ _______ _______ _____ _____    ______ ____
ROOT
ATOM      1  N   UNL     1       0.314   2.712  20.212  0.00  0.00    +0.000 N 
ATOM      2  C   UNL     1       1.507   3.389  20.069  0.00  0.00    +0.000 A 
ATOM      3  N   UNL     1       1.476   4.716  20.186  0.00  0.00    +0.000 NA
ATOM      4  C   UNL     1       2.626   5.369  19.976  0.00  0.00    +0.000 A 
ATOM      5  N   UNL     1       2.552   6.751  20.153  0.00  0.00    +0.000 N 
ATOM      6  C   UNL     1       3.815   4.728  19.676  0.00  0.00    +0.000 A 
ATOM      7  C   UNL     1       3.747   3.345  19.684  0.00  0.00    +0.000 A 
ATOM      8  N   UNL     1       2.606   2.669  19.862  0.00  0.00    +0.000 NA
ATOM      9  H   UNL     1      -0.338   3.263  20.751  0.00  0.00    +0.000 HD
ATOM     10  H   UNL     1       0.485   1.761  20.507  0.00  0.00    +0.000 HD
ATOM     11  H   UNL     1       1.579   6.980  20.339  0.00  0.00    +0.000 HD
ATOM     12  H   UNL     1       2.904   7.267  19.356  0.00  0.00    +0.000 HD
ENDROOT
BRANCH   7  13
ATOM     13  N   UNL     1       4.878   2.549  19.491  0.00  0.00    +0.000 N 
ATOM     14  H   UNL     1       4.813   1.676  20.006  0.00  0.00    +0.000 HD
ATOM     15  H   UNL     1       4.953   2.378  18.489  0.00  0.00    +0.000 HD
ENDBRANCH   7  13
BRANCH   6  16
ATOM     16  C   UNL     1       5.085   5.478  19.369  0.00  0.00    +0.000 C 
BRANCH  16  17
ATOM     17  C   UNL     1       5.652   5.384  17.964  0.00  0.00    +0.000 A 
ATOM     18  C   UNL     1       6.753   4.568  17.653  0.00  0.00    +0.000 A 
ATOM     19  C   UNL     1       7.199   4.435  16.334  0.00  0.00    +0.000 A 
ATOM     20  C   UNL     1       6.558   5.124  15.311  0.00  0.00    +0.000 A 
ATOM     21 CL   UNL     1       7.072   4.912  13.684  0.00  0.00    +0.000 Cl
ATOM     22  C   UNL     1       5.499   5.978  15.595  0.00  0.00    +0.000 A 
ATOM     23  C   UNL     1       5.055   6.113  16.913  0.00  0.00    +0.000 A 
ATOM     24 CL   UNL     1       3.744   7.208  17.196  0.00  0.00    +0.000 Cl
ENDBRANCH  16  17
ENDBRANCH   6  16
TORSDOF 3
ENDMDL
MODEL 6
REMARK VINA RESULT:      -7.0      3.737      5.942
REMARK  Name = 
REMARK  3 active torsions:
REMARK  status: ('A' for Active; 'I' for Inactive)
REMARK    1  A    between atoms: C_6  and  C_7
REMARK    2  A    between atoms: C_7  and  C_8
REMARK    3  A    between atoms: C_16  and  N_17
REMARK                            x       y       z     vdW  Elec       q    Type
REMARK                         _______ _______ _______ _____ _____    ______ ____
ROOT
ATOM      1  N   UNL     1       7.625   5.209  13.723  0.00  0.00    +0.000 N 
ATOM      2  C   UNL     1       7.074   5.320  14.983  0.00  0.00    +0.000 A 
ATOM      3  N   UNL     1       5.936   6.003  15.095  0.00  0.00    +0.000 NA
ATOM      4  C   UNL     1       5.446   6.163  16.331  0.00  0.00    +0.000 A 
ATOM      5  N   UNL     1       4.231   6.847  16.392  0.00  0.00    +0.000 N 
ATOM      6  C   UNL     1       6.052   5.638  17.458  0.00  0.00    +0.000 A 
ATOM      7  C   UNL     1       7.171   4.862  17.207  0.00  0.00    +0.000 A 
ATOM      8  N   UNL     1       7.697   4.708  15.985  0.00  0.00    +0.000 NA
ATOM      9  H   UNL     1       6.913   5.330  13.018  0.00  0.00    +0.000 HD
ATOM     10  H   UNL     1       8.209   4.387  13.668  0.00  0.00    +0.000 HD
ATOM     11  H   UNL     1       4.008   7.152  15.448  0.00  0.00    +0.000 HD
ATOM     12  H   UNL     1       4.253   7.628  17.035  0.00  0.00    +0.000 HD
ENDROOT
BRANCH   7  13
ATOM     13  N   UNL     1       7.844   4.185  18.227  0.00  0.00    +0.000 N 
ATOM     14  H   UNL     1       7.580   4.532  19.143  0.00  0.00    +0.000 HD
ATOM     15  H   UNL     1       7.614   3.197  18.129  0.00  0.00    +0.000 HD
ENDBRANCH   7  13
BRANCH   6  16
ATOM     16  C   UNL     1       5.533   5.889  18.849  0.00  0.00    +0.000 C 
BRANCH  16  17
ATOM     17  C   UNL     1       4.426   4.993  19.374  0.00  0.00    +0.000 A 
ATOM     18  C   UNL     1       4.607   3.612  19.570  0.00  0.00    +0.000 A 
ATOM     19  C   UNL     1       3.598   2.828  20.136  0.00  0.00    +0.000 A 
ATOM     20  C   UNL     1       2.389   3.410  20.503  0.00  0.00    +0.000 A 
ATOM     21 CL   UNL     1       1.173   2.452  21.253  0.00  0.00    +0.000 Cl
ATOM     22  C   UNL     1       2.162   4.761  20.274  0.00  0.00    +0.000 A 
ATOM     23  C   UNL     1       3.170   5.544  19.707  0.00  0.00    +0.000 A 
ATOM     24 CL   UNL     1       2.810   7.216  19.433  0.00  0.00    +0.000 Cl
ENDBRANCH  16  17
ENDBRANCH   6  16
TORSDOF 3
ENDMDL
MODEL 7
REMARK VINA RESULT:      -7.0      2.324      3.342
REMARK  Name = 
REMARK  3 active torsions:
REMARK  status: ('A' for Active; 'I' for Inactive)
REMARK    1  A    between atoms: C_6  and  C_7
REMARK    2  A    between atoms: C_7  and  C_8
REMARK    3  A    between atoms: C_16  and  N_17
REMARK                            x       y       z     vdW  Elec       q    Type
REMARK                         _______ _______ _______ _____ _____    ______ ____
ROOT
ATOM      1  N   UNL     1       1.286   2.508  22.312  0.00  0.00    +0.000 N 
ATOM      2  C   UNL     1       1.915   2.715  21.102  0.00  0.00    +0.000 A 
ATOM      3  N   UNL     1       3.204   2.388  21.019  0.00  0.00    +0.000 NA
ATOM      4  C   UNL     1       3.823   2.657  19.862  0.00  0.00    +0.000 A 
ATOM      5  N   UNL     1       5.159   2.258  19.809  0.00  0.00    +0.000 N 
ATOM      6  C   UNL     1       3.180   3.222  18.775  0.00  0.00    +0.000 A 
ATOM      7  C   UNL     1       1.820   3.422  18.944  0.00  0.00    +0.000 A 
ATOM      8  N   UNL     1       1.183   3.188  20.098  0.00  0.00    +0.000 NA
ATOM      9  H   UNL     1       1.774   1.801  22.844  0.00  0.00    +0.000 HD
ATOM     10  H   UNL     1       0.292   2.393  22.174  0.00  0.00    +0.000 HD
ATOM     11  H   UNL     1       5.404   1.899  20.728  0.00  0.00    +0.000 HD
ATOM     12  H   UNL     1       5.781   3.006  19.530  0.00  0.00    +0.000 HD
ENDROOT
BRANCH   7  13
ATOM     13  N   UNL     1       1.010   3.898  17.911  0.00  0.00    +0.000 N 
ATOM     14  H   UNL     1       0.350   3.192  17.598  0.00  0.00    +0.000 HD
ATOM     15  H   UNL     1       0.524   4.719  18.270  0.00  0.00    +0.000 HD
ENDBRANCH   7  13
BRANCH   6  16
ATOM     16  C   UNL     1       3.904   3.589  17.506  0.00  0.00    +0.000 C 
BRANCH  16  17
ATOM     17  C   UNL     1       4.943   4.693  17.566  0.00  0.00    +0.000 A 
ATOM     18  C   UNL     1       6.323   4.430  17.512  0.00  0.00    +0.000 A 
ATOM     19  C   UNL     1       7.253   5.473  17.482  0.00  0.00    +0.000 A 
ATOM     20  C   UNL     1       6.818   6.793  17.517  0.00  0.00    +0.000 A 
ATOM     21 CL   UNL     1       7.963   8.073  17.421  0.00  0.00    +0.000 Cl
ATOM     22  C   UNL     1       5.464   7.084  17.623  0.00  0.00    +0.000 A 
ATOM     23  C   UNL     1       4.534   6.042  17.655  0.00  0.00    +0.000 A 
ATOM     24 CL   UNL     1       2.865   6.477  17.806  0.00  0.00    +0.000 Cl
ENDBRANCH  16  17
ENDBRANCH   6  16
TORSDOF 3
ENDMDL
MODEL 8
REMARK VINA RESULT:      -6.9      2.004      2.339
REMARK  Name = 
REMARK  3 active torsions:
REMARK  status: ('A' for Active; 'I' for Inactive)
REMARK    1  A    between atoms: C_6  and  C_7
REMARK    2  A    between atoms: C_7  and  C_8
REMARK    3  A    between atoms: C_16  and  N_17
REMARK                            x       y       z     vdW  Elec       q    Type
REMARK                         _______ _______ _______ _____ _____    ______ ____
ROOT
ATOM      1  N   UNL     1       1.305   2.134  22.524  0.00  0.00    +0.000 N 
ATOM      2  C   UNL     1       1.609   2.796  21.353  0.00  0.00    +0.000 A 
ATOM      3  N   UNL     1       1.954   4.080  21.447  0.00  0.00    +0.000 NA
ATOM      4  C   UNL     1       2.179   4.731  20.300  0.00  0.00    +0.000 A 
ATOM      5  N   UNL     1       2.579   6.060  20.452  0.00  0.00    +0.000 N 
ATOM      6  C   UNL     1       2.093   4.127  19.058  0.00  0.00    +0.000 A 
ATOM      7  C   UNL     1       1.830   2.768  19.091  0.00  0.00    +0.000 A 
ATOM      8  N   UNL     1       1.573   2.099  20.222  0.00  0.00    +0.000 NA
ATOM      9  H   UNL     1       1.743   2.594  23.310  0.00  0.00    +0.000 HD
ATOM     10  H   UNL     1       1.456   1.141  22.414  0.00  0.00    +0.000 HD
ATOM     11  H   UNL     1       2.540   6.275  21.445  0.00  0.00    +0.000 HD
ATOM     12  H   UNL     1       2.013   6.703  19.915  0.00  0.00    +0.000 HD
ENDROOT
BRANCH   7  13
ATOM     13  N   UNL     1       1.802   1.992  17.930  0.00  0.00    +0.000 N 
ATOM     14  H   UNL     1       1.436   2.515  17.140  0.00  0.00    +0.000 HD
ATOM     15  H   UNL     1       2.758   1.686  17.755  0.00  0.00    +0.000 HD
ENDBRANCH   7  13
BRANCH   6  16
ATOM     16  C   UNL     1       2.276   4.888  17.771  0.00  0.00    +0.000 C 
BRANCH  16  17
ATOM     17  C   UNL     1       3.663   4.936  17.157  0.00  0.00    +0.000 A 
ATOM     18  C   UNL     1       4.329   3.779  16.715  0.00  0.00    +0.000 A 
ATOM     19  C   UNL     1       5.569   3.864  16.075  0.00  0.00    +0.000 A 
ATOM     20  C   UNL     1       6.166   5.104  15.878  0.00  0.00    +0.000 A 
ATOM     21 CL   UNL     1       7.663   5.207  15.038  0.00  0.00    +0.000 Cl
ATOM     22  C   UNL     1       5.557   6.260  16.349  0.00  0.00    +0.000 A 
ATOM     23  C   UNL     1       4.319   6.175  16.991  0.00  0.00    +0.000 A 
ATOM     24 CL   UNL     1       3.627   7.654  17.569  0.00  0.00    +0.000 Cl
ENDBRANCH  16  17
ENDBRANCH   6  16
TORSDOF 3
ENDMDL
MODEL 9
REMARK VINA RESULT:      -6.9      3.652      5.762
REMARK  Name = 
REMARK  3 active torsions:
REMARK  status: ('A' for Active; 'I' for Inactive)
REMARK    1  A    between atoms: C_6  and  C_7
REMARK    2  A    between atoms: C_7  and  C_8
REMARK    3  A    between atoms: C_16  and  N_17
REMARK                            x       y       z     vdW  Elec       q    Type
REMARK                         _______ _______ _______ _____ _____    ______ ____
ROOT
ATOM      1  N   UNL     1       8.360   8.232  18.213  0.00  0.00    +0.000 N 
ATOM      2  C   UNL     1       7.454   7.271  17.815  0.00  0.00    +0.000 A 
ATOM      3  N   UNL     1       6.717   7.533  16.736  0.00  0.00    +0.000 NA
ATOM      4  C   UNL     1       5.793   6.624  16.400  0.00  0.00    +0.000 A 
ATOM      5  N   UNL     1       5.078   6.923  15.239  0.00  0.00    +0.000 N 
ATOM      6  C   UNL     1       5.601   5.446  17.100  0.00  0.00    +0.000 A 
ATOM      7  C   UNL     1       6.493   5.236  18.138  0.00  0.00    +0.000 A 
ATOM      8  N   UNL     1       7.408   6.140  18.513  0.00  0.00    +0.000 NA
ATOM      9  H   UNL     1       8.606   8.824  17.433  0.00  0.00    +0.000 HD
ATOM     10  H   UNL     1       9.110   7.809  18.740  0.00  0.00    +0.000 HD
ATOM     11  H   UNL     1       5.377   7.843  14.928  0.00  0.00    +0.000 HD
ATOM     12  H   UNL     1       4.076   6.891  15.378  0.00  0.00    +0.000 HD
ENDROOT
BRANCH   7  13
ATOM     13  N   UNL     1       6.494   4.055  18.884  0.00  0.00    +0.000 N 
ATOM     14  H   UNL     1       7.010   4.162  19.752  0.00  0.00    +0.000 HD
ATOM     15  H   UNL     1       5.519   3.819  19.065  0.00  0.00    +0.000 HD
ENDBRANCH   7  13
BRANCH   6  16
ATOM     16  C   UNL     1       4.509   4.468  16.756  0.00  0.00    +0.000 C 
BRANCH  16  17
ATOM     17  C   UNL     1       3.595   3.992  17.871  0.00  0.00    +0.000 A 
ATOM     18  C   UNL     1       3.548   2.647  18.280  0.00  0.00    +0.000 A 
ATOM     19  C   UNL     1       2.761   2.254  19.366  0.00  0.00    +0.000 A 
ATOM     20  C   UNL     1       2.002   3.196  20.052  0.00  0.00    +0.000 A 
ATOM     21 CL   UNL     1       1.081   2.718  21.423  0.00  0.00    +0.000 Cl
ATOM     22  C   UNL     1       1.988   4.522  19.638  0.00  0.00    +0.000 A 
ATOM     23  C   UNL     1       2.773   4.915  18.551  0.00  0.00    +0.000 A 
ATOM     24 CL   UNL     1       2.692   6.580  18.080  0.00  0.00    +0.000 Cl
ENDBRANCH  16  17
ENDBRANCH   6  16
TORSDOF 3
ENDMDL
