MODEL 1
REMARK VINA RESULT:      -7.8      0.000      0.000
REMARK  Name = 
REMARK  13 active torsions:
REMARK  status: ('A' for Active; 'I' for Inactive)
REMARK    1  A    between atoms: C_1  and  C_2
REMARK    2  A    between atoms: C_2  and  N_3
REMARK    3  A    between atoms: N_3  and  C_21
REMARK    4  A    between atoms: C_4  and  C_6
REMARK    5  A    between atoms: C_6  and  C_7
REMARK    6  A    between atoms: C_7  and  C_8
REMARK    7  A    between atoms: C_10  and  C_11
REMARK    8  A    between atoms: C_14  and  O_15
REMARK    9  A    between atoms: O_15  and  C_16
REMARK   10  A    between atoms: C_23  and  O_24
REMARK   11  A    between atoms: O_24  and  C_25
REMARK   12  A    between atoms: C_28  and  O_29
REMARK   13  A    between atoms: O_29  and  C_30
REMARK                            x       y       z     vdW  Elec       q    Type
REMARK                         _______ _______ _______ _____ _____    ______ ____
ROOT
ATOM      1  N   UNL     1       5.176   5.628  17.931  0.00  0.00    +0.000 N 
ATOM      2  C   UNL     1       6.330   5.762  18.722  0.00  0.00    +0.000 C 
ATOM      3  O   UNL     1       6.392   5.350  19.880  0.00  0.00    +0.000 OA
ENDROOT
BRANCH   1   4
ATOM      4  C   UNL     1       3.996   5.151  18.617  0.00  0.00    +0.000 A 
ATOM      5  C   UNL     1       3.278   6.110  19.365  0.00  0.00    +0.000 A 
ATOM      6  C   UNL     1       2.177   5.771  20.152  0.00  0.00    +0.000 A 
ATOM      7  C   UNL     1       1.735   4.459  20.165  0.00  0.00    +0.000 A 
ATOM      8  C   UNL     1       2.408   3.500  19.403  0.00  0.00    +0.000 A 
ATOM      9  C   UNL     1       3.541   3.823  18.625  0.00  0.00    +0.000 A 
BRANCH   6  10
ATOM     10  O   UNL     1       1.601   6.806  20.837  0.00  0.00    +0.000 OA
ATOM     11  C   UNL     1       1.660   8.071  20.189  0.00  0.00    +0.000 C 
ENDBRANCH   6  10
BRANCH   9  12
ATOM     12  O   UNL     1       4.023   2.732  17.960  0.00  0.00    +0.000 OA
ATOM     13  C   UNL     1       3.623   1.436  18.375  0.00  0.00    +0.000 C 
ENDBRANCH   9  12
ENDBRANCH   1   4
BRANCH   1  15
ATOM     14  C   UNL     1       5.314   5.328  15.426  0.00  0.00    +0.000 C 
ATOM     15  C   UNL     1       4.988   6.240  16.603  0.00  0.00    +0.000 C 
ENDBRANCH   1  15
BRANCH   2  16
ATOM     16  C   UNL     1       7.569   6.382  18.093  0.00  0.00    +0.000 C 
BRANCH  16  17
ATOM     17  C   UNL     1       7.282   7.746  17.459  0.00  0.00    +0.000 C 
BRANCH  17  18
ATOM     18  C   UNL     1       8.112   8.884  17.930  0.00  0.00    +0.000 A 
ATOM     19  N   UNL     1       8.247  10.075  17.391  0.00  0.00    +0.000 NA
ATOM     20  C   UNL     1       9.102  10.702  18.272  0.00  0.00    +0.000 A 
ATOM     21  N   UNL     1       9.507   9.920  19.287  0.00  0.00    +0.000 NA
ATOM     22  O   UNL     1       8.857   8.716  19.057  0.00  0.00    +0.000 OA
BRANCH  20  23
ATOM     23  C   UNL     1       9.540  12.082  18.101  0.00  0.00    +0.000 A 
ATOM     24  C   UNL     1       8.715  13.151  18.473  0.00  0.00    +0.000 A 
ATOM     25  C   UNL     1       9.139  14.471  18.284  0.00  0.00    +0.000 A 
ATOM     26  C   UNL     1      10.398  14.740  17.748  0.00  0.00    +0.000 A 
ATOM     27  C   UNL     1      11.224  13.683  17.366  0.00  0.00    +0.000 A 
ATOM     28  C   UNL     1      10.797  12.363  17.548  0.00  0.00    +0.000 A 
BRANCH  26  29
ATOM     29  O   UNL     1      10.706  16.064  17.597  0.00  0.00    +0.000 OA
ATOM     30  C   UNL     1      11.064  16.747  18.795  0.00  0.00    +0.000 C 
ENDBRANCH  26  29
ENDBRANCH  20  23
ENDBRANCH  17  18
ENDBRANCH  16  17
ENDBRANCH   2  16
TORSDOF 9
ENDMDL
MODEL 2
REMARK VINA RESULT:      -7.7      5.357      9.049
REMARK  Name = 
REMARK  13 active torsions:
REMARK  status: ('A' for Active; 'I' for Inactive)
REMARK    1  A    between atoms: C_1  and  C_2
REMARK    2  A    between atoms: C_2  and  N_3
REMARK    3  A    between atoms: N_3  and  C_21
REMARK    4  A    between atoms: C_4  and  C_6
REMARK    5  A    between atoms: C_6  and  C_7
REMARK    6  A    between atoms: C_7  and  C_8
REMARK    7  A    between atoms: C_10  and  C_11
REMARK    8  A    between atoms: C_14  and  O_15
REMARK    9  A    between atoms: O_15  and  C_16
REMARK   10  A    between atoms: C_23  and  O_24
REMARK   11  A    between atoms: O_24  and  C_25
REMARK   12  A    between atoms: C_28  and  O_29
REMARK   13  A    between atoms: O_29  and  C_30
REMARK                            x       y       z     vdW  Elec       q    Type
REMARK                         _______ _______ _______ _____ _____    ______ ____
ROOT
ATOM      1  N   UNL     1       2.727   5.684  19.508  0.00  0.00    +0.000 N 
ATOM      2  C   UNL     1       2.408   7.050  19.427  0.00  0.00    +0.000 C 
ATOM      3  O   UNL     1       2.786   7.765  18.499  0.00  0.00    +0.000 OA
ENDROOT
BRANCH   1   4
ATOM      4  C   UNL     1       3.686   5.202  18.539  0.00  0.00    +0.000 A 
ATOM      5  C   UNL     1       4.984   5.753  18.620  0.00  0.00    +0.000 A 
ATOM      6  C   UNL     1       5.981   5.452  17.691  0.00  0.00    +0.000 A 
ATOM      7  C   UNL     1       5.712   4.545  16.681  0.00  0.00    +0.000 A 
ATOM      8  C   UNL     1       4.445   3.960  16.604  0.00  0.00    +0.000 A 
ATOM      9  C   UNL     1       3.417   4.276  17.519  0.00  0.00    +0.000 A 
BRANCH   6  10
ATOM     10  O   UNL     1       7.180   6.082  17.889  0.00  0.00    +0.000 OA
ATOM     11  C   UNL     1       7.835   5.771  19.113  0.00  0.00    +0.000 C 
ENDBRANCH   6  10
BRANCH   9  12
ATOM     12  O   UNL     1       2.274   3.577  17.255  0.00  0.00    +0.000 OA
ATOM     13  C   UNL     1       2.200   2.209  17.620  0.00  0.00    +0.000 C 
ENDBRANCH   9  12
ENDBRANCH   1   4
BRANCH   1  15
ATOM     14  C   UNL     1       1.101   4.097  20.616  0.00  0.00    +0.000 C 
ATOM     15  C   UNL     1       2.442   4.819  20.668  0.00  0.00    +0.000 C 
ENDBRANCH   1  15
BRANCH   2  16
ATOM     16  C   UNL     1       1.507   7.647  20.498  0.00  0.00    +0.000 C 
BRANCH  16  17
ATOM     17  C   UNL     1       1.124   9.099  20.197  0.00  0.00    +0.000 C 
BRANCH  17  18
ATOM     18  C   UNL     1       0.435   9.842  21.282  0.00  0.00    +0.000 A 
ATOM     19  N   UNL     1      -0.299  10.928  21.190  0.00  0.00    +0.000 NA
ATOM     20  C   UNL     1      -0.692  11.130  22.495  0.00  0.00    +0.000 A 
ATOM     21  N   UNL     1      -0.191  10.230  23.359  0.00  0.00    +0.000 NA
ATOM     22  O   UNL     1       0.559   9.382  22.557  0.00  0.00    +0.000 OA
BRANCH  20  23
ATOM     23  C   UNL     1      -1.556  12.232  22.900  0.00  0.00    +0.000 A 
ATOM     24  C   UNL     1      -1.173  13.562  22.686  0.00  0.00    +0.000 A 
ATOM     25  C   UNL     1      -2.000  14.612  23.099  0.00  0.00    +0.000 A 
ATOM     26  C   UNL     1      -3.229  14.349  23.704  0.00  0.00    +0.000 A 
ATOM     27  C   UNL     1      -3.616  13.028  23.930  0.00  0.00    +0.000 A 
ATOM     28  C   UNL     1      -2.785  11.978  23.523  0.00  0.00    +0.000 A 
BRANCH  26  29
ATOM     29  O   UNL     1      -3.953  15.447  24.077  0.00  0.00    +0.000 OA
ATOM     30  C   UNL     1      -3.434  16.173  25.187  0.00  0.00    +0.000 C 
ENDBRANCH  26  29
ENDBRANCH  20  23
ENDBRANCH  17  18
ENDBRANCH  16  17
ENDBRANCH   2  16
TORSDOF 9
ENDMDL
MODEL 3
REMARK VINA RESULT:      -7.6      1.760      2.520
REMARK  Name = 
REMARK  13 active torsions:
REMARK  status: ('A' for Active; 'I' for Inactive)
REMARK    1  A    between atoms: C_1  and  C_2
REMARK    2  A    between atoms: C_2  and  N_3
REMARK    3  A    between atoms: N_3  and  C_21
REMARK    4  A    between atoms: C_4  and  C_6
REMARK    5  A    between atoms: C_6  and  C_7
REMARK    6  A    between atoms: C_7  and  C_8
REMARK    7  A    between atoms: C_10  and  C_11
REMARK    8  A    between atoms: C_14  and  O_15
REMARK    9  A    between atoms: O_15  and  C_16
REMARK   10  A    between atoms: C_23  and  O_24
REMARK   11  A    between atoms: O_24  and  C_25
REMARK   12  A    between atoms: C_28  and  O_29
REMARK   13  A    between atoms: O_29  and  C_30
REMARK                            x       y       z     vdW  Elec       q    Type
REMARK                         _______ _______ _______ _____ _____    ______ ____
ROOT
ATOM      1  N   UNL     1       4.136   4.637  18.343  0.00  0.00    +0.000 N 
ATOM      2  C   UNL     1       5.445   4.884  18.790  0.00  0.00    +0.000 C 
ATOM      3  O   UNL     1       5.687   5.404  19.879  0.00  0.00    +0.000 OA
ENDROOT
BRANCH   1   4
ATOM      4  C   UNL     1       3.078   5.202  19.151  0.00  0.00    +0.000 A 
ATOM      5  C   UNL     1       2.862   6.591  19.012  0.00  0.00    +0.000 A 
ATOM      6  C   UNL     1       1.942   7.285  19.798  0.00  0.00    +0.000 A 
ATOM      7  C   UNL     1       1.172   6.587  20.712  0.00  0.00    +0.000 A 
ATOM      8  C   UNL     1       1.343   5.206  20.840  0.00  0.00    +0.000 A 
ATOM      9  C   UNL     1       2.290   4.495  20.073  0.00  0.00    +0.000 A 
BRANCH   6  10
ATOM     10  O   UNL     1       1.863   8.632  19.563  0.00  0.00    +0.000 OA
ATOM     11  C   UNL     1       1.575   8.998  18.220  0.00  0.00    +0.000 C 
ENDBRANCH   6  10
BRANCH   9  12
ATOM     12  O   UNL     1       2.272   3.159  20.359  0.00  0.00    +0.000 OA
ATOM     13  C   UNL     1       2.699   2.721  21.638  0.00  0.00    +0.000 C 
ENDBRANCH   9  12
ENDBRANCH   1   4
BRANCH   1  15
ATOM     14  C   UNL     1       2.505   3.336  16.916  0.00  0.00    +0.000 C 
ATOM     15  C   UNL     1       3.780   4.168  16.992  0.00  0.00    +0.000 C 
ENDBRANCH   1  15
BRANCH   2  16
ATOM     16  C   UNL     1       6.605   4.429  17.917  0.00  0.00    +0.000 C 
BRANCH  16  17
ATOM     17  C   UNL     1       7.912   5.148  18.261  0.00  0.00    +0.000 C 
BRANCH  17  18
ATOM     18  C   UNL     1       7.939   6.616  18.045  0.00  0.00    +0.000 A 
ATOM     19  N   UNL     1       8.520   7.540  18.778  0.00  0.00    +0.000 NA
ATOM     20  C   UNL     1       8.238   8.693  18.078  0.00  0.00    +0.000 A 
ATOM     21  N   UNL     1       7.483   8.494  16.984  0.00  0.00    +0.000 NA
ATOM     22  O   UNL     1       7.281   7.121  16.966  0.00  0.00    +0.000 OA
BRANCH  20  23
ATOM     23  C   UNL     1       8.700  10.009  18.502  0.00  0.00    +0.000 A 
ATOM     24  C   UNL     1       8.466  11.142  17.714  0.00  0.00    +0.000 A 
ATOM     25  C   UNL     1       8.934  12.396  18.120  0.00  0.00    +0.000 A 
ATOM     26  C   UNL     1       9.615  12.539  19.329  0.00  0.00    +0.000 A 
ATOM     27  C   UNL     1       9.861  11.416  20.118  0.00  0.00    +0.000 A 
ATOM     28  C   UNL     1       9.399  10.160  19.707  0.00  0.00    +0.000 A 
BRANCH  26  29
ATOM     29  O   UNL     1      10.036  13.806  19.625  0.00  0.00    +0.000 OA
ATOM     30  C   UNL     1      10.279  14.647  18.502  0.00  0.00    +0.000 C 
ENDBRANCH  26  29
ENDBRANCH  20  23
ENDBRANCH  17  18
ENDBRANCH  16  17
ENDBRANCH   2  16
TORSDOF 9
ENDMDL
MODEL 4
REMARK VINA RESULT:      -7.6      4.732      9.414
REMARK  Name = 
REMARK  13 active torsions:
REMARK  status: ('A' for Active; 'I' for Inactive)
REMARK    1  A    between atoms: C_1  and  C_2
REMARK    2  A    between atoms: C_2  and  N_3
REMARK    3  A    between atoms: N_3  and  C_21
REMARK    4  A    between atoms: C_4  and  C_6
REMARK    5  A    between atoms: C_6  and  C_7
REMARK    6  A    between atoms: C_7  and  C_8
REMARK    7  A    between atoms: C_10  and  C_11
REMARK    8  A    between atoms: C_14  and  O_15
REMARK    9  A    between atoms: O_15  and  C_16
REMARK   10  A    between atoms: C_23  and  O_24
REMARK   11  A    between atoms: O_24  and  C_25
REMARK   12  A    between atoms: C_28  and  O_29
REMARK   13  A    between atoms: O_29  and  C_30
REMARK                            x       y       z     vdW  Elec       q    Type
REMARK                         _______ _______ _______ _____ _____    ______ ____
ROOT
ATOM      1  N   UNL     1      -0.114  10.994  19.459  0.00  0.00    +0.000 N 
ATOM      2  C   UNL     1       0.123  10.465  20.739  0.00  0.00    +0.000 C 
ATOM      3  O   UNL     1       0.492  11.159  21.686  0.00  0.00    +0.000 OA
ENDROOT
BRANCH   1   4
ATOM      4  C   UNL     1       0.284  12.370  19.263  0.00  0.00    +0.000 A 
ATOM      5  C   UNL     1       1.594  12.576  18.775  0.00  0.00    +0.000 A 
ATOM      6  C   UNL     1       2.143  13.851  18.630  0.00  0.00    +0.000 A 
ATOM      7  C   UNL     1       1.367  14.959  18.924  0.00  0.00    +0.000 A 
ATOM      8  C   UNL     1       0.056  14.778  19.373  0.00  0.00    +0.000 A 
ATOM      9  C   UNL     1      -0.504  13.495  19.552  0.00  0.00    +0.000 A 
BRANCH   6  10
ATOM     10  O   UNL     1       3.431  13.889  18.168  0.00  0.00    +0.000 OA
ATOM     11  C   UNL     1       3.886  15.166  17.740  0.00  0.00    +0.000 C 
ENDBRANCH   6  10
BRANCH   9  12
ATOM     12  O   UNL     1      -1.797  13.564  19.987  0.00  0.00    +0.000 OA
ATOM     13  C   UNL     1      -2.052  13.772  21.366  0.00  0.00    +0.000 C 
ENDBRANCH   9  12
ENDBRANCH   1   4
BRANCH   1  15
ATOM     14  C   UNL     1      -1.799  10.373  17.681  0.00  0.00    +0.000 C 
ATOM     15  C   UNL     1      -0.399  10.192  18.255  0.00  0.00    +0.000 C 
ENDBRANCH   1  15
BRANCH   2  16
ATOM     16  C   UNL     1      -0.152   8.986  20.973  0.00  0.00    +0.000 C 
BRANCH  16  17
ATOM     17  C   UNL     1       1.072   8.243  21.514  0.00  0.00    +0.000 C 
BRANCH  17  18
ATOM     18  C   UNL     1       1.727   7.283  20.591  0.00  0.00    +0.000 A 
ATOM     19  N   UNL     1       2.480   7.540  19.544  0.00  0.00    +0.000 NA
ATOM     20  C   UNL     1       2.823   6.278  19.111  0.00  0.00    +0.000 A 
ATOM     21  N   UNL     1       2.274   5.286  19.834  0.00  0.00    +0.000 NA
ATOM     22  O   UNL     1       1.545   5.952  20.809  0.00  0.00    +0.000 OA
BRANCH  20  23
ATOM     23  C   UNL     1       3.685   6.044  17.959  0.00  0.00    +0.000 A 
ATOM     24  C   UNL     1       4.018   4.743  17.561  0.00  0.00    +0.000 A 
ATOM     25  C   UNL     1       4.864   4.533  16.467  0.00  0.00    +0.000 A 
ATOM     26  C   UNL     1       5.366   5.613  15.742  0.00  0.00    +0.000 A 
ATOM     27  C   UNL     1       5.049   6.913  16.136  0.00  0.00    +0.000 A 
ATOM     28  C   UNL     1       4.208   7.124  17.234  0.00  0.00    +0.000 A 
BRANCH  26  29
ATOM     29  O   UNL     1       6.191   5.295  14.699  0.00  0.00    +0.000 OA
ATOM     30  C   UNL     1       6.185   3.924  14.314  0.00  0.00    +0.000 C 
ENDBRANCH  26  29
ENDBRANCH  20  23
ENDBRANCH  17  18
ENDBRANCH  16  17
ENDBRANCH   2  16
TORSDOF 9
ENDMDL
MODEL 5
REMARK VINA RESULT:      -7.5      5.392      8.873
REMARK  Name = 
REMARK  13 active torsions:
REMARK  status: ('A' for Active; 'I' for Inactive)
REMARK    1  A    between atoms: C_1  and  C_2
REMARK    2  A    between atoms: C_2  and  N_3
REMARK    3  A    between atoms: N_3  and  C_21
REMARK    4  A    between atoms: C_4  and  C_6
REMARK    5  A    between atoms: C_6  and  C_7
REMARK    6  A    between atoms: C_7  and  C_8
REMARK    7  A    between atoms: C_10  and  C_11
REMARK    8  A    between atoms: C_14  and  O_15
REMARK    9  A    between atoms: O_15  and  C_16
REMARK   10  A    between atoms: C_23  and  O_24
REMARK   11  A    between atoms: O_24  and  C_25
REMARK   12  A    between atoms: C_28  and  O_29
REMARK   13  A    between atoms: O_29  and  C_30
REMARK                            x       y       z     vdW  Elec       q    Type
REMARK                         _______ _______ _______ _____ _____    ______ ____
ROOT
ATOM      1  N   UNL     1       3.657   5.310  17.999  0.00  0.00    +0.000 N 
ATOM      2  C   UNL     1       3.366   6.679  18.127  0.00  0.00    +0.000 C 
ATOM      3  O   UNL     1       3.997   7.550  17.528  0.00  0.00    +0.000 OA
ENDROOT
BRANCH   1   4
ATOM      4  C   UNL     1       4.866   4.989  17.272  0.00  0.00    +0.000 A 
ATOM      5  C   UNL     1       4.715   4.752  15.887  0.00  0.00    +0.000 A 
ATOM      6  C   UNL     1       5.778   4.339  15.082  0.00  0.00    +0.000 A 
ATOM      7  C   UNL     1       7.037   4.205  15.641  0.00  0.00    +0.000 A 
ATOM      8  C   UNL     1       7.215   4.470  17.002  0.00  0.00    +0.000 A 
ATOM      9  C   UNL     1       6.145   4.860  17.835  0.00  0.00    +0.000 A 
BRANCH   6  10
ATOM     10  O   UNL     1       5.471   4.127  13.765  0.00  0.00    +0.000 OA
ATOM     11  C   UNL     1       6.567   3.758  12.938  0.00  0.00    +0.000 C 
ENDBRANCH   6  10
BRANCH   9  12
ATOM     12  O   UNL     1       6.557   5.074  19.119  0.00  0.00    +0.000 OA
ATOM     13  C   UNL     1       7.801   5.715  19.348  0.00  0.00    +0.000 C 
ENDBRANCH   9  12
ENDBRANCH   1   4
BRANCH   1  15
ATOM     14  C   UNL     1       2.226   3.228  18.017  0.00  0.00    +0.000 C 
ATOM     15  C   UNL     1       3.048   4.239  18.807  0.00  0.00    +0.000 C 
ENDBRANCH   1  15
BRANCH   2  16
ATOM     16  C   UNL     1       2.182   7.089  18.991  0.00  0.00    +0.000 C 
BRANCH  16  17
ATOM     17  C   UNL     1       1.805   8.561  18.804  0.00  0.00    +0.000 C 
BRANCH  17  18
ATOM     18  C   UNL     1       1.092   9.210  19.933  0.00  0.00    +0.000 A 
ATOM     19  N   UNL     1       0.165  10.141  19.887  0.00  0.00    +0.000 NA
ATOM     20  C   UNL     1      -0.139  10.321  21.219  0.00  0.00    +0.000 A 
ATOM     21  N   UNL     1       0.596   9.564  22.051  0.00  0.00    +0.000 NA
ATOM     22  O   UNL     1       1.413   8.834  21.201  0.00  0.00    +0.000 OA
BRANCH  20  23
ATOM     23  C   UNL     1      -1.151  11.265  21.679  0.00  0.00    +0.000 A 
ATOM     24  C   UNL     1      -1.537  11.306  23.024  0.00  0.00    +0.000 A 
ATOM     25  C   UNL     1      -2.525  12.201  23.449  0.00  0.00    +0.000 A 
ATOM     26  C   UNL     1      -3.120  13.081  22.545  0.00  0.00    +0.000 A 
ATOM     27  C   UNL     1      -2.749  13.041  21.201  0.00  0.00    +0.000 A 
ATOM     28  C   UNL     1      -1.766  12.142  20.775  0.00  0.00    +0.000 A 
BRANCH  26  29
ATOM     29  O   UNL     1      -4.079  13.905  23.064  0.00  0.00    +0.000 OA
ATOM     30  C   UNL     1      -3.591  15.057  23.745  0.00  0.00    +0.000 C 
ENDBRANCH  26  29
ENDBRANCH  20  23
ENDBRANCH  17  18
ENDBRANCH  16  17
ENDBRANCH   2  16
TORSDOF 9
ENDMDL
MODEL 6
REMARK VINA RESULT:      -7.5      5.731      9.877
REMARK  Name = 
REMARK  13 active torsions:
REMARK  status: ('A' for Active; 'I' for Inactive)
REMARK    1  A    between atoms: C_1  and  C_2
REMARK    2  A    between atoms: C_2  and  N_3
REMARK    3  A    between atoms: N_3  and  C_21
REMARK    4  A    between atoms: C_4  and  C_6
REMARK    5  A    between atoms: C_6  and  C_7
REMARK    6  A    between atoms: C_7  and  C_8
REMARK    7  A    between atoms: C_10  and  C_11
REMARK    8  A    between atoms: C_14  and  O_15
REMARK    9  A    between atoms: O_15  and  C_16
REMARK   10  A    between atoms: C_23  and  O_24
REMARK   11  A    between atoms: O_24  and  C_25
REMARK   12  A    between atoms: C_28  and  O_29
REMARK   13  A    between atoms: O_29  and  C_30
REMARK                            x       y       z     vdW  Elec       q    Type
REMARK                         _______ _______ _______ _____ _____    ______ ____
ROOT
ATOM      1  N   UNL     1      -0.630  11.487  21.341  0.00  0.00    +0.000 N 
ATOM      2  C   UNL     1       0.229  10.516  21.884  0.00  0.00    +0.000 C 
ATOM      3  O   UNL     1       0.326  10.319  23.095  0.00  0.00    +0.000 OA
ENDROOT
BRANCH   1   4
ATOM      4  C   UNL     1      -1.256  12.377  22.293  0.00  0.00    +0.000 A 
ATOM      5  C   UNL     1      -2.554  12.021  22.719  0.00  0.00    +0.000 A 
ATOM      6  C   UNL     1      -3.313  12.836  23.560  0.00  0.00    +0.000 A 
ATOM      7  C   UNL     1      -2.762  14.012  24.039  0.00  0.00    +0.000 A 
ATOM      8  C   UNL     1      -1.464  14.366  23.659  0.00  0.00    +0.000 A 
ATOM      9  C   UNL     1      -0.696  13.566  22.786  0.00  0.00    +0.000 A 
BRANCH   6  10
ATOM     10  O   UNL     1      -4.562  12.366  23.866  0.00  0.00    +0.000 OA
ATOM     11  C   UNL     1      -5.615  12.863  23.049  0.00  0.00    +0.000 C 
ENDBRANCH   6  10
BRANCH   9  12
ATOM     12  O   UNL     1       0.541  14.104  22.566  0.00  0.00    +0.000 OA
ATOM     13  C   UNL     1       0.641  15.449  22.128  0.00  0.00    +0.000 C 
ENDBRANCH   9  12
ENDBRANCH   1   4
BRANCH   1  15
ATOM     14  C   UNL     1       0.427  12.844  19.490  0.00  0.00    +0.000 C 
ATOM     15  C   UNL     1      -0.670  11.877  19.920  0.00  0.00    +0.000 C 
ENDBRANCH   1  15
BRANCH   2  16
ATOM     16  C   UNL     1       1.020   9.634  20.929  0.00  0.00    +0.000 C 
BRANCH  16  17
ATOM     17  C   UNL     1       0.802   8.142  21.196  0.00  0.00    +0.000 C 
BRANCH  17  18
ATOM     18  C   UNL     1       1.607   7.199  20.379  0.00  0.00    +0.000 A 
ATOM     19  N   UNL     1       2.301   7.446  19.291  0.00  0.00    +0.000 NA
ATOM     20  C   UNL     1       2.851   6.216  19.006  0.00  0.00    +0.000 A 
ATOM     21  N   UNL     1       2.482   5.244  19.858  0.00  0.00    +0.000 NA
ATOM     22  O   UNL     1       1.654   5.894  20.763  0.00  0.00    +0.000 OA
BRANCH  20  23
ATOM     23  C   UNL     1       3.736   5.989  17.869  0.00  0.00    +0.000 A 
ATOM     24  C   UNL     1       4.014   4.692  17.422  0.00  0.00    +0.000 A 
ATOM     25  C   UNL     1       4.882   4.486  16.345  0.00  0.00    +0.000 A 
ATOM     26  C   UNL     1       5.461   5.570  15.685  0.00  0.00    +0.000 A 
ATOM     27  C   UNL     1       5.198   6.866  16.128  0.00  0.00    +0.000 A 
ATOM     28  C   UNL     1       4.335   7.071  17.210  0.00  0.00    +0.000 A 
BRANCH  26  29
ATOM     29  O   UNL     1       6.300   5.255  14.652  0.00  0.00    +0.000 OA
ATOM     30  C   UNL     1       6.295   3.887  14.256  0.00  0.00    +0.000 C 
ENDBRANCH  26  29
ENDBRANCH  20  23
ENDBRANCH  17  18
ENDBRANCH  16  17
ENDBRANCH   2  16
TORSDOF 9
ENDMDL
MODEL 7
REMARK VINA RESULT:      -7.4      5.873      9.767
REMARK  Name = 
REMARK  13 active torsions:
REMARK  status: ('A' for Active; 'I' for Inactive)
REMARK    1  A    between atoms: C_1  and  C_2
REMARK    2  A    between atoms: C_2  and  N_3
REMARK    3  A    between atoms: N_3  and  C_21
REMARK    4  A    between atoms: C_4  and  C_6
REMARK    5  A    between atoms: C_6  and  C_7
REMARK    6  A    between atoms: C_7  and  C_8
REMARK    7  A    between atoms: C_10  and  C_11
REMARK    8  A    between atoms: C_14  and  O_15
REMARK    9  A    between atoms: O_15  and  C_16
REMARK   10  A    between atoms: C_23  and  O_24
REMARK   11  A    between atoms: O_24  and  C_25
REMARK   12  A    between atoms: C_28  and  O_29
REMARK   13  A    between atoms: O_29  and  C_30
REMARK                            x       y       z     vdW  Elec       q    Type
REMARK                         _______ _______ _______ _____ _____    ______ ____
ROOT
ATOM      1  N   UNL     1      -1.636  11.800  18.613  0.00  0.00    +0.000 N 
ATOM      2  C   UNL     1      -1.077  10.591  19.060  0.00  0.00    +0.000 C 
ATOM      3  O   UNL     1      -1.680   9.519  18.999  0.00  0.00    +0.000 OA
ENDROOT
BRANCH   1   4
ATOM      4  C   UNL     1      -3.035  11.751  18.250  0.00  0.00    +0.000 A 
ATOM      5  C   UNL     1      -3.957  12.026  19.285  0.00  0.00    +0.000 A 
ATOM      6  C   UNL     1      -5.336  11.921  19.102  0.00  0.00    +0.000 A 
ATOM      7  C   UNL     1      -5.828  11.586  17.852  0.00  0.00    +0.000 A 
ATOM      8  C   UNL     1      -4.934  11.346  16.805  0.00  0.00    +0.000 A 
ATOM      9  C   UNL     1      -3.536  11.420  16.982  0.00  0.00    +0.000 A 
BRANCH   6  10
ATOM     10  O   UNL     1      -6.100  12.196  20.204  0.00  0.00    +0.000 OA
ATOM     11  C   UNL     1      -7.197  11.316  20.418  0.00  0.00    +0.000 C 
ENDBRANCH   6  10
BRANCH   9  12
ATOM     12  O   UNL     1      -2.866  11.158  15.821  0.00  0.00    +0.000 OA
ATOM     13  C   UNL     1      -2.787   9.821  15.355  0.00  0.00    +0.000 C 
ENDBRANCH   9  12
ENDBRANCH   1   4
BRANCH   1  15
ATOM     14  C   UNL     1      -1.225  13.726  20.196  0.00  0.00    +0.000 C 
ATOM     15  C   UNL     1      -1.032  13.131  18.806  0.00  0.00    +0.000 C 
ENDBRANCH   1  15
BRANCH   2  16
ATOM     16  C   UNL     1       0.353  10.603  19.580  0.00  0.00    +0.000 C 
BRANCH  16  17
ATOM     17  C   UNL     1       1.379  10.356  18.472  0.00  0.00    +0.000 C 
BRANCH  17  18
ATOM     18  C   UNL     1       2.004   9.009  18.436  0.00  0.00    +0.000 A 
ATOM     19  N   UNL     1       2.716   8.465  17.474  0.00  0.00    +0.000 NA
ATOM     20  C   UNL     1       3.049   7.240  18.011  0.00  0.00    +0.000 A 
ATOM     21  N   UNL     1       2.532   7.024  19.233  0.00  0.00    +0.000 NA
ATOM     22  O   UNL     1       1.836   8.192  19.510  0.00  0.00    +0.000 OA
BRANCH  20  23
ATOM     23  C   UNL     1       3.869   6.263  17.305  0.00  0.00    +0.000 A 
ATOM     24  C   UNL     1       4.941   6.670  16.501  0.00  0.00    +0.000 A 
ATOM     25  C   UNL     1       5.707   5.725  15.811  0.00  0.00    +0.000 A 
ATOM     26  C   UNL     1       5.430   4.363  15.934  0.00  0.00    +0.000 A 
ATOM     27  C   UNL     1       4.359   3.948  16.725  0.00  0.00    +0.000 A 
ATOM     28  C   UNL     1       3.589   4.894  17.410  0.00  0.00    +0.000 A 
BRANCH  26  29
ATOM     29  O   UNL     1       6.234   3.528  15.210  0.00  0.00    +0.000 OA
ATOM     30  C   UNL     1       6.243   3.757  13.804  0.00  0.00    +0.000 C 
ENDBRANCH  26  29
ENDBRANCH  20  23
ENDBRANCH  17  18
ENDBRANCH  16  17
ENDBRANCH   2  16
TORSDOF 9
ENDMDL
MODEL 8
REMARK VINA RESULT:      -7.4      1.966      2.721
REMARK  Name = 
REMARK  13 active torsions:
REMARK  status: ('A' for Active; 'I' for Inactive)
REMARK    1  A    between atoms: C_1  and  C_2
REMARK    2  A    between atoms: C_2  and  N_3
REMARK    3  A    between atoms: N_3  and  C_21
REMARK    4  A    between atoms: C_4  and  C_6
REMARK    5  A    between atoms: C_6  and  C_7
REMARK    6  A    between atoms: C_7  and  C_8
REMARK    7  A    between atoms: C_10  and  C_11
REMARK    8  A    between atoms: C_14  and  O_15
REMARK    9  A    between atoms: O_15  and  C_16
REMARK   10  A    between atoms: C_23  and  O_24
REMARK   11  A    between atoms: O_24  and  C_25
REMARK   12  A    between atoms: C_28  and  O_29
REMARK   13  A    between atoms: O_29  and  C_30
REMARK                            x       y       z     vdW  Elec       q    Type
REMARK                         _______ _______ _______ _____ _____    ______ ____
ROOT
ATOM      1  N   UNL     1       4.543   4.417  18.485  0.00  0.00    +0.000 N 
ATOM      2  C   UNL     1       5.852   4.811  18.808  0.00  0.00    +0.000 C 
ATOM      3  O   UNL     1       6.111   5.519  19.782  0.00  0.00    +0.000 OA
ENDROOT
BRANCH   1   4
ATOM      4  C   UNL     1       3.489   5.046  19.250  0.00  0.00    +0.000 A 
ATOM      5  C   UNL     1       3.152   6.367  18.879  0.00  0.00    +0.000 A 
ATOM      6  C   UNL     1       2.223   7.127  19.590  0.00  0.00    +0.000 A 
ATOM      7  C   UNL     1       1.566   6.558  20.667  0.00  0.00    +0.000 A 
ATOM      8  C   UNL     1       1.858   5.239  21.029  0.00  0.00    +0.000 A 
ATOM      9  C   UNL     1       2.816   4.467  20.338  0.00  0.00    +0.000 A 
BRANCH   6  10
ATOM     10  O   UNL     1       2.020   8.398  19.122  0.00  0.00    +0.000 OA
ATOM     11  C   UNL     1       2.357   8.603  17.756  0.00  0.00    +0.000 C 
ENDBRANCH   6  10
BRANCH   9  12
ATOM     12  O   UNL     1       2.925   3.211  20.860  0.00  0.00    +0.000 OA
ATOM     13  C   UNL     1       1.787   2.610  21.458  0.00  0.00    +0.000 C 
ENDBRANCH   9  12
ENDBRANCH   1   4
BRANCH   1  15
ATOM     14  C   UNL     1       2.676   3.357  17.151  0.00  0.00    +0.000 C 
ATOM     15  C   UNL     1       4.155   3.711  17.250  0.00  0.00    +0.000 C 
ENDBRANCH   1  15
BRANCH   2  16
ATOM     16  C   UNL     1       6.997   4.287  17.954  0.00  0.00    +0.000 C 
BRANCH  16  17
ATOM     17  C   UNL     1       7.349   5.233  16.803  0.00  0.00    +0.000 C 
BRANCH  17  18
ATOM     18  C   UNL     1       7.383   6.683  17.124  0.00  0.00    +0.000 A 
ATOM     19  N   UNL     1       8.309   7.355  17.770  0.00  0.00    +0.000 NA
ATOM     20  C   UNL     1       7.820   8.643  17.731  0.00  0.00    +0.000 A 
ATOM     21  N   UNL     1       6.627   8.753  17.123  0.00  0.00    +0.000 NA
ATOM     22  O   UNL     1       6.336   7.455  16.726  0.00  0.00    +0.000 OA
BRANCH  20  23
ATOM     23  C   UNL     1       8.526   9.775  18.318  0.00  0.00    +0.000 A 
ATOM     24  C   UNL     1       9.098   9.685  19.593  0.00  0.00    +0.000 A 
ATOM     25  C   UNL     1       9.754  10.785  20.155  0.00  0.00    +0.000 A 
ATOM     26  C   UNL     1       9.870  11.979  19.442  0.00  0.00    +0.000 A 
ATOM     27  C   UNL     1       9.296  12.083  18.175  0.00  0.00    +0.000 A 
ATOM     28  C   UNL     1       8.634  10.984  17.617  0.00  0.00    +0.000 A 
BRANCH  26  29
ATOM     29  O   UNL     1      10.522  12.993  20.088  0.00  0.00    +0.000 OA
ATOM     30  C   UNL     1      10.436  14.269  19.462  0.00  0.00    +0.000 C 
ENDBRANCH  26  29
ENDBRANCH  20  23
ENDBRANCH  17  18
ENDBRANCH  16  17
ENDBRANCH   2  16
TORSDOF 9
ENDMDL
MODEL 9
REMARK VINA RESULT:      -7.4      5.273      8.477
REMARK  Name = 
REMARK  13 active torsions:
REMARK  status: ('A' for Active; 'I' for Inactive)
REMARK    1  A    between atoms: C_1  and  C_2
REMARK    2  A    between atoms: C_2  and  N_3
REMARK    3  A    between atoms: N_3  and  C_21
REMARK    4  A    between atoms: C_4  and  C_6
REMARK    5  A    between atoms: C_6  and  C_7
REMARK    6  A    between atoms: C_7  and  C_8
REMARK    7  A    between atoms: C_10  and  C_11
REMARK    8  A    between atoms: C_14  and  O_15
REMARK    9  A    between atoms: O_15  and  C_16
REMARK   10  A    between atoms: C_23  and  O_24
REMARK   11  A    between atoms: O_24  and  C_25
REMARK   12  A    between atoms: C_28  and  O_29
REMARK   13  A    between atoms: O_29  and  C_30
REMARK                            x       y       z     vdW  Elec       q    Type
REMARK                         _______ _______ _______ _____ _____    ______ ____
ROOT
ATOM      1  N   UNL     1       4.080   6.613  17.860  0.00  0.00    +0.000 N 
ATOM      2  C   UNL     1       2.960   7.351  18.280  0.00  0.00    +0.000 C 
ATOM      3  O   UNL     1       2.150   6.918  19.099  0.00  0.00    +0.000 OA
ENDROOT
BRANCH   1   4
ATOM      4  C   UNL     1       4.128   5.236  18.300  0.00  0.00    +0.000 A 
ATOM      5  C   UNL     1       3.074   4.405  17.863  0.00  0.00    +0.000 A 
ATOM      6  C   UNL     1       2.942   3.082  18.288  0.00  0.00    +0.000 A 
ATOM      7  C   UNL     1       3.901   2.543  19.128  0.00  0.00    +0.000 A 
ATOM      8  C   UNL     1       4.973   3.338  19.544  0.00  0.00    +0.000 A 
ATOM      9  C   UNL     1       5.105   4.686  19.145  0.00  0.00    +0.000 A 
BRANCH   6  10
ATOM     10  O   UNL     1       1.855   2.411  17.796  0.00  0.00    +0.000 OA
ATOM     11  C   UNL     1       0.740   2.332  18.674  0.00  0.00    +0.000 C 
ENDBRANCH   6  10
BRANCH   9  12
ATOM     12  O   UNL     1       6.231   5.258  19.664  0.00  0.00    +0.000 OA
ATOM     13  C   UNL     1       7.376   5.400  18.840  0.00  0.00    +0.000 C 
ENDBRANCH   9  12
ENDBRANCH   1   4
BRANCH   1  15
ATOM     14  C   UNL     1       5.194   5.952  15.690  0.00  0.00    +0.000 C 
ATOM     15  C   UNL     1       4.990   7.008  16.770  0.00  0.00    +0.000 C 
ENDBRANCH   1  15
BRANCH   2  16
ATOM     16  C   UNL     1       2.782   8.764  17.744  0.00  0.00    +0.000 C 
BRANCH  16  17
ATOM     17  C   UNL     1       1.313   9.192  17.700  0.00  0.00    +0.000 C 
BRANCH  17  18
ATOM     18  C   UNL     1       0.888  10.208  18.696  0.00  0.00    +0.000 A 
ATOM     19  N   UNL     1      -0.188  10.211  19.452  0.00  0.00    +0.000 NA
ATOM     20  C   UNL     1      -0.030  11.367  20.185  0.00  0.00    +0.000 A 
ATOM     21  N   UNL     1       1.074  12.065  19.867  0.00  0.00    +0.000 NA
ATOM     22  O   UNL     1       1.678  11.301  18.879  0.00  0.00    +0.000 OA
BRANCH  20  23
ATOM     23  C   UNL     1      -0.987  11.800  21.195  0.00  0.00    +0.000 A 
ATOM     24  C   UNL     1      -1.073  11.148  22.432  0.00  0.00    +0.000 A 
ATOM     25  C   UNL     1      -2.010  11.558  23.385  0.00  0.00    +0.000 A 
ATOM     26  C   UNL     1      -2.854  12.639  23.128  0.00  0.00    +0.000 A 
ATOM     27  C   UNL     1      -2.783  13.290  21.897  0.00  0.00    +0.000 A 
ATOM     28  C   UNL     1      -1.850  12.875  20.941  0.00  0.00    +0.000 A 
BRANCH  26  29
ATOM     29  O   UNL     1      -3.738  12.950  24.124  0.00  0.00    +0.000 OA
ATOM     30  C   UNL     1      -5.111  12.929  23.749  0.00  0.00    +0.000 C 
ENDBRANCH  26  29
ENDBRANCH  20  23
ENDBRANCH  17  18
ENDBRANCH  16  17
ENDBRANCH   2  16
TORSDOF 9
ENDMDL
