MODEL 1
REMARK VINA RESULT:      -9.0      0.000      0.000
REMARK  Name = 
REMARK  5 active torsions:
REMARK  status: ('A' for Active; 'I' for Inactive)
REMARK    1  A    between atoms: C_1  and  N_2
REMARK    2  A    between atoms: C_5  and  N_6
REMARK    3  A    between atoms: C_7  and  C_9
REMARK    4  A    between atoms: N_11  and  C_12
REMARK    5  A    between atoms: C_16  and  C_17
REMARK                            x       y       z     vdW  Elec       q    Type
REMARK                         _______ _______ _______ _____ _____    ______ ____
ROOT
ATOM      1  N   UNL     1       1.456   8.886  19.412  0.00  0.00    +0.000 N 
ATOM      2  C   UNL     1       2.196   8.207  18.465  0.00  0.00    +0.000 C 
ATOM      3  O   UNL     1       2.375   8.640  17.336  0.00  0.00    +0.000 OA
ATOM      4  H   UNL     1       1.396   8.469  20.338  0.00  0.00    +0.000 HD
ENDROOT
BRANCH   1   9
ATOM      5  C   UNL     1       0.579  13.388  20.848  0.00  0.00    +0.000 C 
ATOM      6  N   UNL     1      -0.028  12.230  20.215  0.00  0.00    +0.000 N 
ATOM      7  C   UNL     1       0.588  10.989  20.400  0.00  0.00    +0.000 C 
ATOM      8  O   UNL     1       1.121  10.679  21.469  0.00  0.00    +0.000 OA
ATOM      9  C   UNL     1       0.773  10.154  19.120  0.00  0.00    +0.000 C 
ATOM     10  C   UNL     1      -0.529   9.903  18.364  0.00  0.00    +0.000 C 
ATOM     11  O   UNL     1      -1.127  11.103  17.862  0.00  0.00    +0.000 OA
ATOM     12  C   UNL     1      -1.947  11.659  18.807  0.00  0.00    +0.000 A 
ATOM     13  C   UNL     1      -3.313  11.698  18.523  0.00  0.00    +0.000 A 
ATOM     14  C   UNL     1      -4.196  12.274  19.434  0.00  0.00    +0.000 A 
ATOM     15  C   UNL     1      -3.707  12.835  20.612  0.00  0.00    +0.000 A 
ATOM     16  C   UNL     1      -2.331  12.842  20.866  0.00  0.00    +0.000 A 
ATOM     17  C   UNL     1      -1.431  12.248  19.967  0.00  0.00    +0.000 A 
ENDBRANCH   1   9
BRANCH   2  18
ATOM     18  C   UNL     1       2.737   6.902  18.909  0.00  0.00    +0.000 A 
ATOM     19  N   UNL     1       2.124   6.136  19.843  0.00  0.00    +0.000 NA
ATOM     20  N   UNL     1       2.919   5.047  19.962  0.00  0.00    +0.000 N 
ATOM     21  C   UNL     1       2.532   3.946  20.810  0.00  0.00    +0.000 C 
ATOM     22  C   UNL     1       4.032   5.109  19.177  0.00  0.00    +0.000 A 
ATOM     23  C   UNL     1       3.925   6.269  18.446  0.00  0.00    +0.000 A 
ATOM     24  C   UNL     1       4.928   6.679  17.426  0.00  0.00    +0.000 C 
ATOM     25  C   UNL     1       5.843   5.495  17.029  0.00  0.00    +0.000 C 
ATOM     26  C   UNL     1       6.291   4.681  18.273  0.00  0.00    +0.000 C 
ATOM     27  C   UNL     1       5.115   4.097  19.083  0.00  0.00    +0.000 C 
BRANCH  25  28
ATOM     28  C   UNL     1       5.213   4.609  15.950  0.00  0.00    +0.000 C 
ATOM     29  F   UNL     1       3.951   4.234  16.236  0.00  0.00    +0.000 F 
ATOM     30  F   UNL     1       5.167   5.287  14.776  0.00  0.00    +0.000 F 
ATOM     31  F   UNL     1       5.927   3.487  15.712  0.00  0.00    +0.000 F 
ENDBRANCH  25  28
ENDBRANCH   2  18
TORSDOF 3
ENDMDL
MODEL 2
REMARK VINA RESULT:      -8.5      2.517      4.245
REMARK  Name = 
REMARK  5 active torsions:
REMARK  status: ('A' for Active; 'I' for Inactive)
REMARK    1  A    between atoms: C_1  and  N_2
REMARK    2  A    between atoms: C_5  and  N_6
REMARK    3  A    between atoms: C_7  and  C_9
REMARK    4  A    between atoms: N_11  and  C_12
REMARK    5  A    between atoms: C_16  and  C_17
REMARK                            x       y       z     vdW  Elec       q    Type
REMARK                         _______ _______ _______ _____ _____    ______ ____
ROOT
ATOM      1  N   UNL     1       1.179   9.061  19.455  0.00  0.00    +0.000 N 
ATOM      2  C   UNL     1       1.579   7.994  20.235  0.00  0.00    +0.000 C 
ATOM      3  O   UNL     1       1.409   7.965  21.446  0.00  0.00    +0.000 OA
ATOM      4  H   UNL     1       1.324   8.979  18.452  0.00  0.00    +0.000 HD
ENDROOT
BRANCH   1   9
ATOM      5  C   UNL     1      -2.495  12.155  19.298  0.00  0.00    +0.000 C 
ATOM      6  N   UNL     1      -1.059  12.064  19.497  0.00  0.00    +0.000 N 
ATOM      7  C   UNL     1      -0.408  10.919  19.030  0.00  0.00    +0.000 C 
ATOM      8  O   UNL     1      -0.745  10.359  17.983  0.00  0.00    +0.000 OA
ATOM      9  C   UNL     1       0.572  10.272  20.025  0.00  0.00    +0.000 C 
ATOM     10  C   UNL     1       1.649  11.230  20.527  0.00  0.00    +0.000 C 
ATOM     11  O   UNL     1       1.119  12.322  21.286  0.00  0.00    +0.000 OA
ATOM     12  C   UNL     1       0.781  13.359  20.459  0.00  0.00    +0.000 A 
ATOM     13  C   UNL     1       1.510  14.543  20.589  0.00  0.00    +0.000 A 
ATOM     14  C   UNL     1       1.197  15.641  19.792  0.00  0.00    +0.000 A 
ATOM     15  C   UNL     1       0.139  15.564  18.889  0.00  0.00    +0.000 A 
ATOM     16  C   UNL     1      -0.622  14.393  18.802  0.00  0.00    +0.000 A 
ATOM     17  C   UNL     1      -0.307  13.271  19.584  0.00  0.00    +0.000 A 
ENDBRANCH   1   9
BRANCH   2  18
ATOM     18  C   UNL     1       2.253   6.899  19.502  0.00  0.00    +0.000 A 
ATOM     19  N   UNL     1       3.306   7.112  18.675  0.00  0.00    +0.000 NA
ATOM     20  N   UNL     1       3.625   5.881  18.213  0.00  0.00    +0.000 N 
ATOM     21  C   UNL     1       4.778   5.693  17.365  0.00  0.00    +0.000 C 
ATOM     22  C   UNL     1       2.796   4.903  18.675  0.00  0.00    +0.000 A 
ATOM     23  C   UNL     1       1.928   5.515  19.549  0.00  0.00    +0.000 A 
ATOM     24  C   UNL     1       0.885   4.771  20.309  0.00  0.00    +0.000 C 
ATOM     25  C   UNL     1       1.159   3.247  20.295  0.00  0.00    +0.000 C 
ATOM     26  C   UNL     1       1.585   2.759  18.884  0.00  0.00    +0.000 C 
ATOM     27  C   UNL     1       2.854   3.455  18.349  0.00  0.00    +0.000 C 
BRANCH  25  28
ATOM     28  C   UNL     1       2.153   2.824  21.381  0.00  0.00    +0.000 C 
ATOM     29  F   UNL     1       2.527   3.837  22.188  0.00  0.00    +0.000 F 
ATOM     30  F   UNL     1       1.586   1.879  22.172  0.00  0.00    +0.000 F 
ATOM     31  F   UNL     1       3.277   2.271  20.876  0.00  0.00    +0.000 F 
ENDBRANCH  25  28
ENDBRANCH   2  18
TORSDOF 3
ENDMDL
MODEL 3
REMARK VINA RESULT:      -8.4      3.909      8.595
REMARK  Name = 
REMARK  5 active torsions:
REMARK  status: ('A' for Active; 'I' for Inactive)
REMARK    1  A    between atoms: C_1  and  N_2
REMARK    2  A    between atoms: C_5  and  N_6
REMARK    3  A    between atoms: C_7  and  C_9
REMARK    4  A    between atoms: N_11  and  C_12
REMARK    5  A    between atoms: C_16  and  C_17
REMARK                            x       y       z     vdW  Elec       q    Type
REMARK                         _______ _______ _______ _____ _____    ______ ____
ROOT
ATOM      1  N   UNL     1       1.105   8.465  20.547  0.00  0.00    +0.000 N 
ATOM      2  C   UNL     1       1.111   9.255  21.679  0.00  0.00    +0.000 C 
ATOM      3  O   UNL     1       1.925   9.108  22.580  0.00  0.00    +0.000 OA
ATOM      4  H   UNL     1       0.418   8.688  19.832  0.00  0.00    +0.000 HD
ENDROOT
BRANCH   1   9
ATOM      5  C   UNL     1       4.489   6.486  17.765  0.00  0.00    +0.000 C 
ATOM      6  N   UNL     1       3.351   6.175  18.613  0.00  0.00    +0.000 N 
ATOM      7  C   UNL     1       2.439   7.199  18.883  0.00  0.00    +0.000 C 
ATOM      8  O   UNL     1       2.140   8.044  18.035  0.00  0.00    +0.000 OA
ATOM      9  C   UNL     1       2.039   7.344  20.362  0.00  0.00    +0.000 C 
ATOM     10  C   UNL     1       1.469   6.064  20.967  0.00  0.00    +0.000 C 
ATOM     11  O   UNL     1       2.419   4.994  21.011  0.00  0.00    +0.000 OA
ATOM     12  C   UNL     1       2.396   4.285  19.840  0.00  0.00    +0.000 A 
ATOM     13  C   UNL     1       1.960   2.960  19.905  0.00  0.00    +0.000 A 
ATOM     14  C   UNL     1       1.936   2.180  18.752  0.00  0.00    +0.000 A 
ATOM     15  C   UNL     1       2.376   2.716  17.543  0.00  0.00    +0.000 A 
ATOM     16  C   UNL     1       2.863   4.027  17.495  0.00  0.00    +0.000 A 
ATOM     17  C   UNL     1       2.875   4.832  18.645  0.00  0.00    +0.000 A 
ENDBRANCH   1   9
BRANCH   2  18
ATOM     18  C   UNL     1       0.043  10.278  21.735  0.00  0.00    +0.000 A 
ATOM     19  N   UNL     1      -0.592  10.611  22.885  0.00  0.00    +0.000 NA
ATOM     20  N   UNL     1      -1.478  11.565  22.516  0.00  0.00    +0.000 N 
ATOM     21  C   UNL     1      -2.282  12.239  23.507  0.00  0.00    +0.000 C 
ATOM     22  C   UNL     1      -1.464  11.822  21.178  0.00  0.00    +0.000 A 
ATOM     23  C   UNL     1      -0.461  11.046  20.647  0.00  0.00    +0.000 A 
ATOM     24  C   UNL     1      -0.090  11.075  19.205  0.00  0.00    +0.000 C 
ATOM     25  C   UNL     1      -0.678  12.322  18.499  0.00  0.00    +0.000 C 
ATOM     26  C   UNL     1      -2.148  12.577  18.927  0.00  0.00    +0.000 C 
ATOM     27  C   UNL     1      -2.319  12.791  20.446  0.00  0.00    +0.000 C 
BRANCH  25  28
ATOM     28  C   UNL     1       0.204  13.561  18.678  0.00  0.00    +0.000 C 
ATOM     29  F   UNL     1       0.649  13.724  19.940  0.00  0.00    +0.000 F 
ATOM     30  F   UNL     1       1.299  13.458  17.884  0.00  0.00    +0.000 F 
ATOM     31  F   UNL     1      -0.420  14.704  18.317  0.00  0.00    +0.000 F 
ENDBRANCH  25  28
ENDBRANCH   2  18
TORSDOF 3
ENDMDL
MODEL 4
REMARK VINA RESULT:      -8.3      3.977      8.582
REMARK  Name = 
REMARK  5 active torsions:
REMARK  status: ('A' for Active; 'I' for Inactive)
REMARK    1  A    between atoms: C_1  and  N_2
REMARK    2  A    between atoms: C_5  and  N_6
REMARK    3  A    between atoms: C_7  and  C_9
REMARK    4  A    between atoms: N_11  and  C_12
REMARK    5  A    between atoms: C_16  and  C_17
REMARK                            x       y       z     vdW  Elec       q    Type
REMARK                         _______ _______ _______ _____ _____    ______ ____
ROOT
ATOM      1  N   UNL     1       1.281   8.584  20.240  0.00  0.00    +0.000 N 
ATOM      2  C   UNL     1       1.154   9.366  21.370  0.00  0.00    +0.000 C 
ATOM      3  O   UNL     1       1.746   9.119  22.411  0.00  0.00    +0.000 OA
ATOM      4  H   UNL     1       0.784   8.890  19.407  0.00  0.00    +0.000 HD
ENDROOT
BRANCH   1   9
ATOM      5  C   UNL     1       4.647   6.050  17.927  0.00  0.00    +0.000 C 
ATOM      6  N   UNL     1       3.410   5.927  18.678  0.00  0.00    +0.000 N 
ATOM      7  C   UNL     1       2.603   7.062  18.794  0.00  0.00    +0.000 C 
ATOM      8  O   UNL     1       2.480   7.871  17.871  0.00  0.00    +0.000 OA
ATOM      9  C   UNL     1       2.091   7.357  20.216  0.00  0.00    +0.000 C 
ATOM     10  C   UNL     1       1.325   6.194  20.840  0.00  0.00    +0.000 C 
ATOM     11  O   UNL     1       2.137   5.032  21.043  0.00  0.00    +0.000 OA
ATOM     12  C   UNL     1       2.136   4.247  19.921  0.00  0.00    +0.000 A 
ATOM     13  C   UNL     1       1.546   2.986  20.026  0.00  0.00    +0.000 A 
ATOM     14  C   UNL     1       1.535   2.132  18.926  0.00  0.00    +0.000 A 
ATOM     15  C   UNL     1       2.141   2.527  17.735  0.00  0.00    +0.000 A 
ATOM     16  C   UNL     1       2.778   3.770  17.653  0.00  0.00    +0.000 A 
ATOM     17  C   UNL     1       2.780   4.650  18.747  0.00  0.00    +0.000 A 
ENDBRANCH   1   9
BRANCH   2  18
ATOM     18  C   UNL     1       0.227  10.513  21.238  0.00  0.00    +0.000 A 
ATOM     19  N   UNL     1      -0.816  10.711  22.080  0.00  0.00    +0.000 NA
ATOM     20  N   UNL     1      -1.402  11.845  21.629  0.00  0.00    +0.000 N 
ATOM     21  C   UNL     1      -2.509  12.431  22.345  0.00  0.00    +0.000 C 
ATOM     22  C   UNL     1      -0.804  12.350  20.513  0.00  0.00    +0.000 A 
ATOM     23  C   UNL     1       0.282  11.545  20.259  0.00  0.00    +0.000 A 
ATOM     24  C   UNL     1       1.231  11.795  19.140  0.00  0.00    +0.000 C 
ATOM     25  C   UNL     1       1.076  13.231  18.581  0.00  0.00    +0.000 C 
ATOM     26  C   UNL     1      -0.418  13.624  18.432  0.00  0.00    +0.000 C 
ATOM     27  C   UNL     1      -1.206  13.563  19.757  0.00  0.00    +0.000 C 
BRANCH  25  28
ATOM     28  C   UNL     1       1.871  14.259  19.391  0.00  0.00    +0.000 C 
ATOM     29  F   UNL     1       2.044  13.907  20.681  0.00  0.00    +0.000 F 
ATOM     30  F   UNL     1       3.107  14.405  18.853  0.00  0.00    +0.000 F 
ATOM     31  F   UNL     1       1.304  15.486  19.378  0.00  0.00    +0.000 F 
ENDBRANCH  25  28
ENDBRANCH   2  18
TORSDOF 3
ENDMDL
MODEL 5
REMARK VINA RESULT:      -8.3      4.386      9.314
REMARK  Name = 
REMARK  5 active torsions:
REMARK  status: ('A' for Active; 'I' for Inactive)
REMARK    1  A    between atoms: C_1  and  N_2
REMARK    2  A    between atoms: C_5  and  N_6
REMARK    3  A    between atoms: C_7  and  C_9
REMARK    4  A    between atoms: N_11  and  C_12
REMARK    5  A    between atoms: C_16  and  C_17
REMARK                            x       y       z     vdW  Elec       q    Type
REMARK                         _______ _______ _______ _____ _____    ______ ____
ROOT
ATOM      1  N   UNL     1       1.523   8.309  19.503  0.00  0.00    +0.000 N 
ATOM      2  C   UNL     1       0.958   9.087  20.493  0.00  0.00    +0.000 C 
ATOM      3  O   UNL     1       1.172   8.896  21.682  0.00  0.00    +0.000 OA
ATOM      4  H   UNL     1       1.322   8.568  18.540  0.00  0.00    +0.000 HD
ENDROOT
BRANCH   1   9
ATOM      5  C   UNL     1       5.448   5.813  18.292  0.00  0.00    +0.000 C 
ATOM      6  N   UNL     1       4.081   5.675  18.765  0.00  0.00    +0.000 N 
ATOM      7  C   UNL     1       3.212   6.751  18.569  0.00  0.00    +0.000 C 
ATOM      8  O   UNL     1       3.258   7.449  17.552  0.00  0.00    +0.000 OA
ATOM      9  C   UNL     1       2.379   7.152  19.800  0.00  0.00    +0.000 C 
ATOM     10  C   UNL     1       1.553   6.005  20.376  0.00  0.00    +0.000 C 
ATOM     11  O   UNL     1       2.357   4.936  20.886  0.00  0.00    +0.000 OA
ATOM     12  C   UNL     1       2.648   4.041  19.892  0.00  0.00    +0.000 A 
ATOM     13  C   UNL     1       2.115   2.756  20.013  0.00  0.00    +0.000 A 
ATOM     14  C   UNL     1       2.395   1.794  19.046  0.00  0.00    +0.000 A 
ATOM     15  C   UNL     1       3.231   2.109  17.977  0.00  0.00    +0.000 A 
ATOM     16  C   UNL     1       3.807   3.381  17.890  0.00  0.00    +0.000 A 
ATOM     17  C   UNL     1       3.518   4.368  18.846  0.00  0.00    +0.000 A 
ENDBRANCH   1   9
BRANCH   2  18
ATOM     18  C   UNL     1       0.052  10.154  20.012  0.00  0.00    +0.000 A 
ATOM     19  N   UNL     1      -0.471  10.161  18.762  0.00  0.00    +0.000 NA
ATOM     20  N   UNL     1      -1.232  11.280  18.721  0.00  0.00    +0.000 N 
ATOM     21  C   UNL     1      -2.034  11.577  17.559  0.00  0.00    +0.000 C 
ATOM     22  C   UNL     1      -1.181  12.005  19.874  0.00  0.00    +0.000 A 
ATOM     23  C   UNL     1      -0.401  11.285  20.748  0.00  0.00    +0.000 A 
ATOM     24  C   UNL     1      -0.139  11.721  22.148  0.00  0.00    +0.000 C 
ATOM     25  C   UNL     1      -1.135  12.821  22.590  0.00  0.00    +0.000 C 
ATOM     26  C   UNL     1      -1.343  13.880  21.474  0.00  0.00    +0.000 C 
ATOM     27  C   UNL     1      -1.876  13.287  20.153  0.00  0.00    +0.000 C 
BRANCH  25  28
ATOM     28  C   UNL     1      -2.459  12.239  23.094  0.00  0.00    +0.000 C 
ATOM     29  F   UNL     1      -3.417  12.191  22.147  0.00  0.00    +0.000 F 
ATOM     30  F   UNL     1      -2.262  10.967  23.522  0.00  0.00    +0.000 F 
ATOM     31  F   UNL     1      -2.962  12.920  24.147  0.00  0.00    +0.000 F 
ENDBRANCH  25  28
ENDBRANCH   2  18
TORSDOF 3
ENDMDL
MODEL 6
REMARK VINA RESULT:      -8.1      3.253      8.415
REMARK  Name = 
REMARK  5 active torsions:
REMARK  status: ('A' for Active; 'I' for Inactive)
REMARK    1  A    between atoms: C_1  and  N_2
REMARK    2  A    between atoms: C_5  and  N_6
REMARK    3  A    between atoms: C_7  and  C_9
REMARK    4  A    between atoms: N_11  and  C_12
REMARK    5  A    between atoms: C_16  and  C_17
REMARK                            x       y       z     vdW  Elec       q    Type
REMARK                         _______ _______ _______ _____ _____    ______ ____
ROOT
ATOM      1  N   UNL     1       1.738   8.430  19.636  0.00  0.00    +0.000 N 
ATOM      2  C   UNL     1       1.246   9.278  20.608  0.00  0.00    +0.000 C 
ATOM      3  O   UNL     1       1.304   9.015  21.801  0.00  0.00    +0.000 OA
ATOM      4  H   UNL     1       1.684   8.751  18.672  0.00  0.00    +0.000 HD
ENDROOT
BRANCH   1   9
ATOM      5  C   UNL     1       5.237   5.266  18.718  0.00  0.00    +0.000 C 
ATOM      6  N   UNL     1       3.822   5.379  19.024  0.00  0.00    +0.000 N 
ATOM      7  C   UNL     1       3.203   6.611  18.801  0.00  0.00    +0.000 C 
ATOM      8  O   UNL     1       3.505   7.328  17.842  0.00  0.00    +0.000 OA
ATOM      9  C   UNL     1       2.317   7.117  19.953  0.00  0.00    +0.000 C 
ATOM     10  C   UNL     1       1.224   6.131  20.358  0.00  0.00    +0.000 C 
ATOM     11  O   UNL     1       1.742   4.905  20.886  0.00  0.00    +0.000 OA
ATOM     12  C   UNL     1       1.979   4.012  19.876  0.00  0.00    +0.000 A 
ATOM     13  C   UNL     1       1.201   2.853  19.854  0.00  0.00    +0.000 A 
ATOM     14  C   UNL     1       1.411   1.895  18.865  0.00  0.00    +0.000 A 
ATOM     15  C   UNL     1       2.416   2.083  17.919  0.00  0.00    +0.000 A 
ATOM     16  C   UNL     1       3.228   3.221  17.979  0.00  0.00    +0.000 A 
ATOM     17  C   UNL     1       3.017   4.205  18.957  0.00  0.00    +0.000 A 
ENDBRANCH   1   9
BRANCH   2  18
ATOM     18  C   UNL     1       0.618  10.518  20.099  0.00  0.00    +0.000 A 
ATOM     19  N   UNL     1       1.223  11.729  20.175  0.00  0.00    +0.000 NA
ATOM     20  N   UNL     1       0.339  12.583  19.609  0.00  0.00    +0.000 N 
ATOM     21  C   UNL     1       0.681  13.972  19.421  0.00  0.00    +0.000 C 
ATOM     22  C   UNL     1      -0.817  11.976  19.218  0.00  0.00    +0.000 A 
ATOM     23  C   UNL     1      -0.655  10.635  19.473  0.00  0.00    +0.000 A 
ATOM     24  C   UNL     1      -1.687   9.615  19.137  0.00  0.00    +0.000 C 
ATOM     25  C   UNL     1      -2.736  10.182  18.149  0.00  0.00    +0.000 C 
ATOM     26  C   UNL     1      -3.167  11.620  18.541  0.00  0.00    +0.000 C 
ATOM     27  C   UNL     1      -1.995  12.624  18.585  0.00  0.00    +0.000 C 
BRANCH  25  28
ATOM     28  C   UNL     1      -2.273  10.089  16.693  0.00  0.00    +0.000 C 
ATOM     29  F   UNL     1      -1.060   9.518  16.552  0.00  0.00    +0.000 F 
ATOM     30  F   UNL     1      -3.149   9.333  15.984  0.00  0.00    +0.000 F 
ATOM     31  F   UNL     1      -2.229  11.293  16.080  0.00  0.00    +0.000 F 
ENDBRANCH  25  28
ENDBRANCH   2  18
TORSDOF 3
ENDMDL
MODEL 7
REMARK VINA RESULT:      -8.1      2.242      3.737
REMARK  Name = 
REMARK  5 active torsions:
REMARK  status: ('A' for Active; 'I' for Inactive)
REMARK    1  A    between atoms: C_1  and  N_2
REMARK    2  A    between atoms: C_5  and  N_6
REMARK    3  A    between atoms: C_7  and  C_9
REMARK    4  A    between atoms: N_11  and  C_12
REMARK    5  A    between atoms: C_16  and  C_17
REMARK                            x       y       z     vdW  Elec       q    Type
REMARK                         _______ _______ _______ _____ _____    ______ ____
ROOT
ATOM      1  N   UNL     1       1.275   8.938  19.038  0.00  0.00    +0.000 N 
ATOM      2  C   UNL     1       1.823   7.811  19.618  0.00  0.00    +0.000 C 
ATOM      3  O   UNL     1       1.672   7.540  20.801  0.00  0.00    +0.000 OA
ATOM      4  H   UNL     1       1.417   9.059  18.039  0.00  0.00    +0.000 HD
ENDROOT
BRANCH   1   9
ATOM      5  C   UNL     1      -2.636  11.725  19.231  0.00  0.00    +0.000 C 
ATOM      6  N   UNL     1      -1.220  11.685  19.549  0.00  0.00    +0.000 N 
ATOM      7  C   UNL     1      -0.432  10.732  18.897  0.00  0.00    +0.000 C 
ATOM      8  O   UNL     1      -0.629  10.419  17.720  0.00  0.00    +0.000 OA
ATOM      9  C   UNL     1       0.516   9.932  19.810  0.00  0.00    +0.000 C 
ATOM     10  C   UNL     1       1.457  10.812  20.628  0.00  0.00    +0.000 C 
ATOM     11  O   UNL     1       0.770  11.652  21.562  0.00  0.00    +0.000 OA
ATOM     12  C   UNL     1       0.411  12.832  20.969  0.00  0.00    +0.000 A 
ATOM     13  C   UNL     1       1.017  13.996  21.445  0.00  0.00    +0.000 A 
ATOM     14  C   UNL     1       0.675  15.230  20.898  0.00  0.00    +0.000 A 
ATOM     15  C   UNL     1      -0.293  15.301  19.899  0.00  0.00    +0.000 A 
ATOM     16  C   UNL     1      -0.936  14.137  19.464  0.00  0.00    +0.000 A 
ATOM     17  C   UNL     1      -0.588  12.884  19.991  0.00  0.00    +0.000 A 
ENDBRANCH   1   9
BRANCH   2  18
ATOM     18  C   UNL     1       2.631   6.968  18.708  0.00  0.00    +0.000 A 
ATOM     19  N   UNL     1       3.585   7.477  17.892  0.00  0.00    +0.000 NA
ATOM     20  N   UNL     1       4.081   6.401  17.240  0.00  0.00    +0.000 N 
ATOM     21  C   UNL     1       5.200   6.542  16.340  0.00  0.00    +0.000 C 
ATOM     22  C   UNL     1       3.456   5.236  17.574  0.00  0.00    +0.000 A 
ATOM     23  C   UNL     1       2.546   5.555  18.556  0.00  0.00    +0.000 A 
ATOM     24  C   UNL     1       1.689   4.539  19.226  0.00  0.00    +0.000 C 
ATOM     25  C   UNL     1       2.215   3.105  18.974  0.00  0.00    +0.000 C 
ATOM     26  C   UNL     1       2.638   2.907  17.494  0.00  0.00    +0.000 C 
ATOM     27  C   UNL     1       3.739   3.883  17.032  0.00  0.00    +0.000 C 
BRANCH  25  28
ATOM     28  C   UNL     1       3.324   2.712  19.954  0.00  0.00    +0.000 C 
ATOM     29  F   UNL     1       2.865   2.375  21.175  0.00  0.00    +0.000 F 
ATOM     30  F   UNL     1       3.994   1.635  19.473  0.00  0.00    +0.000 F 
ATOM     31  F   UNL     1       4.244   3.687  20.121  0.00  0.00    +0.000 F 
ENDBRANCH  25  28
ENDBRANCH   2  18
TORSDOF 3
ENDMDL
MODEL 8
REMARK VINA RESULT:      -8.1      3.590      8.631
REMARK  Name = 
REMARK  5 active torsions:
REMARK  status: ('A' for Active; 'I' for Inactive)
REMARK    1  A    between atoms: C_1  and  N_2
REMARK    2  A    between atoms: C_5  and  N_6
REMARK    3  A    between atoms: C_7  and  C_9
REMARK    4  A    between atoms: N_11  and  C_12
REMARK    5  A    between atoms: C_16  and  C_17
REMARK                            x       y       z     vdW  Elec       q    Type
REMARK                         _______ _______ _______ _____ _____    ______ ____
ROOT
ATOM      1  N   UNL     1       1.413   7.774  18.176  0.00  0.00    +0.000 N 
ATOM      2  C   UNL     1       1.460   9.136  17.957  0.00  0.00    +0.000 C 
ATOM      3  O   UNL     1       2.404   9.680  17.401  0.00  0.00    +0.000 OA
ATOM      4  H   UNL     1       0.569   7.404  18.607  0.00  0.00    +0.000 HD
ENDROOT
BRANCH   1   9
ATOM      5  C   UNL     1       3.829   3.759  19.243  0.00  0.00    +0.000 C 
ATOM      6  N   UNL     1       3.990   5.120  18.763  0.00  0.00    +0.000 N 
ATOM      7  C   UNL     1       2.959   6.028  19.020  0.00  0.00    +0.000 C 
ATOM      8  O   UNL     1       2.319   6.005  20.075  0.00  0.00    +0.000 OA
ATOM      9  C   UNL     1       2.519   6.877  17.813  0.00  0.00    +0.000 C 
ATOM     10  C   UNL     1       3.661   7.661  17.173  0.00  0.00    +0.000 C 
ATOM     11  O   UNL     1       4.669   6.820  16.603  0.00  0.00    +0.000 OA
ATOM     12  C   UNL     1       5.608   6.495  17.545  0.00  0.00    +0.000 A 
ATOM     13  C   UNL     1       6.902   6.981  17.351  0.00  0.00    +0.000 A 
ATOM     14  C   UNL     1       7.907   6.665  18.262  0.00  0.00    +0.000 A 
ATOM     15  C   UNL     1       7.623   5.838  19.347  0.00  0.00    +0.000 A 
ATOM     16  C   UNL     1       6.338   5.309  19.506  0.00  0.00    +0.000 A 
ATOM     17  C   UNL     1       5.310   5.635  18.608  0.00  0.00    +0.000 A 
ENDBRANCH   1   9
BRANCH   2  18
ATOM     18  C   UNL     1       0.296   9.894  18.467  0.00  0.00    +0.000 A 
ATOM     19  N   UNL     1      -0.811  10.126  17.721  0.00  0.00    +0.000 NA
ATOM     20  N   UNL     1      -1.625  10.836  18.536  0.00  0.00    +0.000 N 
ATOM     21  C   UNL     1      -2.958  11.189  18.112  0.00  0.00    +0.000 C 
ATOM     22  C   UNL     1      -1.067  11.102  19.751  0.00  0.00    +0.000 A 
ATOM     23  C   UNL     1       0.153  10.468  19.762  0.00  0.00    +0.000 A 
ATOM     24  C   UNL     1       1.060  10.477  20.943  0.00  0.00    +0.000 C 
ATOM     25  C   UNL     1       0.312  10.924  22.223  0.00  0.00    +0.000 C 
ATOM     26  C   UNL     1      -0.611  12.141  21.945  0.00  0.00    +0.000 C 
ATOM     27  C   UNL     1      -1.679  11.871  20.865  0.00  0.00    +0.000 C 
BRANCH  25  28
ATOM     28  C   UNL     1      -0.435   9.768  22.894  0.00  0.00    +0.000 C 
ATOM     29  F   UNL     1      -0.707   8.748  22.056  0.00  0.00    +0.000 F 
ATOM     30  F   UNL     1       0.320   9.262  23.901  0.00  0.00    +0.000 F 
ATOM     31  F   UNL     1      -1.603  10.155  23.454  0.00  0.00    +0.000 F 
ENDBRANCH  25  28
ENDBRANCH   2  18
TORSDOF 3
ENDMDL
MODEL 9
REMARK VINA RESULT:      -7.9      4.310      8.969
REMARK  Name = 
REMARK  5 active torsions:
REMARK  status: ('A' for Active; 'I' for Inactive)
REMARK    1  A    between atoms: C_1  and  N_2
REMARK    2  A    between atoms: C_5  and  N_6
REMARK    3  A    between atoms: C_7  and  C_9
REMARK    4  A    between atoms: N_11  and  C_12
REMARK    5  A    between atoms: C_16  and  C_17
REMARK                            x       y       z     vdW  Elec       q    Type
REMARK                         _______ _______ _______ _____ _____    ______ ____
ROOT
ATOM      1  N   UNL     1       1.629   8.358  19.427  0.00  0.00    +0.000 N 
ATOM      2  C   UNL     1       1.127   9.266  20.338  0.00  0.00    +0.000 C 
ATOM      3  O   UNL     1       1.309   9.158  21.542  0.00  0.00    +0.000 OA
ATOM      4  H   UNL     1       1.463   8.551  18.443  0.00  0.00    +0.000 HD
ENDROOT
BRANCH   1   9
ATOM      5  C   UNL     1       5.419   5.517  18.611  0.00  0.00    +0.000 C 
ATOM      6  N   UNL     1       4.017   5.505  18.993  0.00  0.00    +0.000 N 
ATOM      7  C   UNL     1       3.249   6.632  18.687  0.00  0.00    +0.000 C 
ATOM      8  O   UNL     1       3.417   7.271  17.645  0.00  0.00    +0.000 OA
ATOM      9  C   UNL     1       2.371   7.157  19.837  0.00  0.00    +0.000 C 
ATOM     10  C   UNL     1       1.422   6.105  20.406  0.00  0.00    +0.000 C 
ATOM     11  O   UNL     1       2.104   5.006  21.019  0.00  0.00    +0.000 OA
ATOM     12  C   UNL     1       2.390   4.043  20.090  0.00  0.00    +0.000 A 
ATOM     13  C   UNL     1       1.751   2.809  20.232  0.00  0.00    +0.000 A 
ATOM     14  C   UNL     1       2.019   1.781  19.332  0.00  0.00    +0.000 A 
ATOM     15  C   UNL     1       2.947   1.977  18.311  0.00  0.00    +0.000 A 
ATOM     16  C   UNL     1       3.624   3.197  18.207  0.00  0.00    +0.000 A 
ATOM     17  C   UNL     1       3.350   4.250  19.094  0.00  0.00    +0.000 A 
ENDBRANCH   1   9
BRANCH   2  18
ATOM     18  C   UNL     1       0.329  10.366  19.752  0.00  0.00    +0.000 A 
ATOM     19  N   UNL     1      -0.891  10.170  19.197  0.00  0.00    +0.000 NA
ATOM     20  N   UNL     1      -1.278  11.400  18.789  0.00  0.00    +0.000 N 
ATOM     21  C   UNL     1      -2.591  11.606  18.226  0.00  0.00    +0.000 C 
ATOM     22  C   UNL     1      -0.339  12.361  19.021  0.00  0.00    +0.000 A 
ATOM     23  C   UNL     1       0.692  11.741  19.686  0.00  0.00    +0.000 A 
ATOM     24  C   UNL     1       1.900  12.467  20.165  0.00  0.00    +0.000 C 
ATOM     25  C   UNL     1       1.669  13.998  20.175  0.00  0.00    +0.000 C 
ATOM     26  C   UNL     1       0.940  14.471  18.888  0.00  0.00    +0.000 C 
ATOM     27  C   UNL     1      -0.435  13.804  18.679  0.00  0.00    +0.000 C 
BRANCH  25  28
ATOM     28  C   UNL     1       0.965  14.472  21.449  0.00  0.00    +0.000 C 
ATOM     29  F   UNL     1       0.344  13.481  22.118  0.00  0.00    +0.000 F 
ATOM     30  F   UNL     1       1.877  15.011  22.298  0.00  0.00    +0.000 F 
ATOM     31  F   UNL     1       0.050  15.438  21.213  0.00  0.00    +0.000 F 
ENDBRANCH  25  28
ENDBRANCH   2  18
TORSDOF 3
ENDMDL
