MODEL 1
REMARK VINA RESULT:      -8.3      0.000      0.000
REMARK  Name = 
REMARK  5 active torsions:
REMARK  status: ('A' for Active; 'I' for Inactive)
REMARK    1  A    between atoms: C_1  and  O_2
REMARK    2  A    between atoms: O_2  and  C_3
REMARK    3  A    between atoms: C_8  and  C_9
REMARK    4  A    between atoms: C_14  and  O_15
REMARK    5  A    between atoms: O_15  and  C_16
REMARK                            x       y       z     vdW  Elec       q    Type
REMARK                         _______ _______ _______ _____ _____    ______ ____
ROOT
ATOM      1  C   UNL     1      -0.825  10.940  20.716  0.00  0.00    +0.000 A 
ATOM      2  N   UNL     1      -1.356  11.755  21.669  0.00  0.00    +0.000 NA
ATOM      3  C   UNL     1      -1.273  11.309  22.941  0.00  0.00    +0.000 A 
ATOM      4  C   UNL     1      -0.695  10.092  23.260  0.00  0.00    +0.000 A 
ATOM      5  N   UNL     1      -0.187   9.252  22.326  0.00  0.00    +0.000 NA
ATOM      6  C   UNL     1      -0.261   9.694  21.049  0.00  0.00    +0.000 A 
ENDROOT
BRANCH   1  12
ATOM      7  C   UNL     1      -3.994  10.990  16.536  0.00  0.00    +0.000 C 
ATOM      8  O   UNL     1      -4.672  11.973  16.257  0.00  0.00    +0.000 OA
ATOM      9  N   UNL     1      -3.332  10.824  17.739  0.00  0.00    +0.000 N 
ATOM     10  C   UNL     1      -3.441  11.827  18.781  0.00  0.00    +0.000 C 
ATOM     11  C   UNL     1      -2.073  12.439  19.069  0.00  0.00    +0.000 C 
ATOM     12  C   UNL     1      -0.943  11.408  19.277  0.00  0.00    +0.000 C 
ATOM     13  C   UNL     1      -1.034  10.197  18.325  0.00  0.00    +0.000 C 
ATOM     14  C   UNL     1      -2.456   9.706  18.058  0.00  0.00    +0.000 C 
BRANCH   7  16
ATOM     15  C   UNL     1      -3.467  10.292  14.350  0.00  0.00    +0.000 C 
ATOM     16  O   UNL     1      -3.814   9.940  15.689  0.00  0.00    +0.000 OA
ENDBRANCH   7  16
ENDBRANCH   1  12
BRANCH   6  17
ATOM     17  O   UNL     1       0.251   8.895  20.039  0.00  0.00    +0.000 OA
BRANCH  17  18
ATOM     18  C   UNL     1       1.662   8.544  20.101  0.00  0.00    +0.000 C 
ATOM     19  C   UNL     1       2.009   7.048  20.246  0.00  0.00    +0.000 C 
ATOM     20  N   UNL     1       2.477   7.054  18.899  0.00  0.00    +0.000 N 
ATOM     21  C   UNL     1       3.255   6.123  18.189  0.00  0.00    +0.000 A 
ATOM     22  C   UNL     1       3.184   4.774  18.528  0.00  0.00    +0.000 A 
ATOM     23  C   UNL     1       3.901   3.833  17.793  0.00  0.00    +0.000 A 
ATOM     24  C   UNL     1       4.703   4.252  16.732  0.00  0.00    +0.000 A 
ATOM     25  C   UNL     1       5.451   3.334  15.965  0.00  0.00    +0.000 A 
ATOM     26  C   UNL     1       6.255   3.777  14.919  0.00  0.00    +0.000 A 
ATOM     27  C   UNL     1       6.310   5.136  14.636  0.00  0.00    +0.000 A 
ATOM     28  C   UNL     1       5.557   6.043  15.397  0.00  0.00    +0.000 A 
ATOM     29  C   UNL     1       4.743   5.630  16.449  0.00  0.00    +0.000 A 
ATOM     30  N   UNL     1       4.024   6.539  17.155  0.00  0.00    +0.000 NA
ATOM     31  C   UNL     1       2.393   8.466  18.739  0.00  0.00    +0.000 C 
ENDBRANCH  17  18
ENDBRANCH   6  17
TORSDOF 4
ENDMDL
MODEL 2
REMARK VINA RESULT:      -8.3      5.884      9.682
REMARK  Name = 
REMARK  5 active torsions:
REMARK  status: ('A' for Active; 'I' for Inactive)
REMARK    1  A    between atoms: C_1  and  O_2
REMARK    2  A    between atoms: O_2  and  C_3
REMARK    3  A    between atoms: C_8  and  C_9
REMARK    4  A    between atoms: C_14  and  O_15
REMARK    5  A    between atoms: O_15  and  C_16
REMARK                            x       y       z     vdW  Elec       q    Type
REMARK                         _______ _______ _______ _____ _____    ______ ____
ROOT
ATOM      1  C   UNL     1       5.792   4.961  16.418  0.00  0.00    +0.000 A 
ATOM      2  N   UNL     1       4.928   4.423  15.513  0.00  0.00    +0.000 NA
ATOM      3  C   UNL     1       5.410   4.254  14.263  0.00  0.00    +0.000 A 
ATOM      4  C   UNL     1       6.701   4.615  13.916  0.00  0.00    +0.000 A 
ATOM      5  N   UNL     1       7.569   5.179  14.791  0.00  0.00    +0.000 NA
ATOM      6  C   UNL     1       7.094   5.347  16.047  0.00  0.00    +0.000 A 
ENDROOT
BRANCH   1  12
ATOM      7  C   UNL     1       2.270   3.283  19.924  0.00  0.00    +0.000 C 
ATOM      8  O   UNL     1       2.585   2.533  20.841  0.00  0.00    +0.000 OA
ATOM      9  N   UNL     1       3.083   3.565  18.842  0.00  0.00    +0.000 N 
ATOM     10  C   UNL     1       4.384   2.936  18.718  0.00  0.00    +0.000 C 
ATOM     11  C   UNL     1       5.486   3.991  18.760  0.00  0.00    +0.000 C 
ATOM     12  C   UNL     1       5.255   5.194  17.818  0.00  0.00    +0.000 C 
ATOM     13  C   UNL     1       3.783   5.652  17.760  0.00  0.00    +0.000 C 
ATOM     14  C   UNL     1       2.762   4.515  17.787  0.00  0.00    +0.000 C 
BRANCH   7  16
ATOM     15  C   UNL     1       1.006   5.156  20.587  0.00  0.00    +0.000 C 
ATOM     16  O   UNL     1       1.072   3.928  19.862  0.00  0.00    +0.000 OA
ENDBRANCH   7  16
ENDBRANCH   1  12
BRANCH   6  17
ATOM     17  O   UNL     1       7.928   5.905  17.003  0.00  0.00    +0.000 OA
BRANCH  17  18
ATOM     18  C   UNL     1       7.377   6.943  17.862  0.00  0.00    +0.000 C 
ATOM     19  C   UNL     1       8.313   7.543  18.930  0.00  0.00    +0.000 C 
ATOM     20  N   UNL     1       8.362   8.749  18.171  0.00  0.00    +0.000 N 
ATOM     21  C   UNL     1       8.813  10.036  18.514  0.00  0.00    +0.000 A 
ATOM     22  C   UNL     1       9.828  10.176  19.457  0.00  0.00    +0.000 A 
ATOM     23  C   UNL     1      10.328  11.440  19.760  0.00  0.00    +0.000 A 
ATOM     24  C   UNL     1       9.793  12.563  19.128  0.00  0.00    +0.000 A 
ATOM     25  C   UNL     1      10.265  13.862  19.409  0.00  0.00    +0.000 A 
ATOM     26  C   UNL     1       9.706  14.968  18.776  0.00  0.00    +0.000 A 
ATOM     27  C   UNL     1       8.679  14.778  17.860  0.00  0.00    +0.000 A 
ATOM     28  C   UNL     1       8.220  13.482  17.579  0.00  0.00    +0.000 A 
ATOM     29  C   UNL     1       8.759  12.356  18.196  0.00  0.00    +0.000 A 
ATOM     30  N   UNL     1       8.292  11.119  17.889  0.00  0.00    +0.000 NA
ATOM     31  C   UNL     1       7.344   8.366  17.253  0.00  0.00    +0.000 C 
ENDBRANCH  17  18
ENDBRANCH   6  17
TORSDOF 4
ENDMDL
MODEL 3
REMARK VINA RESULT:      -8.2      3.920      5.332
REMARK  Name = 
REMARK  5 active torsions:
REMARK  status: ('A' for Active; 'I' for Inactive)
REMARK    1  A    between atoms: C_1  and  O_2
REMARK    2  A    between atoms: O_2  and  C_3
REMARK    3  A    between atoms: C_8  and  C_9
REMARK    4  A    between atoms: C_14  and  O_15
REMARK    5  A    between atoms: O_15  and  C_16
REMARK                            x       y       z     vdW  Elec       q    Type
REMARK                         _______ _______ _______ _____ _____    ______ ____
ROOT
ATOM      1  C   UNL     1       0.279  13.323  21.391  0.00  0.00    +0.000 A 
ATOM      2  N   UNL     1      -0.534  14.362  21.728  0.00  0.00    +0.000 NA
ATOM      3  C   UNL     1      -1.445  14.113  22.692  0.00  0.00    +0.000 A 
ATOM      4  C   UNL     1      -1.557  12.873  23.298  0.00  0.00    +0.000 A 
ATOM      5  N   UNL     1      -0.779  11.816  22.960  0.00  0.00    +0.000 NA
ATOM      6  C   UNL     1       0.140  12.060  21.997  0.00  0.00    +0.000 A 
ENDROOT
BRANCH   1  12
ATOM      7  C   UNL     1       3.074  17.056  18.990  0.00  0.00    +0.000 C 
ATOM      8  O   UNL     1       4.256  17.243  19.255  0.00  0.00    +0.000 OA
ATOM      9  N   UNL     1       2.228  16.265  19.745  0.00  0.00    +0.000 N 
ATOM     10  C   UNL     1       2.709  15.620  20.952  0.00  0.00    +0.000 C 
ATOM     11  C   UNL     1       2.638  14.103  20.804  0.00  0.00    +0.000 C 
ATOM     12  C   UNL     1       1.284  13.575  20.283  0.00  0.00    +0.000 C 
ATOM     13  C   UNL     1       0.661  14.462  19.185  0.00  0.00    +0.000 C 
ATOM     14  C   UNL     1       0.846  15.964  19.402  0.00  0.00    +0.000 C 
BRANCH   7  16
ATOM     15  C   UNL     1       2.855  17.100  16.646  0.00  0.00    +0.000 C 
ATOM     16  O   UNL     1       2.451  17.613  17.915  0.00  0.00    +0.000 OA
ENDBRANCH   7  16
ENDBRANCH   1  12
BRANCH   6  17
ATOM     17  O   UNL     1       0.983  11.031  21.607  0.00  0.00    +0.000 OA
BRANCH  17  18
ATOM     18  C   UNL     1       0.392   9.897  20.911  0.00  0.00    +0.000 C 
ATOM     19  C   UNL     1       1.009   9.505  19.553  0.00  0.00    +0.000 C 
ATOM     20  N   UNL     1       1.552   8.338  20.167  0.00  0.00    +0.000 N 
ATOM     21  C   UNL     1       2.106   7.175  19.607  0.00  0.00    +0.000 A 
ATOM     22  C   UNL     1       2.747   7.249  18.372  0.00  0.00    +0.000 A 
ATOM     23  C   UNL     1       3.356   6.118  17.834  0.00  0.00    +0.000 A 
ATOM     24  C   UNL     1       3.302   4.910  18.529  0.00  0.00    +0.000 A 
ATOM     25  C   UNL     1       3.899   3.738  18.018  0.00  0.00    +0.000 A 
ATOM     26  C   UNL     1       3.821   2.541  18.723  0.00  0.00    +0.000 A 
ATOM     27  C   UNL     1       3.150   2.512  19.938  0.00  0.00    +0.000 A 
ATOM     28  C   UNL     1       2.565   3.683  20.445  0.00  0.00    +0.000 A 
ATOM     29  C   UNL     1       2.627   4.897  19.763  0.00  0.00    +0.000 A 
ATOM     30  N   UNL     1       2.056   6.008  20.292  0.00  0.00    +0.000 NA
ATOM     31  C   UNL     1       0.851   8.501  21.396  0.00  0.00    +0.000 C 
ENDBRANCH  17  18
ENDBRANCH   6  17
TORSDOF 4
ENDMDL
MODEL 4
REMARK VINA RESULT:      -8.1      2.881      4.827
REMARK  Name = 
REMARK  5 active torsions:
REMARK  status: ('A' for Active; 'I' for Inactive)
REMARK    1  A    between atoms: C_1  and  O_2
REMARK    2  A    between atoms: O_2  and  C_3
REMARK    3  A    between atoms: C_8  and  C_9
REMARK    4  A    between atoms: C_14  and  O_15
REMARK    5  A    between atoms: O_15  and  C_16
REMARK                            x       y       z     vdW  Elec       q    Type
REMARK                         _______ _______ _______ _____ _____    ______ ____
ROOT
ATOM      1  C   UNL     1      -0.929  11.761  20.540  0.00  0.00    +0.000 A 
ATOM      2  N   UNL     1      -1.301  12.808  19.753  0.00  0.00    +0.000 NA
ATOM      3  C   UNL     1      -1.531  12.520  18.454  0.00  0.00    +0.000 A 
ATOM      4  C   UNL     1      -1.388  11.240  17.946  0.00  0.00    +0.000 A 
ATOM      5  N   UNL     1      -0.992  10.188  18.703  0.00  0.00    +0.000 NA
ATOM      6  C   UNL     1      -0.764  10.468  20.007  0.00  0.00    +0.000 A 
ENDROOT
BRANCH   1  12
ATOM      7  C   UNL     1      -2.337  14.785  24.588  0.00  0.00    +0.000 C 
ATOM      8  O   UNL     1      -3.071  14.367  25.476  0.00  0.00    +0.000 OA
ATOM      9  N   UNL     1      -2.125  14.132  23.388  0.00  0.00    +0.000 N 
ATOM     10  C   UNL     1      -2.816  12.890  23.097  0.00  0.00    +0.000 C 
ATOM     11  C   UNL     1      -1.811  11.752  22.936  0.00  0.00    +0.000 C 
ATOM     12  C   UNL     1      -0.630  12.073  21.994  0.00  0.00    +0.000 C 
ATOM     13  C   UNL     1      -0.107  13.517  22.137  0.00  0.00    +0.000 C 
ATOM     14  C   UNL     1      -1.195  14.567  22.357  0.00  0.00    +0.000 C 
BRANCH   7  16
ATOM     15  C   UNL     1      -0.900  16.123  25.888  0.00  0.00    +0.000 C 
ATOM     16  O   UNL     1      -1.640  15.951  24.679  0.00  0.00    +0.000 OA
ENDBRANCH   7  16
ENDBRANCH   1  12
BRANCH   6  17
ATOM     17  O   UNL     1      -0.368   9.439  20.848  0.00  0.00    +0.000 OA
BRANCH  17  18
ATOM     18  C   UNL     1       1.048   9.103  20.888  0.00  0.00    +0.000 C 
ATOM     19  C   UNL     1       1.412   7.614  21.053  0.00  0.00    +0.000 C 
ATOM     20  N   UNL     1       1.854   7.600  19.697  0.00  0.00    +0.000 N 
ATOM     21  C   UNL     1       2.627   6.664  18.989  0.00  0.00    +0.000 A 
ATOM     22  C   UNL     1       2.577   5.321  19.353  0.00  0.00    +0.000 A 
ATOM     23  C   UNL     1       3.290   4.374  18.621  0.00  0.00    +0.000 A 
ATOM     24  C   UNL     1       4.066   4.782  17.537  0.00  0.00    +0.000 A 
ATOM     25  C   UNL     1       4.808   3.857  16.772  0.00  0.00    +0.000 A 
ATOM     26  C   UNL     1       5.586   4.290  15.702  0.00  0.00    +0.000 A 
ATOM     27  C   UNL     1       5.622   5.644  15.394  0.00  0.00    +0.000 A 
ATOM     28  C   UNL     1       4.875   6.557  16.154  0.00  0.00    +0.000 A 
ATOM     29  C   UNL     1       4.086   6.155  17.229  0.00  0.00    +0.000 A 
ATOM     30  N   UNL     1       3.372   7.069  17.933  0.00  0.00    +0.000 NA
ATOM     31  C   UNL     1       1.752   9.008  19.513  0.00  0.00    +0.000 C 
ENDBRANCH  17  18
ENDBRANCH   6  17
TORSDOF 4
ENDMDL
MODEL 5
REMARK VINA RESULT:      -8.1      3.634      5.211
REMARK  Name = 
REMARK  5 active torsions:
REMARK  status: ('A' for Active; 'I' for Inactive)
REMARK    1  A    between atoms: C_1  and  O_2
REMARK    2  A    between atoms: O_2  and  C_3
REMARK    3  A    between atoms: C_8  and  C_9
REMARK    4  A    between atoms: C_14  and  O_15
REMARK    5  A    between atoms: O_15  and  C_16
REMARK                            x       y       z     vdW  Elec       q    Type
REMARK                         _______ _______ _______ _____ _____    ______ ____
ROOT
ATOM      1  C   UNL     1       0.043  13.408  21.011  0.00  0.00    +0.000 A 
ATOM      2  N   UNL     1      -0.257  14.604  20.433  0.00  0.00    +0.000 NA
ATOM      3  C   UNL     1       0.422  14.904  19.305  0.00  0.00    +0.000 A 
ATOM      4  C   UNL     1       1.375  14.054  18.771  0.00  0.00    +0.000 A 
ATOM      5  N   UNL     1       1.712  12.872  19.343  0.00  0.00    +0.000 NA
ATOM      6  C   UNL     1       1.032  12.563  20.472  0.00  0.00    +0.000 A 
ENDROOT
BRANCH   1  12
ATOM      7  C   UNL     1      -4.618  13.607  23.409  0.00  0.00    +0.000 C 
ATOM      8  O   UNL     1      -5.349  12.625  23.470  0.00  0.00    +0.000 OA
ATOM      9  N   UNL     1      -3.502  13.690  22.596  0.00  0.00    +0.000 N 
ATOM     10  C   UNL     1      -3.151  12.590  21.717  0.00  0.00    +0.000 C 
ATOM     11  C   UNL     1      -1.792  12.015  22.109  0.00  0.00    +0.000 C 
ATOM     12  C   UNL     1      -0.683  13.073  22.300  0.00  0.00    +0.000 C 
ATOM     13  C   UNL     1      -1.176  14.361  22.990  0.00  0.00    +0.000 C 
ATOM     14  C   UNL     1      -2.575  14.811  22.569  0.00  0.00    +0.000 C 
BRANCH   7  16
ATOM     15  C   UNL     1      -6.001  15.471  23.805  0.00  0.00    +0.000 C 
ATOM     16  O   UNL     1      -4.821  14.739  24.137  0.00  0.00    +0.000 OA
ENDBRANCH   7  16
ENDBRANCH   1  12
BRANCH   6  17
ATOM     17  O   UNL     1       1.310  11.364  21.107  0.00  0.00    +0.000 OA
BRANCH  17  18
ATOM     18  C   UNL     1       0.591  10.178  20.665  0.00  0.00    +0.000 C 
ATOM     19  C   UNL     1       1.074   9.508  19.363  0.00  0.00    +0.000 C 
ATOM     20  N   UNL     1       1.581   8.425  20.140  0.00  0.00    +0.000 N 
ATOM     21  C   UNL     1       2.010   7.141  19.762  0.00  0.00    +0.000 A 
ATOM     22  C   UNL     1       2.557   6.948  18.496  0.00  0.00    +0.000 A 
ATOM     23  C   UNL     1       3.044   5.695  18.130  0.00  0.00    +0.000 A 
ATOM     24  C   UNL     1       2.962   4.634  19.032  0.00  0.00    +0.000 A 
ATOM     25  C   UNL     1       3.436   3.347  18.701  0.00  0.00    +0.000 A 
ATOM     26  C   UNL     1       3.331   2.301  19.613  0.00  0.00    +0.000 A 
ATOM     27  C   UNL     1       2.755   2.538  20.855  0.00  0.00    +0.000 A 
ATOM     28  C   UNL     1       2.293   3.822  21.180  0.00  0.00    +0.000 A 
ATOM     29  C   UNL     1       2.385   4.890  20.290  0.00  0.00    +0.000 A 
ATOM     30  N   UNL     1       1.933   6.119  20.647  0.00  0.00    +0.000 NA
ATOM     31  C   UNL     1       0.991   8.854  21.361  0.00  0.00    +0.000 C 
ENDBRANCH  17  18
ENDBRANCH   6  17
TORSDOF 4
ENDMDL
MODEL 6
REMARK VINA RESULT:      -8.1      4.692      6.408
REMARK  Name = 
REMARK  5 active torsions:
REMARK  status: ('A' for Active; 'I' for Inactive)
REMARK    1  A    between atoms: C_1  and  O_2
REMARK    2  A    between atoms: O_2  and  C_3
REMARK    3  A    between atoms: C_8  and  C_9
REMARK    4  A    between atoms: C_14  and  O_15
REMARK    5  A    between atoms: O_15  and  C_16
REMARK                            x       y       z     vdW  Elec       q    Type
REMARK                         _______ _______ _______ _____ _____    ______ ____
ROOT
ATOM      1  C   UNL     1       1.284  13.530  19.993  0.00  0.00    +0.000 A 
ATOM      2  N   UNL     1       0.486  14.546  20.425  0.00  0.00    +0.000 NA
ATOM      3  C   UNL     1      -0.843  14.353  20.291  0.00  0.00    +0.000 A 
ATOM      4  C   UNL     1      -1.368  13.198  19.737  0.00  0.00    +0.000 A 
ATOM      5  N   UNL     1      -0.595  12.186  19.273  0.00  0.00    +0.000 NA
ATOM      6  C   UNL     1       0.739  12.370  19.409  0.00  0.00    +0.000 A 
ENDROOT
BRANCH   1  12
ATOM      7  C   UNL     1       5.030  17.201  20.045  0.00  0.00    +0.000 C 
ATOM      8  O   UNL     1       5.525  17.597  21.094  0.00  0.00    +0.000 OA
ATOM      9  N   UNL     1       3.888  16.425  19.973  0.00  0.00    +0.000 N 
ATOM     10  C   UNL     1       3.174  16.057  21.181  0.00  0.00    +0.000 C 
ATOM     11  C   UNL     1       3.187  14.541  21.361  0.00  0.00    +0.000 C 
ATOM     12  C   UNL     1       2.781  13.746  20.101  0.00  0.00    +0.000 C 
ATOM     13  C   UNL     1       3.334  14.348  18.792  0.00  0.00    +0.000 C 
ATOM     14  C   UNL     1       3.332  15.875  18.746  0.00  0.00    +0.000 C 
BRANCH   7  16
ATOM     15  C   UNL     1       6.907  17.084  18.627  0.00  0.00    +0.000 C 
ATOM     16  O   UNL     1       5.549  17.483  18.818  0.00  0.00    +0.000 OA
ENDBRANCH   7  16
ENDBRANCH   1  12
BRANCH   6  17
ATOM     17  O   UNL     1       1.595  11.373  18.970  0.00  0.00    +0.000 OA
BRANCH  17  18
ATOM     18  C   UNL     1       1.013  10.085  18.619  0.00  0.00    +0.000 C 
ATOM     19  C   UNL     1       1.869   9.140  17.751  0.00  0.00    +0.000 C 
ATOM     20  N   UNL     1       2.049   8.302  18.890  0.00  0.00    +0.000 N 
ATOM     21  C   UNL     1       2.525   6.983  18.998  0.00  0.00    +0.000 A 
ATOM     22  C   UNL     1       3.449   6.512  18.069  0.00  0.00    +0.000 A 
ATOM     23  C   UNL     1       3.977   5.230  18.200  0.00  0.00    +0.000 A 
ATOM     24  C   UNL     1       3.560   4.417  19.254  0.00  0.00    +0.000 A 
ATOM     25  C   UNL     1       4.064   3.110  19.420  0.00  0.00    +0.000 A 
ATOM     26  C   UNL     1       3.624   2.313  20.473  0.00  0.00    +0.000 A 
ATOM     27  C   UNL     1       2.683   2.820  21.360  0.00  0.00    +0.000 A 
ATOM     28  C   UNL     1       2.192   4.124  21.193  0.00  0.00    +0.000 A 
ATOM     29  C   UNL     1       2.614   4.946  20.150  0.00  0.00    +0.000 A 
ATOM     30  N   UNL     1       2.121   6.205  20.030  0.00  0.00    +0.000 NA
ATOM     31  C   UNL     1       1.108   8.989  19.707  0.00  0.00    +0.000 C 
ENDBRANCH  17  18
ENDBRANCH   6  17
TORSDOF 4
ENDMDL
MODEL 7
REMARK VINA RESULT:      -8.0      4.093      5.985
REMARK  Name = 
REMARK  5 active torsions:
REMARK  status: ('A' for Active; 'I' for Inactive)
REMARK    1  A    between atoms: C_1  and  O_2
REMARK    2  A    between atoms: O_2  and  C_3
REMARK    3  A    between atoms: C_8  and  C_9
REMARK    4  A    between atoms: C_14  and  O_15
REMARK    5  A    between atoms: O_15  and  C_16
REMARK                            x       y       z     vdW  Elec       q    Type
REMARK                         _______ _______ _______ _____ _____    ______ ____
ROOT
ATOM      1  C   UNL     1       0.788  13.714  20.533  0.00  0.00    +0.000 A 
ATOM      2  N   UNL     1       0.483  14.874  19.890  0.00  0.00    +0.000 NA
ATOM      3  C   UNL     1      -0.805  15.273  19.965  0.00  0.00    +0.000 A 
ATOM      4  C   UNL     1      -1.764  14.542  20.645  0.00  0.00    +0.000 A 
ATOM      5  N   UNL     1      -1.491  13.370  21.269  0.00  0.00    +0.000 NA
ATOM      6  C   UNL     1      -0.202  12.967  21.202  0.00  0.00    +0.000 A 
ENDROOT
BRANCH   1  12
ATOM      7  C   UNL     1       5.609  15.101  19.003  0.00  0.00    +0.000 C 
ATOM      8  O   UNL     1       6.452  15.482  19.807  0.00  0.00    +0.000 OA
ATOM      9  N   UNL     1       4.267  14.954  19.301  0.00  0.00    +0.000 N 
ATOM     10  C   UNL     1       3.768  15.289  20.621  0.00  0.00    +0.000 C 
ATOM     11  C   UNL     1       3.199  14.047  21.302  0.00  0.00    +0.000 C 
ATOM     12  C   UNL     1       2.222  13.231  20.427  0.00  0.00    +0.000 C 
ATOM     13  C   UNL     1       2.651  13.142  18.948  0.00  0.00    +0.000 C 
ATOM     14  C   UNL     1       3.265  14.425  18.388  0.00  0.00    +0.000 C 
BRANCH   7  16
ATOM     15  C   UNL     1       7.089  14.014  17.529  0.00  0.00    +0.000 C 
ATOM     16  O   UNL     1       5.897  14.778  17.712  0.00  0.00    +0.000 OA
ENDBRANCH   7  16
ENDBRANCH   1  12
BRANCH   6  17
ATOM     17  O   UNL     1       0.158  11.784  21.828  0.00  0.00    +0.000 OA
BRANCH  17  18
ATOM     18  C   UNL     1      -0.261  10.534  21.208  0.00  0.00    +0.000 C 
ATOM     19  C   UNL     1       0.145  10.307  19.738  0.00  0.00    +0.000 C 
ATOM     20  N   UNL     1       1.074   9.319  20.176  0.00  0.00    +0.000 N 
ATOM     21  C   UNL     1       1.776   8.332  19.461  0.00  0.00    +0.000 A 
ATOM     22  C   UNL     1       2.113   8.562  18.129  0.00  0.00    +0.000 A 
ATOM     23  C   UNL     1       2.861   7.621  17.427  0.00  0.00    +0.000 A 
ATOM     24  C   UNL     1       3.253   6.441  18.060  0.00  0.00    +0.000 A 
ATOM     25  C   UNL     1       4.006   5.458  17.384  0.00  0.00    +0.000 A 
ATOM     26  C   UNL     1       4.374   4.283  18.032  0.00  0.00    +0.000 A 
ATOM     27  C   UNL     1       3.993   4.089  19.354  0.00  0.00    +0.000 A 
ATOM     28  C   UNL     1       3.251   5.075  20.022  0.00  0.00    +0.000 A 
ATOM     29  C   UNL     1       2.868   6.261  19.401  0.00  0.00    +0.000 A 
ATOM     30  N   UNL     1       2.158   7.193  20.086  0.00  0.00    +0.000 NA
ATOM     31  C   UNL     1       0.621   9.302  21.525  0.00  0.00    +0.000 C 
ENDBRANCH  17  18
ENDBRANCH   6  17
TORSDOF 4
ENDMDL
MODEL 8
REMARK VINA RESULT:      -8.0      2.507      3.453
REMARK  Name = 
REMARK  5 active torsions:
REMARK  status: ('A' for Active; 'I' for Inactive)
REMARK    1  A    between atoms: C_1  and  O_2
REMARK    2  A    between atoms: O_2  and  C_3
REMARK    3  A    between atoms: C_8  and  C_9
REMARK    4  A    between atoms: C_14  and  O_15
REMARK    5  A    between atoms: O_15  and  C_16
REMARK                            x       y       z     vdW  Elec       q    Type
REMARK                         _______ _______ _______ _____ _____    ______ ____
ROOT
ATOM      1  C   UNL     1      -0.366  11.163  20.882  0.00  0.00    +0.000 A 
ATOM      2  N   UNL     1      -0.877  11.945  21.873  0.00  0.00    +0.000 NA
ATOM      3  C   UNL     1      -1.150  11.320  23.039  0.00  0.00    +0.000 A 
ATOM      4  C   UNL     1      -0.937   9.964  23.216  0.00  0.00    +0.000 A 
ATOM      5  N   UNL     1      -0.457   9.160  22.235  0.00  0.00    +0.000 NA
ATOM      6  C   UNL     1      -0.176   9.780  21.066  0.00  0.00    +0.000 A 
ENDROOT
BRANCH   1  12
ATOM      7  C   UNL     1       0.744  15.775  18.644  0.00  0.00    +0.000 C 
ATOM      8  O   UNL     1       1.890  16.076  18.328  0.00  0.00    +0.000 OA
ATOM      9  N   UNL     1       0.420  14.696  19.445  0.00  0.00    +0.000 N 
ATOM     10  C   UNL     1       1.464  13.854  19.999  0.00  0.00    +0.000 C 
ATOM     11  C   UNL     1       1.336  12.431  19.463  0.00  0.00    +0.000 C 
ATOM     12  C   UNL     1      -0.089  11.841  19.554  0.00  0.00    +0.000 C 
ATOM     13  C   UNL     1      -1.198  12.864  19.230  0.00  0.00    +0.000 C 
ATOM     14  C   UNL     1      -0.936  14.273  19.762  0.00  0.00    +0.000 C 
BRANCH   7  16
ATOM     15  C   UNL     1      -0.385  17.842  18.658  0.00  0.00    +0.000 C 
ATOM     16  O   UNL     1      -0.351  16.476  18.241  0.00  0.00    +0.000 OA
ENDBRANCH   7  16
ENDBRANCH   1  12
BRANCH   6  17
ATOM     17  O   UNL     1       0.331   9.026  20.019  0.00  0.00    +0.000 OA
BRANCH  17  18
ATOM     18  C   UNL     1       1.731   8.631  20.084  0.00  0.00    +0.000 C 
ATOM     19  C   UNL     1       2.030   7.124  20.215  0.00  0.00    +0.000 C 
ATOM     20  N   UNL     1       2.504   7.128  18.871  0.00  0.00    +0.000 N 
ATOM     21  C   UNL     1       3.256   6.181  18.155  0.00  0.00    +0.000 A 
ATOM     22  C   UNL     1       3.142   4.831  18.480  0.00  0.00    +0.000 A 
ATOM     23  C   UNL     1       3.833   3.875  17.739  0.00  0.00    +0.000 A 
ATOM     24  C   UNL     1       4.652   4.280  16.685  0.00  0.00    +0.000 A 
ATOM     25  C   UNL     1       5.375   3.346  15.913  0.00  0.00    +0.000 A 
ATOM     26  C   UNL     1       6.197   3.775  14.875  0.00  0.00    +0.000 A 
ATOM     27  C   UNL     1       6.296   5.134  14.605  0.00  0.00    +0.000 A 
ATOM     28  C   UNL     1       5.568   6.057  15.372  0.00  0.00    +0.000 A 
ATOM     29  C   UNL     1       4.737   5.658  16.417  0.00  0.00    +0.000 A 
ATOM     30  N   UNL     1       4.043   6.582  17.129  0.00  0.00    +0.000 NA
ATOM     31  C   UNL     1       2.465   8.543  18.724  0.00  0.00    +0.000 C 
ENDBRANCH  17  18
ENDBRANCH   6  17
TORSDOF 4
ENDMDL
MODEL 9
REMARK VINA RESULT:      -8.0      3.084      4.600
REMARK  Name = 
REMARK  5 active torsions:
REMARK  status: ('A' for Active; 'I' for Inactive)
REMARK    1  A    between atoms: C_1  and  O_2
REMARK    2  A    between atoms: O_2  and  C_3
REMARK    3  A    between atoms: C_8  and  C_9
REMARK    4  A    between atoms: C_14  and  O_15
REMARK    5  A    between atoms: O_15  and  C_16
REMARK                            x       y       z     vdW  Elec       q    Type
REMARK                         _______ _______ _______ _____ _____    ______ ____
ROOT
ATOM      1  C   UNL     1      -0.503  12.925  20.611  0.00  0.00    +0.000 A 
ATOM      2  N   UNL     1      -0.793  14.164  20.127  0.00  0.00    +0.000 NA
ATOM      3  C   UNL     1       0.267  14.946  19.827  0.00  0.00    +0.000 A 
ATOM      4  C   UNL     1       1.571  14.521  20.009  0.00  0.00    +0.000 A 
ATOM      5  N   UNL     1       1.885  13.303  20.516  0.00  0.00    +0.000 NA
ATOM      6  C   UNL     1       0.828  12.512  20.814  0.00  0.00    +0.000 A 
ENDROOT
BRANCH   1  12
ATOM      7  C   UNL     1      -5.482  13.018  22.257  0.00  0.00    +0.000 C 
ATOM      8  O   UNL     1      -6.417  12.867  21.479  0.00  0.00    +0.000 OA
ATOM      9  N   UNL     1      -4.176  13.243  21.861  0.00  0.00    +0.000 N 
ATOM     10  C   UNL     1      -3.844  13.350  20.453  0.00  0.00    +0.000 C 
ATOM     11  C   UNL     1      -2.893  12.227  20.048  0.00  0.00    +0.000 C 
ATOM     12  C   UNL     1      -1.681  12.047  20.989  0.00  0.00    +0.000 C 
ATOM     13  C   UNL     1      -2.030  12.230  22.481  0.00  0.00    +0.000 C 
ATOM     14  C   UNL     1      -3.039  13.341  22.765  0.00  0.00    +0.000 C 
BRANCH   7  16
ATOM     15  C   UNL     1      -6.948  12.745  24.079  0.00  0.00    +0.000 C 
ATOM     16  O   UNL     1      -5.621  12.983  23.611  0.00  0.00    +0.000 OA
ENDBRANCH   7  16
ENDBRANCH   1  12
BRANCH   6  17
ATOM     17  O   UNL     1       1.069  11.246  21.324  0.00  0.00    +0.000 OA
BRANCH  17  18
ATOM     18  C   UNL     1       0.478  10.111  20.630  0.00  0.00    +0.000 C 
ATOM     19  C   UNL     1       1.150   9.664  19.316  0.00  0.00    +0.000 C 
ATOM     20  N   UNL     1       1.625   8.499  19.988  0.00  0.00    +0.000 N 
ATOM     21  C   UNL     1       2.171   7.304  19.487  0.00  0.00    +0.000 A 
ATOM     22  C   UNL     1       2.874   7.324  18.285  0.00  0.00    +0.000 A 
ATOM     23  C   UNL     1       3.473   6.161  17.808  0.00  0.00    +0.000 A 
ATOM     24  C   UNL     1       3.348   4.975  18.532  0.00  0.00    +0.000 A 
ATOM     25  C   UNL     1       3.933   3.773  18.082  0.00  0.00    +0.000 A 
ATOM     26  C   UNL     1       3.783   2.599  18.814  0.00  0.00    +0.000 A 
ATOM     27  C   UNL     1       3.052   2.624  19.995  0.00  0.00    +0.000 A 
ATOM     28  C   UNL     1       2.479   3.826  20.440  0.00  0.00    +0.000 A 
ATOM     29  C   UNL     1       2.612   5.017  19.730  0.00  0.00    +0.000 A 
ATOM     30  N   UNL     1       2.050   6.159  20.200  0.00  0.00    +0.000 NA
ATOM     31  C   UNL     1       0.870   8.716  21.174  0.00  0.00    +0.000 C 
ENDBRANCH  17  18
ENDBRANCH   6  17
TORSDOF 4
ENDMDL
