MODEL 1
REMARK VINA RESULT:      -6.8      0.000      0.000
REMARK  Name = 
REMARK  14 active torsions:
REMARK  status: ('A' for Active; 'I' for Inactive)
REMARK    1  A    between atoms: C_2  and  C_3
REMARK    2  A    between atoms: C_3  and  O_4
REMARK    3  A    between atoms: O_4  and  C_5
REMARK    4  A    between atoms: C_9  and  C_10
REMARK    5  A    between atoms: C_10  and  N_11
REMARK    6  A    between atoms: N_11  and  C_12
REMARK    7  A    between atoms: C_12  and  C_13
REMARK    8  A    between atoms: C_13  and  C_14
REMARK    9  A    between atoms: C_14  and  N_15
REMARK   10  A    between atoms: C_16  and  C_18
REMARK   11  A    between atoms: C_20  and  C_21
REMARK   12  A    between atoms: C_20  and  C_22
REMARK   13  A    between atoms: C_24  and  C_25
REMARK   14  A    between atoms: C_24  and  C_26
REMARK                            x       y       z     vdW  Elec       q    Type
REMARK                         _______ _______ _______ _____ _____    ______ ____
ROOT
ATOM      1  C   UNL     1       1.818   3.272  20.000  0.00  0.00    +0.000 C 
ENDROOT
BRANCH   1   2
ATOM      2  C   UNL     1       1.554   4.653  20.605  0.00  0.00    +0.000 C 
BRANCH   2   3
ATOM      3  N   UNL     1       1.765   5.755  19.665  0.00  0.00    +0.000 NA
ATOM      4  H   UNL     1       2.304   5.422  18.864  0.00  0.00    +0.000 HD
BRANCH   3   5
ATOM      5  C   UNL     1       2.470   6.881  20.270  0.00  0.00    +0.000 C 
BRANCH   5  10
ATOM      6  C   UNL     1       0.419  10.003  19.560  0.00  0.00    +0.000 A 
ATOM      7  C   UNL     1       0.003  10.356  20.844  0.00  0.00    +0.000 A 
ATOM      8  C   UNL     1       0.338   9.560  21.940  0.00  0.00    +0.000 A 
ATOM      9  C   UNL     1       1.113   8.415  21.753  0.00  0.00    +0.000 A 
ATOM     10  C   UNL     1       1.557   8.063  20.471  0.00  0.00    +0.000 A 
ATOM     11  C   UNL     1       1.202   8.865  19.379  0.00  0.00    +0.000 A 
BRANCH   6  12
ATOM     12  O   UNL     1       0.057  10.865  18.559  0.00  0.00    +0.000 OA
BRANCH  12  13
ATOM     13  C   UNL     1      -1.304  11.295  18.591  0.00  0.00    +0.000 C 
BRANCH  13  15
ATOM     14  C   UNL     1      -2.979   9.705  17.593  0.00  0.00    +0.000 C 
ATOM     15  C   UNL     1      -2.017  10.628  17.456  0.00  0.00    +0.000 C 
ENDBRANCH  13  15
ENDBRANCH  12  13
ENDBRANCH   6  12
ENDBRANCH   5  10
ENDBRANCH   3   5
ENDBRANCH   2   3
ENDBRANCH   1   2
BRANCH   1  16
ATOM     16  C   UNL     1       3.311   3.015  19.815  0.00  0.00    +0.000 C 
BRANCH  16  17
ATOM     17  N   UNL     1       3.784   3.525  18.548  0.00  0.00    +0.000 N 
ATOM     18  C   UNL     1       5.023   4.101  18.434  0.00  0.00    +0.000 C 
ATOM     19  O   UNL     1       5.810   4.174  19.370  0.00  0.00    +0.000 OA
ATOM     20  H   UNL     1       3.229   3.348  17.725  0.00  0.00    +0.000 HD
BRANCH  18  21
ATOM     21  C   UNL     1       5.364   4.596  17.087  0.00  0.00    +0.000 C 
ATOM     22  C   UNL     1       5.698   3.862  16.018  0.00  0.00    +0.000 C 
ATOM     23  C   UNL     1       5.936   4.732  14.828  0.00  0.00    +0.000 C 
ATOM     24  C   UNL     1       5.134   4.233  13.619  0.00  0.00    +0.000 C 
ATOM     25  C   UNL     1       7.424   4.794  14.466  0.00  0.00    +0.000 C 
ATOM     26  N   UNL     1       5.475   6.079  15.248  0.00  0.00    +0.000 NA
ATOM     27  C   UNL     1       5.338   6.058  16.742  0.00  0.00    +0.000 C 
ATOM     28  C   UNL     1       6.539   6.798  17.350  0.00  0.00    +0.000 C 
ATOM     29  C   UNL     1       4.041   6.788  17.130  0.00  0.00    +0.000 C 
ATOM     30  H   UNL     1       4.544   6.230  14.857  0.00  0.00    +0.000 HD
ENDBRANCH  18  21
ENDBRANCH  16  17
ENDBRANCH   1  16
TORSDOF 10
ENDMDL
MODEL 2
REMARK VINA RESULT:      -6.7      1.571      2.360
REMARK  Name = 
REMARK  14 active torsions:
REMARK  status: ('A' for Active; 'I' for Inactive)
REMARK    1  A    between atoms: C_2  and  C_3
REMARK    2  A    between atoms: C_3  and  O_4
REMARK    3  A    between atoms: O_4  and  C_5
REMARK    4  A    between atoms: C_9  and  C_10
REMARK    5  A    between atoms: C_10  and  N_11
REMARK    6  A    between atoms: N_11  and  C_12
REMARK    7  A    between atoms: C_12  and  C_13
REMARK    8  A    between atoms: C_13  and  C_14
REMARK    9  A    between atoms: C_14  and  N_15
REMARK   10  A    between atoms: C_16  and  C_18
REMARK   11  A    between atoms: C_20  and  C_21
REMARK   12  A    between atoms: C_20  and  C_22
REMARK   13  A    between atoms: C_24  and  C_25
REMARK   14  A    between atoms: C_24  and  C_26
REMARK                            x       y       z     vdW  Elec       q    Type
REMARK                         _______ _______ _______ _____ _____    ______ ____
ROOT
ATOM      1  C   UNL     1       1.759   2.057  19.097  0.00  0.00    +0.000 C 
ENDROOT
BRANCH   1   2
ATOM      2  C   UNL     1       1.650   2.853  20.399  0.00  0.00    +0.000 C 
BRANCH   2   3
ATOM      3  N   UNL     1       2.572   3.988  20.471  0.00  0.00    +0.000 NA
ATOM      4  H   UNL     1       3.374   3.740  21.051  0.00  0.00    +0.000 HD
BRANCH   3   5
ATOM      5  C   UNL     1       1.945   5.185  21.024  0.00  0.00    +0.000 C 
BRANCH   5  10
ATOM      6  C   UNL     1       1.593   8.678  19.563  0.00  0.00    +0.000 A 
ATOM      7  C   UNL     1       2.268   8.538  18.350  0.00  0.00    +0.000 A 
ATOM      8  C   UNL     1       2.885   7.331  18.020  0.00  0.00    +0.000 A 
ATOM      9  C   UNL     1       2.808   6.251  18.900  0.00  0.00    +0.000 A 
ATOM     10  C   UNL     1       2.113   6.371  20.110  0.00  0.00    +0.000 A 
ATOM     11  C   UNL     1       1.508   7.593  20.433  0.00  0.00    +0.000 A 
BRANCH   6  12
ATOM     12  O   UNL     1       1.001   9.895  19.779  0.00  0.00    +0.000 OA
BRANCH  12  13
ATOM     13  C   UNL     1       1.128  10.829  18.706  0.00  0.00    +0.000 C 
BRANCH  13  15
ATOM     14  C   UNL     1      -1.113  11.615  19.535  0.00  0.00    +0.000 C 
ATOM     15  C   UNL     1       0.007  11.814  18.828  0.00  0.00    +0.000 C 
ENDBRANCH  13  15
ENDBRANCH  12  13
ENDBRANCH   6  12
ENDBRANCH   5  10
ENDBRANCH   3   5
ENDBRANCH   2   3
ENDBRANCH   1   2
BRANCH   1  16
ATOM     16  C   UNL     1       3.198   1.634  18.816  0.00  0.00    +0.000 C 
BRANCH  16  17
ATOM     17  N   UNL     1       3.868   2.576  17.949  0.00  0.00    +0.000 N 
ATOM     18  C   UNL     1       4.856   3.400  18.425  0.00  0.00    +0.000 C 
ATOM     19  O   UNL     1       5.259   3.355  19.582  0.00  0.00    +0.000 OA
ATOM     20  H   UNL     1       3.672   2.539  16.961  0.00  0.00    +0.000 HD
BRANCH  18  21
ATOM     21  C   UNL     1       5.436   4.325  17.433  0.00  0.00    +0.000 C 
ATOM     22  C   UNL     1       4.983   4.572  16.198  0.00  0.00    +0.000 C 
ATOM     23  C   UNL     1       5.825   5.599  15.516  0.00  0.00    +0.000 C 
ATOM     24  C   UNL     1       4.954   6.719  14.935  0.00  0.00    +0.000 C 
ATOM     25  C   UNL     1       6.675   4.979  14.402  0.00  0.00    +0.000 C 
ATOM     26  N   UNL     1       6.715   6.123  16.582  0.00  0.00    +0.000 NA
ATOM     27  C   UNL     1       6.647   5.162  17.733  0.00  0.00    +0.000 C 
ATOM     28  C   UNL     1       7.927   4.314  17.735  0.00  0.00    +0.000 C 
ATOM     29  C   UNL     1       6.567   5.965  19.042  0.00  0.00    +0.000 C 
ATOM     30  H   UNL     1       6.334   7.013  16.904  0.00  0.00    +0.000 HD
ENDBRANCH  18  21
ENDBRANCH  16  17
ENDBRANCH   1  16
TORSDOF 10
ENDMDL
MODEL 3
REMARK VINA RESULT:      -6.6      1.980      2.742
REMARK  Name = 
REMARK  14 active torsions:
REMARK  status: ('A' for Active; 'I' for Inactive)
REMARK    1  A    between atoms: C_2  and  C_3
REMARK    2  A    between atoms: C_3  and  O_4
REMARK    3  A    between atoms: O_4  and  C_5
REMARK    4  A    between atoms: C_9  and  C_10
REMARK    5  A    between atoms: C_10  and  N_11
REMARK    6  A    between atoms: N_11  and  C_12
REMARK    7  A    between atoms: C_12  and  C_13
REMARK    8  A    between atoms: C_13  and  C_14
REMARK    9  A    between atoms: C_14  and  N_15
REMARK   10  A    between atoms: C_16  and  C_18
REMARK   11  A    between atoms: C_20  and  C_21
REMARK   12  A    between atoms: C_20  and  C_22
REMARK   13  A    between atoms: C_24  and  C_25
REMARK   14  A    between atoms: C_24  and  C_26
REMARK                            x       y       z     vdW  Elec       q    Type
REMARK                         _______ _______ _______ _____ _____    ______ ____
ROOT
ATOM      1  C   UNL     1       1.446   2.217  18.885  0.00  0.00    +0.000 C 
ENDROOT
BRANCH   1   2
ATOM      2  C   UNL     1       1.113   3.688  19.144  0.00  0.00    +0.000 C 
BRANCH   2   3
ATOM      3  N   UNL     1       1.240   4.079  20.549  0.00  0.00    +0.000 NA
ATOM      4  H   UNL     1       0.396   4.574  20.842  0.00  0.00    +0.000 HD
BRANCH   3   5
ATOM      5  C   UNL     1       2.396   4.938  20.789  0.00  0.00    +0.000 C 
BRANCH   5  10
ATOM      6  C   UNL     1       1.281   8.491  20.018  0.00  0.00    +0.000 A 
ATOM      7  C   UNL     1       1.830   8.682  18.750  0.00  0.00    +0.000 A 
ATOM      8  C   UNL     1       2.607   7.686  18.159  0.00  0.00    +0.000 A 
ATOM      9  C   UNL     1       2.818   6.481  18.831  0.00  0.00    +0.000 A 
ATOM     10  C   UNL     1       2.252   6.268  20.095  0.00  0.00    +0.000 A 
ATOM     11  C   UNL     1       1.484   7.282  20.681  0.00  0.00    +0.000 A 
BRANCH   6  12
ATOM     12  O   UNL     1       0.515   9.521  20.497  0.00  0.00    +0.000 OA
BRANCH  12  13
ATOM     13  C   UNL     1       0.797   9.913  21.841  0.00  0.00    +0.000 C 
BRANCH  13  15
ATOM     14  C   UNL     1      -0.945  11.393  22.888  0.00  0.00    +0.000 C 
ATOM     15  C   UNL     1      -0.510  10.181  22.520  0.00  0.00    +0.000 C 
ENDBRANCH  13  15
ENDBRANCH  12  13
ENDBRANCH   6  12
ENDBRANCH   5  10
ENDBRANCH   3   5
ENDBRANCH   2   3
ENDBRANCH   1   2
BRANCH   1  16
ATOM     16  C   UNL     1       2.950   1.966  18.921  0.00  0.00    +0.000 C 
BRANCH  16  17
ATOM     17  N   UNL     1       3.659   2.869  18.042  0.00  0.00    +0.000 N 
ATOM     18  C   UNL     1       4.784   3.531  18.463  0.00  0.00    +0.000 C 
ATOM     19  O   UNL     1       5.277   3.365  19.573  0.00  0.00    +0.000 OA
ATOM     20  H   UNL     1       3.374   2.918  17.076  0.00  0.00    +0.000 HD
BRANCH  18  21
ATOM     21  C   UNL     1       5.390   4.436  17.468  0.00  0.00    +0.000 C 
ATOM     22  C   UNL     1       4.920   4.728  16.249  0.00  0.00    +0.000 C 
ATOM     23  C   UNL     1       5.802   5.715  15.559  0.00  0.00    +0.000 C 
ATOM     24  C   UNL     1       4.982   6.892  15.017  0.00  0.00    +0.000 C 
ATOM     25  C   UNL     1       6.585   5.064  14.414  0.00  0.00    +0.000 C 
ATOM     26  N   UNL     1       6.749   6.170  16.608  0.00  0.00    +0.000 NA
ATOM     27  C   UNL     1       6.655   5.198  17.747  0.00  0.00    +0.000 C 
ATOM     28  C   UNL     1       7.884   4.277  17.701  0.00  0.00    +0.000 C 
ATOM     29  C   UNL     1       6.656   5.983  19.068  0.00  0.00    +0.000 C 
ATOM     30  H   UNL     1       6.428   7.076  16.951  0.00  0.00    +0.000 HD
ENDBRANCH  18  21
ENDBRANCH  16  17
ENDBRANCH   1  16
TORSDOF 10
ENDMDL
MODEL 4
REMARK VINA RESULT:      -6.6      4.068      8.305
REMARK  Name = 
REMARK  14 active torsions:
REMARK  status: ('A' for Active; 'I' for Inactive)
REMARK    1  A    between atoms: C_2  and  C_3
REMARK    2  A    between atoms: C_3  and  O_4
REMARK    3  A    between atoms: O_4  and  C_5
REMARK    4  A    between atoms: C_9  and  C_10
REMARK    5  A    between atoms: C_10  and  N_11
REMARK    6  A    between atoms: N_11  and  C_12
REMARK    7  A    between atoms: C_12  and  C_13
REMARK    8  A    between atoms: C_13  and  C_14
REMARK    9  A    between atoms: C_14  and  N_15
REMARK   10  A    between atoms: C_16  and  C_18
REMARK   11  A    between atoms: C_20  and  C_21
REMARK   12  A    between atoms: C_20  and  C_22
REMARK   13  A    between atoms: C_24  and  C_25
REMARK   14  A    between atoms: C_24  and  C_26
REMARK                            x       y       z     vdW  Elec       q    Type
REMARK                         _______ _______ _______ _____ _____    ______ ____
ROOT
ATOM      1  C   UNL     1       7.850   5.111  18.895  0.00  0.00    +0.000 C 
ENDROOT
BRANCH   1   2
ATOM      2  C   UNL     1       7.947   4.689  17.426  0.00  0.00    +0.000 C 
BRANCH   2   3
ATOM      3  N   UNL     1       6.893   5.256  16.583  0.00  0.00    +0.000 NA
ATOM      4  H   UNL     1       6.267   5.824  17.155  0.00  0.00    +0.000 HD
BRANCH   3   5
ATOM      5  C   UNL     1       6.107   4.230  15.904  0.00  0.00    +0.000 C 
BRANCH   5  10
ATOM      6  C   UNL     1       5.806   3.395  12.206  0.00  0.00    +0.000 A 
ATOM      7  C   UNL     1       6.836   4.165  11.666  0.00  0.00    +0.000 A 
ATOM      8  C   UNL     1       7.600   4.998  12.484  0.00  0.00    +0.000 A 
ATOM      9  C   UNL     1       7.346   5.045  13.855  0.00  0.00    +0.000 A 
ATOM     10  C   UNL     1       6.330   4.258  14.414  0.00  0.00    +0.000 A 
ATOM     11  C   UNL     1       5.563   3.436  13.578  0.00  0.00    +0.000 A 
BRANCH   6  12
ATOM     12  O   UNL     1       5.134   2.593  11.321  0.00  0.00    +0.000 OA
BRANCH  12  13
ATOM     13  C   UNL     1       3.739   2.866  11.195  0.00  0.00    +0.000 C 
BRANCH  13  15
ATOM     14  C   UNL     1       2.827   4.157   9.238  0.00  0.00    +0.000 C 
ATOM     15  C   UNL     1       3.590   4.084  10.337  0.00  0.00    +0.000 C 
ENDBRANCH  13  15
ENDBRANCH  12  13
ENDBRANCH   6  12
ENDBRANCH   5  10
ENDBRANCH   3   5
ENDBRANCH   2   3
ENDBRANCH   1   2
BRANCH   1  16
ATOM     16  C   UNL     1       6.559   5.875  19.175  0.00  0.00    +0.000 C 
BRANCH  16  17
ATOM     17  N   UNL     1       5.477   4.981  19.519  0.00  0.00    +0.000 N 
ATOM     18  C   UNL     1       4.270   5.045  18.871  0.00  0.00    +0.000 C 
ATOM     19  O   UNL     1       4.055   5.817  17.944  0.00  0.00    +0.000 OA
ATOM     20  H   UNL     1       5.664   4.234  20.170  0.00  0.00    +0.000 HD
BRANCH  18  21
ATOM     21  C   UNL     1       3.252   4.087  19.340  0.00  0.00    +0.000 C 
ATOM     22  C   UNL     1       2.101   4.371  19.961  0.00  0.00    +0.000 C 
ATOM     23  C   UNL     1       1.325   3.126  20.242  0.00  0.00    +0.000 C 
ATOM     24  C   UNL     1      -0.119   3.259  19.743  0.00  0.00    +0.000 C 
ATOM     25  C   UNL     1       1.322   2.793  21.738  0.00  0.00    +0.000 C 
ATOM     26  N   UNL     1       2.044   2.060  19.502  0.00  0.00    +0.000 NA
ATOM     27  C   UNL     1       3.391   2.606  19.128  0.00  0.00    +0.000 C 
ATOM     28  C   UNL     1       4.439   2.001  20.074  0.00  0.00    +0.000 C 
ATOM     29  C   UNL     1       3.709   2.189  17.683  0.00  0.00    +0.000 C 
ATOM     30  H   UNL     1       1.536   1.880  18.635  0.00  0.00    +0.000 HD
ENDBRANCH  18  21
ENDBRANCH  16  17
ENDBRANCH   1  16
TORSDOF 10
ENDMDL
MODEL 5
REMARK VINA RESULT:      -6.6      1.455      1.902
REMARK  Name = 
REMARK  14 active torsions:
REMARK  status: ('A' for Active; 'I' for Inactive)
REMARK    1  A    between atoms: C_2  and  C_3
REMARK    2  A    between atoms: C_3  and  O_4
REMARK    3  A    between atoms: O_4  and  C_5
REMARK    4  A    between atoms: C_9  and  C_10
REMARK    5  A    between atoms: C_10  and  N_11
REMARK    6  A    between atoms: N_11  and  C_12
REMARK    7  A    between atoms: C_12  and  C_13
REMARK    8  A    between atoms: C_13  and  C_14
REMARK    9  A    between atoms: C_14  and  N_15
REMARK   10  A    between atoms: C_16  and  C_18
REMARK   11  A    between atoms: C_20  and  C_21
REMARK   12  A    between atoms: C_20  and  C_22
REMARK   13  A    between atoms: C_24  and  C_25
REMARK   14  A    between atoms: C_24  and  C_26
REMARK                            x       y       z     vdW  Elec       q    Type
REMARK                         _______ _______ _______ _____ _____    ______ ____
ROOT
ATOM      1  C   UNL     1       2.648   2.916  20.028  0.00  0.00    +0.000 C 
ENDROOT
BRANCH   1   2
ATOM      2  C   UNL     1       1.907   3.604  18.878  0.00  0.00    +0.000 C 
BRANCH   2   3
ATOM      3  N   UNL     1       2.113   5.052  18.832  0.00  0.00    +0.000 NA
ATOM      4  H   UNL     1       2.951   5.261  18.288  0.00  0.00    +0.000 HD
BRANCH   3   5
ATOM      5  C   UNL     1       2.258   5.640  20.161  0.00  0.00    +0.000 C 
BRANCH   5  10
ATOM      6  C   UNL     1       1.476   9.232  19.191  0.00  0.00    +0.000 A 
ATOM      7  C   UNL     1       0.843   9.697  20.344  0.00  0.00    +0.000 A 
ATOM      8  C   UNL     1       0.618   8.840  21.421  0.00  0.00    +0.000 A 
ATOM      9  C   UNL     1       1.048   7.514  21.353  0.00  0.00    +0.000 A 
ATOM     10  C   UNL     1       1.707   7.042  20.210  0.00  0.00    +0.000 A 
ATOM     11  C   UNL     1       1.915   7.911  19.131  0.00  0.00    +0.000 A 
BRANCH   6  12
ATOM     12  O   UNL     1       1.671  10.161  18.202  0.00  0.00    +0.000 OA
BRANCH  12  13
ATOM     13  C   UNL     1       1.261  11.489  18.530  0.00  0.00    +0.000 C 
BRANCH  13  15
ATOM     14  C   UNL     1       2.379  13.703  18.108  0.00  0.00    +0.000 C 
ATOM     15  C   UNL     1       2.446  12.387  18.349  0.00  0.00    +0.000 C 
ENDBRANCH  13  15
ENDBRANCH  12  13
ENDBRANCH   6  12
ENDBRANCH   5  10
ENDBRANCH   3   5
ENDBRANCH   2   3
ENDBRANCH   1   2
BRANCH   1  16
ATOM     16  C   UNL     1       4.108   2.650  19.675  0.00  0.00    +0.000 C 
BRANCH  16  17
ATOM     17  N   UNL     1       4.452   3.207  18.386  0.00  0.00    +0.000 N 
ATOM     18  C   UNL     1       5.543   4.024  18.234  0.00  0.00    +0.000 C 
ATOM     19  O   UNL     1       6.308   4.289  19.155  0.00  0.00    +0.000 OA
ATOM     20  H   UNL     1       3.938   2.892  17.577  0.00  0.00    +0.000 HD
BRANCH  18  21
ATOM     21  C   UNL     1       5.760   4.536  16.868  0.00  0.00    +0.000 C 
ATOM     22  C   UNL     1       5.975   3.815  15.760  0.00  0.00    +0.000 C 
ATOM     23  C   UNL     1       6.112   4.700  14.566  0.00  0.00    +0.000 C 
ATOM     24  C   UNL     1       5.188   4.235  13.434  0.00  0.00    +0.000 C 
ATOM     25  C   UNL     1       7.558   4.744  14.062  0.00  0.00    +0.000 C 
ATOM     26  N   UNL     1       5.717   6.047  15.050  0.00  0.00    +0.000 NA
ATOM     27  C   UNL     1       5.726   6.003  16.549  0.00  0.00    +0.000 C 
ATOM     28  C   UNL     1       6.993   6.714  17.048  0.00  0.00    +0.000 C 
ATOM     29  C   UNL     1       4.486   6.747  17.073  0.00  0.00    +0.000 C 
ATOM     30  H   UNL     1       4.755   6.219  14.754  0.00  0.00    +0.000 HD
ENDBRANCH  18  21
ENDBRANCH  16  17
ENDBRANCH   1  16
TORSDOF 10
ENDMDL
MODEL 6
REMARK VINA RESULT:      -6.6      5.333      8.477
REMARK  Name = 
REMARK  14 active torsions:
REMARK  status: ('A' for Active; 'I' for Inactive)
REMARK    1  A    between atoms: C_2  and  C_3
REMARK    2  A    between atoms: C_3  and  O_4
REMARK    3  A    between atoms: O_4  and  C_5
REMARK    4  A    between atoms: C_9  and  C_10
REMARK    5  A    between atoms: C_10  and  N_11
REMARK    6  A    between atoms: N_11  and  C_12
REMARK    7  A    between atoms: C_12  and  C_13
REMARK    8  A    between atoms: C_13  and  C_14
REMARK    9  A    between atoms: C_14  and  N_15
REMARK   10  A    between atoms: C_16  and  C_18
REMARK   11  A    between atoms: C_20  and  C_21
REMARK   12  A    between atoms: C_20  and  C_22
REMARK   13  A    between atoms: C_24  and  C_25
REMARK   14  A    between atoms: C_24  and  C_26
REMARK                            x       y       z     vdW  Elec       q    Type
REMARK                         _______ _______ _______ _____ _____    ______ ____
ROOT
ATOM      1  C   UNL     1       7.518   6.359  18.153  0.00  0.00    +0.000 C 
ENDROOT
BRANCH   1   2
ATOM      2  C   UNL     1       7.623   7.760  17.544  0.00  0.00    +0.000 C 
BRANCH   2   3
ATOM      3  N   UNL     1       8.370   8.705  18.375  0.00  0.00    +0.000 NA
ATOM      4  H   UNL     1       7.849   8.891  19.233  0.00  0.00    +0.000 HD
BRANCH   3   5
ATOM      5  C   UNL     1       8.622   9.972  17.694  0.00  0.00    +0.000 C 
BRANCH   5  10
ATOM      6  C   UNL     1      11.284  12.524  18.620  0.00  0.00    +0.000 A 
ATOM      7  C   UNL     1      11.276  12.438  20.012  0.00  0.00    +0.000 A 
ATOM      8  C   UNL     1      10.375  11.593  20.662  0.00  0.00    +0.000 A 
ATOM      9  C   UNL     1       9.492  10.815  19.914  0.00  0.00    +0.000 A 
ATOM     10  C   UNL     1       9.506  10.875  18.514  0.00  0.00    +0.000 A 
ATOM     11  C   UNL     1      10.408  11.737  17.875  0.00  0.00    +0.000 A 
BRANCH   6  12
ATOM     12  O   UNL     1      12.223  13.364  18.080  0.00  0.00    +0.000 OA
BRANCH  12  13
ATOM     13  C   UNL     1      12.245  14.681  18.630  0.00  0.00    +0.000 C 
BRANCH  13  15
ATOM     14  C   UNL     1      11.208  16.159  16.879  0.00  0.00    +0.000 C 
ATOM     15  C   UNL     1      11.118  15.450  18.011  0.00  0.00    +0.000 C 
ENDBRANCH  13  15
ENDBRANCH  12  13
ENDBRANCH   6  12
ENDBRANCH   5  10
ENDBRANCH   3   5
ENDBRANCH   2   3
ENDBRANCH   1   2
BRANCH   1  16
ATOM     16  C   UNL     1       6.847   5.379  17.195  0.00  0.00    +0.000 C 
BRANCH  16  17
ATOM     17  N   UNL     1       5.557   4.953  17.689  0.00  0.00    +0.000 N 
ATOM     18  C   UNL     1       5.378   4.617  19.007  0.00  0.00    +0.000 C 
ATOM     19  O   UNL     1       6.271   4.702  19.841  0.00  0.00    +0.000 OA
ATOM     20  H   UNL     1       4.764   5.014  17.069  0.00  0.00    +0.000 HD
BRANCH  18  21
ATOM     21  C   UNL     1       4.015   4.180  19.364  0.00  0.00    +0.000 C 
ATOM     22  C   UNL     1       3.667   3.050  19.991  0.00  0.00    +0.000 C 
ATOM     23  C   UNL     1       2.191   2.990  20.204  0.00  0.00    +0.000 C 
ATOM     24  C   UNL     1       1.864   2.673  21.669  0.00  0.00    +0.000 C 
ATOM     25  C   UNL     1       1.534   1.946  19.294  0.00  0.00    +0.000 C 
ATOM     26  N   UNL     1       1.703   4.343  19.835  0.00  0.00    +0.000 NA
ATOM     27  C   UNL     1       2.805   5.023  19.078  0.00  0.00    +0.000 C 
ATOM     28  C   UNL     1       2.451   5.004  17.583  0.00  0.00    +0.000 C 
ATOM     29  C   UNL     1       2.907   6.481  19.558  0.00  0.00    +0.000 C 
ATOM     30  H   UNL     1       1.552   4.870  20.696  0.00  0.00    +0.000 HD
ENDBRANCH  18  21
ENDBRANCH  16  17
ENDBRANCH   1  16
TORSDOF 10
ENDMDL
MODEL 7
REMARK VINA RESULT:      -6.5      2.153      3.864
REMARK  Name = 
REMARK  14 active torsions:
REMARK  status: ('A' for Active; 'I' for Inactive)
REMARK    1  A    between atoms: C_2  and  C_3
REMARK    2  A    between atoms: C_3  and  O_4
REMARK    3  A    between atoms: O_4  and  C_5
REMARK    4  A    between atoms: C_9  and  C_10
REMARK    5  A    between atoms: C_10  and  N_11
REMARK    6  A    between atoms: N_11  and  C_12
REMARK    7  A    between atoms: C_12  and  C_13
REMARK    8  A    between atoms: C_13  and  C_14
REMARK    9  A    between atoms: C_14  and  N_15
REMARK   10  A    between atoms: C_16  and  C_18
REMARK   11  A    between atoms: C_20  and  C_21
REMARK   12  A    between atoms: C_20  and  C_22
REMARK   13  A    between atoms: C_24  and  C_25
REMARK   14  A    between atoms: C_24  and  C_26
REMARK                            x       y       z     vdW  Elec       q    Type
REMARK                         _______ _______ _______ _____ _____    ______ ____
ROOT
ATOM      1  C   UNL     1       1.543   8.411  20.609  0.00  0.00    +0.000 C 
ENDROOT
BRANCH   1   2
ATOM      2  C   UNL     1       1.516   8.991  22.025  0.00  0.00    +0.000 C 
BRANCH   2   3
ATOM      3  N   UNL     1       0.632  10.149  22.167  0.00  0.00    +0.000 NA
ATOM      4  H   UNL     1      -0.338   9.833  22.219  0.00  0.00    +0.000 HD
BRANCH   3   5
ATOM      5  C   UNL     1       0.761  11.091  21.059  0.00  0.00    +0.000 C 
BRANCH   5  10
ATOM      6  C   UNL     1      -2.363  11.212  18.895  0.00  0.00    +0.000 A 
ATOM      7  C   UNL     1      -3.003  12.345  19.397  0.00  0.00    +0.000 A 
ATOM      8  C   UNL     1      -2.456  13.046  20.473  0.00  0.00    +0.000 A 
ATOM      9  C   UNL     1      -1.251  12.624  21.034  0.00  0.00    +0.000 A 
ATOM     10  C   UNL     1      -0.586  11.502  20.522  0.00  0.00    +0.000 A 
ATOM     11  C   UNL     1      -1.153  10.800  19.450  0.00  0.00    +0.000 A 
BRANCH   6  12
ATOM     12  O   UNL     1      -2.970  10.612  17.822  0.00  0.00    +0.000 OA
BRANCH  12  13
ATOM     13  C   UNL     1      -2.081  10.131  16.814  0.00  0.00    +0.000 C 
BRANCH  13  15
ATOM     14  C   UNL     1      -3.210  10.333  14.575  0.00  0.00    +0.000 C 
ATOM     15  C   UNL     1      -2.914   9.628  15.676  0.00  0.00    +0.000 C 
ENDBRANCH  13  15
ENDBRANCH  12  13
ENDBRANCH   6  12
ENDBRANCH   5  10
ENDBRANCH   3   5
ENDBRANCH   2   3
ENDBRANCH   1   2
BRANCH   1  16
ATOM     16  C   UNL     1       1.603   6.886  20.628  0.00  0.00    +0.000 C 
BRANCH  16  17
ATOM     17  N   UNL     1       2.869   6.399  20.128  0.00  0.00    +0.000 N 
ATOM     18  C   UNL     1       2.976   5.860  18.872  0.00  0.00    +0.000 C 
ATOM     19  O   UNL     1       2.033   5.803  18.091  0.00  0.00    +0.000 OA
ATOM     20  H   UNL     1       3.696   6.566  20.681  0.00  0.00    +0.000 HD
BRANCH  18  21
ATOM     21  C   UNL     1       4.323   5.385  18.504  0.00  0.00    +0.000 C 
ATOM     22  C   UNL     1       5.389   6.136  18.199  0.00  0.00    +0.000 C 
ATOM     23  C   UNL     1       6.580   5.282  17.918  0.00  0.00    +0.000 C 
ATOM     24  C   UNL     1       7.791   5.749  18.736  0.00  0.00    +0.000 C 
ATOM     25  C   UNL     1       6.936   5.287  16.427  0.00  0.00    +0.000 C 
ATOM     26  N   UNL     1       6.166   3.915  18.322  0.00  0.00    +0.000 NA
ATOM     27  C   UNL     1       4.673   3.925  18.465  0.00  0.00    +0.000 C 
ATOM     28  C   UNL     1       4.062   3.236  17.235  0.00  0.00    +0.000 C 
ATOM     29  C   UNL     1       4.293   3.137  19.730  0.00  0.00    +0.000 C 
ATOM     30  H   UNL     1       6.561   3.724  19.243  0.00  0.00    +0.000 HD
ENDBRANCH  18  21
ENDBRANCH  16  17
ENDBRANCH   1  16
TORSDOF 10
ENDMDL
MODEL 8
REMARK VINA RESULT:      -6.5      1.974      3.161
REMARK  Name = 
REMARK  14 active torsions:
REMARK  status: ('A' for Active; 'I' for Inactive)
REMARK    1  A    between atoms: C_2  and  C_3
REMARK    2  A    between atoms: C_3  and  O_4
REMARK    3  A    between atoms: O_4  and  C_5
REMARK    4  A    between atoms: C_9  and  C_10
REMARK    5  A    between atoms: C_10  and  N_11
REMARK    6  A    between atoms: N_11  and  C_12
REMARK    7  A    between atoms: C_12  and  C_13
REMARK    8  A    between atoms: C_13  and  C_14
REMARK    9  A    between atoms: C_14  and  N_15
REMARK   10  A    between atoms: C_16  and  C_18
REMARK   11  A    between atoms: C_20  and  C_21
REMARK   12  A    between atoms: C_20  and  C_22
REMARK   13  A    between atoms: C_24  and  C_25
REMARK   14  A    between atoms: C_24  and  C_26
REMARK                            x       y       z     vdW  Elec       q    Type
REMARK                         _______ _______ _______ _____ _____    ______ ____
ROOT
ATOM      1  C   UNL     1       1.656   2.809  19.979  0.00  0.00    +0.000 C 
ENDROOT
BRANCH   1   2
ATOM      2  C   UNL     1       2.511   3.498  21.046  0.00  0.00    +0.000 C 
BRANCH   2   3
ATOM      3  N   UNL     1       2.816   4.896  20.740  0.00  0.00    +0.000 NA
ATOM      4  H   UNL     1       3.470   5.263  21.433  0.00  0.00    +0.000 HD
BRANCH   3   5
ATOM      5  C   UNL     1       1.624   5.740  20.729  0.00  0.00    +0.000 C 
BRANCH   5  10
ATOM      6  C   UNL     1       1.455   9.349  19.544  0.00  0.00    +0.000 A 
ATOM      7  C   UNL     1       2.044   9.253  18.284  0.00  0.00    +0.000 A 
ATOM      8  C   UNL     1       2.547   8.033  17.830  0.00  0.00    +0.000 A 
ATOM      9  C   UNL     1       2.439   6.897  18.634  0.00  0.00    +0.000 A 
ATOM     10  C   UNL     1       1.828   6.976  19.892  0.00  0.00    +0.000 A 
ATOM     11  C   UNL     1       1.339   8.211  20.339  0.00  0.00    +0.000 A 
BRANCH   6  12
ATOM     12  O   UNL     1       0.972  10.586  19.883  0.00  0.00    +0.000 OA
BRANCH  12  13
ATOM     13  C   UNL     1       1.088  11.581  18.866  0.00  0.00    +0.000 C 
BRANCH  13  15
ATOM     14  C   UNL     1       1.575  13.321  20.616  0.00  0.00    +0.000 C 
ATOM     15  C   UNL     1       1.850  12.734  19.444  0.00  0.00    +0.000 C 
ENDBRANCH  13  15
ENDBRANCH  12  13
ENDBRANCH   6  12
ENDBRANCH   5  10
ENDBRANCH   3   5
ENDBRANCH   2   3
ENDBRANCH   1   2
BRANCH   1  16
ATOM     16  C   UNL     1       2.501   2.341  18.798  0.00  0.00    +0.000 C 
BRANCH  16  17
ATOM     17  N   UNL     1       3.669   3.175  18.618  0.00  0.00    +0.000 N 
ATOM     18  C   UNL     1       3.896   3.831  17.436  0.00  0.00    +0.000 C 
ATOM     19  O   UNL     1       3.114   3.792  16.493  0.00  0.00    +0.000 OA
ATOM     20  H   UNL     1       4.256   3.353  19.418  0.00  0.00    +0.000 HD
BRANCH  18  21
ATOM     21  C   UNL     1       5.137   4.628  17.388  0.00  0.00    +0.000 C 
ATOM     22  C   UNL     1       5.725   5.269  18.405  0.00  0.00    +0.000 C 
ATOM     23  C   UNL     1       6.986   5.932  17.960  0.00  0.00    +0.000 C 
ATOM     24  C   UNL     1       8.152   5.563  18.885  0.00  0.00    +0.000 C 
ATOM     25  C   UNL     1       6.832   7.457  17.912  0.00  0.00    +0.000 C 
ATOM     26  N   UNL     1       7.217   5.417  16.588  0.00  0.00    +0.000 NA
ATOM     27  C   UNL     1       5.938   4.784  16.126  0.00  0.00    +0.000 C 
ATOM     28  C   UNL     1       5.249   5.742  15.142  0.00  0.00    +0.000 C 
ATOM     29  C   UNL     1       6.269   3.467  15.406  0.00  0.00    +0.000 C 
ATOM     30  H   UNL     1       7.921   4.680  16.642  0.00  0.00    +0.000 HD
ENDBRANCH  18  21
ENDBRANCH  16  17
ENDBRANCH   1  16
TORSDOF 10
ENDMDL
MODEL 9
REMARK VINA RESULT:      -6.4      2.435      8.592
REMARK  Name = 
REMARK  14 active torsions:
REMARK  status: ('A' for Active; 'I' for Inactive)
REMARK    1  A    between atoms: C_2  and  C_3
REMARK    2  A    between atoms: C_3  and  O_4
REMARK    3  A    between atoms: O_4  and  C_5
REMARK    4  A    between atoms: C_9  and  C_10
REMARK    5  A    between atoms: C_10  and  N_11
REMARK    6  A    between atoms: N_11  and  C_12
REMARK    7  A    between atoms: C_12  and  C_13
REMARK    8  A    between atoms: C_13  and  C_14
REMARK    9  A    between atoms: C_14  and  N_15
REMARK   10  A    between atoms: C_16  and  C_18
REMARK   11  A    between atoms: C_20  and  C_21
REMARK   12  A    between atoms: C_20  and  C_22
REMARK   13  A    between atoms: C_24  and  C_25
REMARK   14  A    between atoms: C_24  and  C_26
REMARK                            x       y       z     vdW  Elec       q    Type
REMARK                         _______ _______ _______ _____ _____    ______ ____
ROOT
ATOM      1  C   UNL     1       2.143   7.897  17.914  0.00  0.00    +0.000 C 
ENDROOT
BRANCH   1   2
ATOM      2  C   UNL     1       2.907   7.345  19.120  0.00  0.00    +0.000 C 
BRANCH   2   3
ATOM      3  N   UNL     1       2.037   6.883  20.203  0.00  0.00    +0.000 NA
ATOM      4  H   UNL     1       2.413   7.194  21.099  0.00  0.00    +0.000 HD
BRANCH   3   5
ATOM      5  C   UNL     1       1.900   5.429  20.230  0.00  0.00    +0.000 C 
BRANCH   5  10
ATOM      6  C   UNL     1       5.144   4.242  18.641  0.00  0.00    +0.000 A 
ATOM      7  C   UNL     1       4.679   3.688  17.448  0.00  0.00    +0.000 A 
ATOM      8  C   UNL     1       3.312   3.647  17.173  0.00  0.00    +0.000 A 
ATOM      9  C   UNL     1       2.405   4.183  18.089  0.00  0.00    +0.000 A 
ATOM     10  C   UNL     1       2.862   4.764  19.279  0.00  0.00    +0.000 A 
ATOM     11  C   UNL     1       4.237   4.788  19.546  0.00  0.00    +0.000 A 
BRANCH   6  12
ATOM     12  O   UNL     1       6.505   4.255  18.801  0.00  0.00    +0.000 OA
BRANCH  12  13
ATOM     13  C   UNL     1       7.224   4.998  17.816  0.00  0.00    +0.000 C 
BRANCH  13  15
ATOM     14  C   UNL     1       7.782   7.449  17.737  0.00  0.00    +0.000 C 
ATOM     15  C   UNL     1       7.600   6.314  18.424  0.00  0.00    +0.000 C 
ENDBRANCH  13  15
ENDBRANCH  12  13
ENDBRANCH   6  12
ENDBRANCH   5  10
ENDBRANCH   3   5
ENDBRANCH   2   3
ENDBRANCH   1   2
BRANCH   1  16
ATOM     16  C   UNL     1       2.210   9.420  17.857  0.00  0.00    +0.000 C 
BRANCH  16  17
ATOM     17  N   UNL     1       0.896  10.004  17.708  0.00  0.00    +0.000 N 
ATOM     18  C   UNL     1      -0.005   9.996  18.742  0.00  0.00    +0.000 C 
ATOM     19  O   UNL     1       0.260   9.546  19.850  0.00  0.00    +0.000 OA
ATOM     20  H   UNL     1       0.694  10.516  16.863  0.00  0.00    +0.000 HD
BRANCH  18  21
ATOM     21  C   UNL     1      -1.313  10.607  18.440  0.00  0.00    +0.000 C 
ATOM     22  C   UNL     1      -2.333  10.047  17.778  0.00  0.00    +0.000 C 
ATOM     23  C   UNL     1      -3.500  10.976  17.711  0.00  0.00    +0.000 C 
ATOM     24  C   UNL     1      -4.782  10.276  18.178  0.00  0.00    +0.000 C 
ATOM     25  C   UNL     1      -3.701  11.523  16.294  0.00  0.00    +0.000 C 
ATOM     26  N   UNL     1      -3.145  12.091  18.624  0.00  0.00    +0.000 NA
ATOM     27  C   UNL     1      -1.675  11.990  18.902  0.00  0.00    +0.000 C 
ATOM     28  C   UNL     1      -0.949  13.063  18.075  0.00  0.00    +0.000 C 
ATOM     29  C   UNL     1      -1.435  12.253  20.398  0.00  0.00    +0.000 C 
ATOM     30  H   UNL     1      -3.635  11.943  19.508  0.00  0.00    +0.000 HD
ENDBRANCH  18  21
ENDBRANCH  16  17
ENDBRANCH   1  16
TORSDOF 10
ENDMDL
