MODEL 1
REMARK VINA RESULT:      -7.1      0.000      0.000
REMARK  Name = 
REMARK  14 active torsions:
REMARK  status: ('A' for Active; 'I' for Inactive)
REMARK    1  A    between atoms: C_1  and  C_2
REMARK    2  A    between atoms: C_2  and  C_3
REMARK    3  A    between atoms: C_4  and  C_5
REMARK    4  A    between atoms: C_5  and  C_6
REMARK    5  A    between atoms: C_6  and  C_7
REMARK    6  A    between atoms: C_7  and  C_8
REMARK    7  A    between atoms: C_9  and  C_10
REMARK    8  A    between atoms: C_10  and  C_11
REMARK    9  A    between atoms: C_11  and  C_12
REMARK   10  A    between atoms: N_14  and  C_15
REMARK   11  A    between atoms: C_15  and  C_16
REMARK   12  A    between atoms: C_16  and  C_17
REMARK   13  A    between atoms: C_17  and  C_18
REMARK   14  A    between atoms: C_18  and  O_20
REMARK                            x       y       z     vdW  Elec       q    Type
REMARK                         _______ _______ _______ _____ _____    ______ ____
ROOT
ATOM      1  C   UNL     1       5.306   4.528  19.054  0.00  0.00    +0.000 A 
ATOM      2  C   UNL     1       4.068   4.837  18.543  0.00  0.00    +0.000 A 
ATOM      3  N   UNL     1       3.369   3.676  18.665  0.00  0.00    +0.000 N 
ATOM      4  N   UNL     1       4.104   2.718  19.251  0.00  0.00    +0.000 NA
ATOM      5  N   UNL     1       5.301   3.230  19.495  0.00  0.00    +0.000 NA
ENDROOT
BRANCH   1   6
ATOM      6  C   UNL     1       6.536   5.355  19.111  0.00  0.00    +0.000 C 
BRANCH   6   7
ATOM      7  C   UNL     1       6.903   5.868  17.717  0.00  0.00    +0.000 C 
BRANCH   7  10
ATOM      8  C   UNL     1       6.174   4.823  15.528  0.00  0.00    +0.000 C 
ATOM      9  C   UNL     1       5.243   5.975  15.246  0.00  0.00    +0.000 C 
ATOM     10  C   UNL     1       6.888   4.785  16.674  0.00  0.00    +0.000 C 
BRANCH   8  11
ATOM     11  C   UNL     1       6.313   3.676  14.539  0.00  0.00    +0.000 C 
BRANCH  11  12
ATOM     12  C   UNL     1       6.485   4.080  13.071  0.00  0.00    +0.000 C 
BRANCH  12  16
ATOM     13  C   UNL     1       3.527   2.878  10.844  0.00  0.00    +0.000 C 
ATOM     14  C   UNL     1       4.864   2.908  11.527  0.00  0.00    +0.000 C 
ATOM     15  C   UNL     1       5.765   1.718  11.339  0.00  0.00    +0.000 C 
ATOM     16  C   UNL     1       5.219   3.974  12.269  0.00  0.00    +0.000 C 
ENDBRANCH  12  16
ENDBRANCH  11  12
ENDBRANCH   8  11
ENDBRANCH   7  10
ENDBRANCH   6   7
ENDBRANCH   1   6
BRANCH   3  17
ATOM     17  C   UNL     1       2.001   3.422  18.276  0.00  0.00    +0.000 C 
BRANCH  17  18
ATOM     18  C   UNL     1       1.268   2.453  19.210  0.00  0.00    +0.000 C 
BRANCH  18  19
ATOM     19  C   UNL     1       0.687   3.114  20.463  0.00  0.00    +0.000 C 
BRANCH  19  20
ATOM     20  C   UNL     1       1.765   3.672  21.360  0.00  0.00    +0.000 C 
ATOM     21  O   UNL     1       2.030   4.859  21.465  0.00  0.00    +0.000 OA
BRANCH  20  22
ATOM     22  O   UNL     1       2.426   2.721  22.054  0.00  0.00    +0.000 OA
ATOM     23  H   UNL     1       2.398   2.835  23.023  0.00  0.00    +0.000 HD
ENDBRANCH  20  22
ENDBRANCH  19  20
ENDBRANCH  18  19
ENDBRANCH  17  18
ENDBRANCH   3  17
TORSDOF 11
ENDMDL
MODEL 2
REMARK VINA RESULT:      -6.8      2.157      2.776
REMARK  Name = 
REMARK  14 active torsions:
REMARK  status: ('A' for Active; 'I' for Inactive)
REMARK    1  A    between atoms: C_1  and  C_2
REMARK    2  A    between atoms: C_2  and  C_3
REMARK    3  A    between atoms: C_4  and  C_5
REMARK    4  A    between atoms: C_5  and  C_6
REMARK    5  A    between atoms: C_6  and  C_7
REMARK    6  A    between atoms: C_7  and  C_8
REMARK    7  A    between atoms: C_9  and  C_10
REMARK    8  A    between atoms: C_10  and  C_11
REMARK    9  A    between atoms: C_11  and  C_12
REMARK   10  A    between atoms: N_14  and  C_15
REMARK   11  A    between atoms: C_15  and  C_16
REMARK   12  A    between atoms: C_16  and  C_17
REMARK   13  A    between atoms: C_17  and  C_18
REMARK   14  A    between atoms: C_18  and  O_20
REMARK                            x       y       z     vdW  Elec       q    Type
REMARK                         _______ _______ _______ _____ _____    ______ ____
ROOT
ATOM      1  C   UNL     1       2.894   6.641  18.694  0.00  0.00    +0.000 A 
ATOM      2  C   UNL     1       2.704   5.313  18.995  0.00  0.00    +0.000 A 
ATOM      3  N   UNL     1       1.884   5.342  20.080  0.00  0.00    +0.000 N 
ATOM      4  N   UNL     1       1.549   6.599  20.411  0.00  0.00    +0.000 NA
ATOM      5  N   UNL     1       2.167   7.410  19.565  0.00  0.00    +0.000 NA
ENDROOT
BRANCH   1   6
ATOM      6  C   UNL     1       3.769   7.259  17.667  0.00  0.00    +0.000 C 
BRANCH   6   7
ATOM      7  C   UNL     1       5.114   6.533  17.599  0.00  0.00    +0.000 C 
BRANCH   7  10
ATOM      8  C   UNL     1       6.515   5.321  15.871  0.00  0.00    +0.000 C 
ATOM      9  C   UNL     1       7.415   4.759  16.943  0.00  0.00    +0.000 C 
ATOM     10  C   UNL     1       5.501   6.152  16.197  0.00  0.00    +0.000 C 
BRANCH   8  11
ATOM     11  C   UNL     1       6.743   4.981  14.407  0.00  0.00    +0.000 C 
BRANCH  11  12
ATOM     12  C   UNL     1       6.127   3.663  13.927  0.00  0.00    +0.000 C 
BRANCH  12  16
ATOM     13  C   UNL     1       3.710   3.289  10.898  0.00  0.00    +0.000 C 
ATOM     14  C   UNL     1       4.882   3.066  11.810  0.00  0.00    +0.000 C 
ATOM     15  C   UNL     1       5.836   1.959  11.455  0.00  0.00    +0.000 C 
ATOM     16  C   UNL     1       5.051   3.846  12.894  0.00  0.00    +0.000 C 
ENDBRANCH  12  16
ENDBRANCH  11  12
ENDBRANCH   8  11
ENDBRANCH   7  10
ENDBRANCH   6   7
ENDBRANCH   1   6
BRANCH   3  17
ATOM     17  C   UNL     1       1.361   4.219  20.824  0.00  0.00    +0.000 C 
BRANCH  17  18
ATOM     18  C   UNL     1       2.226   2.959  20.719  0.00  0.00    +0.000 C 
BRANCH  18  19
ATOM     19  C   UNL     1       1.741   1.955  19.670  0.00  0.00    +0.000 C 
BRANCH  19  20
ATOM     20  C   UNL     1       2.673   1.880  18.485  0.00  0.00    +0.000 C 
ATOM     21  O   UNL     1       2.346   2.123  17.334  0.00  0.00    +0.000 OA
BRANCH  20  22
ATOM     22  O   UNL     1       3.930   1.514  18.817  0.00  0.00    +0.000 OA
ATOM     23  H   UNL     1       4.350   2.079  19.493  0.00  0.00    +0.000 HD
ENDBRANCH  20  22
ENDBRANCH  19  20
ENDBRANCH  18  19
ENDBRANCH  17  18
ENDBRANCH   3  17
TORSDOF 11
ENDMDL
MODEL 3
REMARK VINA RESULT:      -6.8      4.210      7.672
REMARK  Name = 
REMARK  14 active torsions:
REMARK  status: ('A' for Active; 'I' for Inactive)
REMARK    1  A    between atoms: C_1  and  C_2
REMARK    2  A    between atoms: C_2  and  C_3
REMARK    3  A    between atoms: C_4  and  C_5
REMARK    4  A    between atoms: C_5  and  C_6
REMARK    5  A    between atoms: C_6  and  C_7
REMARK    6  A    between atoms: C_7  and  C_8
REMARK    7  A    between atoms: C_9  and  C_10
REMARK    8  A    between atoms: C_10  and  C_11
REMARK    9  A    between atoms: C_11  and  C_12
REMARK   10  A    between atoms: N_14  and  C_15
REMARK   11  A    between atoms: C_15  and  C_16
REMARK   12  A    between atoms: C_16  and  C_17
REMARK   13  A    between atoms: C_17  and  C_18
REMARK   14  A    between atoms: C_18  and  O_20
REMARK                            x       y       z     vdW  Elec       q    Type
REMARK                         _______ _______ _______ _____ _____    ______ ____
ROOT
ATOM      1  C   UNL     1       5.899   6.066  16.158  0.00  0.00    +0.000 A 
ATOM      2  C   UNL     1       5.426   5.460  15.019  0.00  0.00    +0.000 A 
ATOM      3  N   UNL     1       6.553   5.028  14.390  0.00  0.00    +0.000 N 
ATOM      4  N   UNL     1       7.654   5.307  15.107  0.00  0.00    +0.000 NA
ATOM      5  N   UNL     1       7.265   5.948  16.199  0.00  0.00    +0.000 NA
ENDROOT
BRANCH   1   6
ATOM      6  C   UNL     1       5.160   6.813  17.205  0.00  0.00    +0.000 C 
BRANCH   6   7
ATOM      7  C   UNL     1       4.585   5.852  18.246  0.00  0.00    +0.000 C 
BRANCH   7  10
ATOM      8  C   UNL     1       3.057   3.945  17.579  0.00  0.00    +0.000 C 
ATOM      9  C   UNL     1       4.199   2.962  17.636  0.00  0.00    +0.000 C 
ATOM     10  C   UNL     1       3.270   5.256  17.826  0.00  0.00    +0.000 C 
BRANCH   8  11
ATOM     11  C   UNL     1       1.652   3.484  17.224  0.00  0.00    +0.000 C 
BRANCH  11  12
ATOM     12  C   UNL     1       0.712   3.240  18.409  0.00  0.00    +0.000 C 
BRANCH  12  16
ATOM     13  C   UNL     1       2.329   2.738  21.915  0.00  0.00    +0.000 C 
ATOM     14  C   UNL     1       1.715   3.414  20.722  0.00  0.00    +0.000 C 
ATOM     15  C   UNL     1       1.469   4.895  20.815  0.00  0.00    +0.000 C 
ATOM     16  C   UNL     1       1.411   2.697  19.624  0.00  0.00    +0.000 C 
ENDBRANCH  12  16
ENDBRANCH  11  12
ENDBRANCH   8  11
ENDBRANCH   7  10
ENDBRANCH   6   7
ENDBRANCH   1   6
BRANCH   3  17
ATOM     17  C   UNL     1       6.650   4.323  13.133  0.00  0.00    +0.000 C 
BRANCH  17  18
ATOM     18  C   UNL     1       5.670   3.150  13.012  0.00  0.00    +0.000 C 
BRANCH  18  19
ATOM     19  C   UNL     1       5.502   2.624  11.583  0.00  0.00    +0.000 C 
BRANCH  19  20
ATOM     20  C   UNL     1       6.489   1.528  11.264  0.00  0.00    +0.000 C 
ATOM     21  O   UNL     1       7.642   1.720  10.911  0.00  0.00    +0.000 OA
BRANCH  20  22
ATOM     22  O   UNL     1       5.974   0.288  11.408  0.00  0.00    +0.000 OA
ATOM     23  H   UNL     1       5.244   0.226  12.053  0.00  0.00    +0.000 HD
ENDBRANCH  20  22
ENDBRANCH  19  20
ENDBRANCH  18  19
ENDBRANCH  17  18
ENDBRANCH   3  17
TORSDOF 11
ENDMDL
MODEL 4
REMARK VINA RESULT:      -6.7      4.128      7.488
REMARK  Name = 
REMARK  14 active torsions:
REMARK  status: ('A' for Active; 'I' for Inactive)
REMARK    1  A    between atoms: C_1  and  C_2
REMARK    2  A    between atoms: C_2  and  C_3
REMARK    3  A    between atoms: C_4  and  C_5
REMARK    4  A    between atoms: C_5  and  C_6
REMARK    5  A    between atoms: C_6  and  C_7
REMARK    6  A    between atoms: C_7  and  C_8
REMARK    7  A    between atoms: C_9  and  C_10
REMARK    8  A    between atoms: C_10  and  C_11
REMARK    9  A    between atoms: C_11  and  C_12
REMARK   10  A    between atoms: N_14  and  C_15
REMARK   11  A    between atoms: C_15  and  C_16
REMARK   12  A    between atoms: C_16  and  C_17
REMARK   13  A    between atoms: C_17  and  C_18
REMARK   14  A    between atoms: C_18  and  O_20
REMARK                            x       y       z     vdW  Elec       q    Type
REMARK                         _______ _______ _______ _____ _____    ______ ____
ROOT
ATOM      1  C   UNL     1       6.163   5.841  16.442  0.00  0.00    +0.000 A 
ATOM      2  C   UNL     1       5.669   5.531  15.197  0.00  0.00    +0.000 A 
ATOM      3  N   UNL     1       6.679   4.829  14.615  0.00  0.00    +0.000 N 
ATOM      4  N   UNL     1       7.717   4.672  15.452  0.00  0.00    +0.000 NA
ATOM      5  N   UNL     1       7.412   5.293  16.582  0.00  0.00    +0.000 NA
ENDROOT
BRANCH   1   6
ATOM      6  C   UNL     1       5.565   6.676  17.512  0.00  0.00    +0.000 C 
BRANCH   6   7
ATOM      7  C   UNL     1       5.047   5.798  18.653  0.00  0.00    +0.000 C 
BRANCH   7  10
ATOM      8  C   UNL     1       2.625   5.372  18.048  0.00  0.00    +0.000 C 
ATOM      9  C   UNL     1       2.266   6.812  18.319  0.00  0.00    +0.000 C 
ATOM     10  C   UNL     1       3.887   4.934  18.243  0.00  0.00    +0.000 C 
BRANCH   8  11
ATOM     11  C   UNL     1       1.571   4.386  17.571  0.00  0.00    +0.000 C 
BRANCH  11  12
ATOM     12  C   UNL     1       1.715   2.953  18.095  0.00  0.00    +0.000 C 
BRANCH  12  16
ATOM     13  C   UNL     1       1.373   2.575  21.955  0.00  0.00    +0.000 C 
ATOM     14  C   UNL     1       1.993   2.649  20.588  0.00  0.00    +0.000 C 
ATOM     15  C   UNL     1       3.492   2.570  20.501  0.00  0.00    +0.000 C 
ATOM     16  C   UNL     1       1.211   2.777  19.500  0.00  0.00    +0.000 C 
ENDBRANCH  12  16
ENDBRANCH  11  12
ENDBRANCH   8  11
ENDBRANCH   7  10
ENDBRANCH   6   7
ENDBRANCH   1   6
BRANCH   3  17
ATOM     17  C   UNL     1       6.709   4.257  13.288  0.00  0.00    +0.000 C 
BRANCH  17  18
ATOM     18  C   UNL     1       5.492   3.380  12.972  0.00  0.00    +0.000 C 
BRANCH  18  19
ATOM     19  C   UNL     1       5.434   2.894  11.521  0.00  0.00    +0.000 C 
BRANCH  19  20
ATOM     20  C   UNL     1       6.211   1.617  11.321  0.00  0.00    +0.000 C 
ATOM     21  O   UNL     1       5.709   0.505  11.267  0.00  0.00    +0.000 OA
BRANCH  20  22
ATOM     22  O   UNL     1       7.542   1.814  11.202  0.00  0.00    +0.000 OA
ATOM     23  H   UNL     1       7.788   2.665  10.792  0.00  0.00    +0.000 HD
ENDBRANCH  20  22
ENDBRANCH  19  20
ENDBRANCH  18  19
ENDBRANCH  17  18
ENDBRANCH   3  17
TORSDOF 11
ENDMDL
MODEL 5
REMARK VINA RESULT:      -6.6      3.961      7.437
REMARK  Name = 
REMARK  14 active torsions:
REMARK  status: ('A' for Active; 'I' for Inactive)
REMARK    1  A    between atoms: C_1  and  C_2
REMARK    2  A    between atoms: C_2  and  C_3
REMARK    3  A    between atoms: C_4  and  C_5
REMARK    4  A    between atoms: C_5  and  C_6
REMARK    5  A    between atoms: C_6  and  C_7
REMARK    6  A    between atoms: C_7  and  C_8
REMARK    7  A    between atoms: C_9  and  C_10
REMARK    8  A    between atoms: C_10  and  C_11
REMARK    9  A    between atoms: C_11  and  C_12
REMARK   10  A    between atoms: N_14  and  C_15
REMARK   11  A    between atoms: C_15  and  C_16
REMARK   12  A    between atoms: C_16  and  C_17
REMARK   13  A    between atoms: C_17  and  C_18
REMARK   14  A    between atoms: C_18  and  O_20
REMARK                            x       y       z     vdW  Elec       q    Type
REMARK                         _______ _______ _______ _____ _____    ______ ____
ROOT
ATOM      1  C   UNL     1       6.129   5.532  17.260  0.00  0.00    +0.000 A 
ATOM      2  C   UNL     1       5.849   5.660  15.920  0.00  0.00    +0.000 A 
ATOM      3  N   UNL     1       6.870   4.998  15.312  0.00  0.00    +0.000 N 
ATOM      4  N   UNL     1       7.709   4.455  16.209  0.00  0.00    +0.000 NA
ATOM      5  N   UNL     1       7.264   4.778  17.414  0.00  0.00    +0.000 NA
ENDROOT
BRANCH   1   6
ATOM      6  C   UNL     1       5.432   6.121  18.430  0.00  0.00    +0.000 C 
BRANCH   6   7
ATOM      7  C   UNL     1       3.954   6.357  18.112  0.00  0.00    +0.000 C 
BRANCH   7  10
ATOM      8  C   UNL     1       1.983   5.072  19.051  0.00  0.00    +0.000 C 
ATOM      9  C   UNL     1       1.589   4.599  17.674  0.00  0.00    +0.000 C 
ATOM     10  C   UNL     1       3.040   5.898  19.214  0.00  0.00    +0.000 C 
BRANCH   8  11
ATOM     11  C   UNL     1       1.190   4.645  20.276  0.00  0.00    +0.000 C 
BRANCH  11  12
ATOM     12  C   UNL     1       1.302   3.166  20.659  0.00  0.00    +0.000 C 
BRANCH  12  16
ATOM     13  C   UNL     1       4.959   1.832  20.575  0.00  0.00    +0.000 C 
ATOM     14  C   UNL     1       3.547   2.122  20.151  0.00  0.00    +0.000 C 
ATOM     15  C   UNL     1       3.135   1.694  18.770  0.00  0.00    +0.000 C 
ATOM     16  C   UNL     1       2.703   2.741  20.999  0.00  0.00    +0.000 C 
ENDBRANCH  12  16
ENDBRANCH  11  12
ENDBRANCH   8  11
ENDBRANCH   7  10
ENDBRANCH   6   7
ENDBRANCH   1   6
BRANCH   3  17
ATOM     17  C   UNL     1       7.088   4.818  13.895  0.00  0.00    +0.000 C 
BRANCH  17  18
ATOM     18  C   UNL     1       6.106   3.838  13.244  0.00  0.00    +0.000 C 
BRANCH  18  19
ATOM     19  C   UNL     1       6.677   3.099  12.030  0.00  0.00    +0.000 C 
BRANCH  19  20
ATOM     20  C   UNL     1       5.668   2.159  11.415  0.00  0.00    +0.000 C 
ATOM     21  O   UNL     1       5.926   1.033  11.020  0.00  0.00    +0.000 OA
BRANCH  20  22
ATOM     22  O   UNL     1       4.426   2.684  11.341  0.00  0.00    +0.000 OA
ATOM     23  H   UNL     1       4.313   3.356  10.641  0.00  0.00    +0.000 HD
ENDBRANCH  20  22
ENDBRANCH  19  20
ENDBRANCH  18  19
ENDBRANCH  17  18
ENDBRANCH   3  17
TORSDOF 11
ENDMDL
MODEL 6
REMARK VINA RESULT:      -6.6      1.940      2.366
REMARK  Name = 
REMARK  14 active torsions:
REMARK  status: ('A' for Active; 'I' for Inactive)
REMARK    1  A    between atoms: C_1  and  C_2
REMARK    2  A    between atoms: C_2  and  C_3
REMARK    3  A    between atoms: C_4  and  C_5
REMARK    4  A    between atoms: C_5  and  C_6
REMARK    5  A    between atoms: C_6  and  C_7
REMARK    6  A    between atoms: C_7  and  C_8
REMARK    7  A    between atoms: C_9  and  C_10
REMARK    8  A    between atoms: C_10  and  C_11
REMARK    9  A    between atoms: C_11  and  C_12
REMARK   10  A    between atoms: N_14  and  C_15
REMARK   11  A    between atoms: C_15  and  C_16
REMARK   12  A    between atoms: C_16  and  C_17
REMARK   13  A    between atoms: C_17  and  C_18
REMARK   14  A    between atoms: C_18  and  O_20
REMARK                            x       y       z     vdW  Elec       q    Type
REMARK                         _______ _______ _______ _____ _____    ______ ____
ROOT
ATOM      1  C   UNL     1       6.032   5.256  19.259  0.00  0.00    +0.000 A 
ATOM      2  C   UNL     1       4.869   5.989  19.219  0.00  0.00    +0.000 A 
ATOM      3  N   UNL     1       3.923   5.119  19.665  0.00  0.00    +0.000 N 
ATOM      4  N   UNL     1       4.461   3.936  20.002  0.00  0.00    +0.000 NA
ATOM      5  N   UNL     1       5.760   4.007  19.755  0.00  0.00    +0.000 NA
ENDROOT
BRANCH   1   6
ATOM      6  C   UNL     1       7.395   5.624  18.806  0.00  0.00    +0.000 C 
BRANCH   6   7
ATOM      7  C   UNL     1       7.353   6.202  17.390  0.00  0.00    +0.000 C 
BRANCH   7  10
ATOM      8  C   UNL     1       5.830   5.382  15.540  0.00  0.00    +0.000 C 
ATOM      9  C   UNL     1       4.971   6.616  15.651  0.00  0.00    +0.000 C 
ATOM     10  C   UNL     1       6.883   5.205  16.368  0.00  0.00    +0.000 C 
BRANCH   8  11
ATOM     11  C   UNL     1       5.516   4.306  14.512  0.00  0.00    +0.000 C 
BRANCH  11  12
ATOM     12  C   UNL     1       6.269   4.417  13.183  0.00  0.00    +0.000 C 
BRANCH  12  16
ATOM     13  C   UNL     1       6.113   1.203  10.990  0.00  0.00    +0.000 C 
ATOM     14  C   UNL     1       5.702   2.488  11.651  0.00  0.00    +0.000 C 
ATOM     15  C   UNL     1       4.354   3.051  11.294  0.00  0.00    +0.000 C 
ATOM     16  C   UNL     1       6.528   3.088  12.530  0.00  0.00    +0.000 C 
ENDBRANCH  12  16
ENDBRANCH  11  12
ENDBRANCH   8  11
ENDBRANCH   7  10
ENDBRANCH   6   7
ENDBRANCH   1   6
BRANCH   3  17
ATOM     17  C   UNL     1       2.506   5.358  19.822  0.00  0.00    +0.000 C 
BRANCH  17  18
ATOM     18  C   UNL     1       1.643   4.621  18.793  0.00  0.00    +0.000 C 
BRANCH  18  19
ATOM     19  C   UNL     1       2.363   4.321  17.475  0.00  0.00    +0.000 C 
BRANCH  19  20
ATOM     20  C   UNL     1       2.829   2.888  17.399  0.00  0.00    +0.000 C 
ATOM     21  O   UNL     1       2.085   1.920  17.395  0.00  0.00    +0.000 OA
BRANCH  20  22
ATOM     22  O   UNL     1       4.172   2.767  17.331  0.00  0.00    +0.000 OA
ATOM     23  H   UNL     1       4.653   3.182  18.073  0.00  0.00    +0.000 HD
ENDBRANCH  20  22
ENDBRANCH  19  20
ENDBRANCH  18  19
ENDBRANCH  17  18
ENDBRANCH   3  17
TORSDOF 11
ENDMDL
MODEL 7
REMARK VINA RESULT:      -6.6      4.225      7.473
REMARK  Name = 
REMARK  14 active torsions:
REMARK  status: ('A' for Active; 'I' for Inactive)
REMARK    1  A    between atoms: C_1  and  C_2
REMARK    2  A    between atoms: C_2  and  C_3
REMARK    3  A    between atoms: C_4  and  C_5
REMARK    4  A    between atoms: C_5  and  C_6
REMARK    5  A    between atoms: C_6  and  C_7
REMARK    6  A    between atoms: C_7  and  C_8
REMARK    7  A    between atoms: C_9  and  C_10
REMARK    8  A    between atoms: C_10  and  C_11
REMARK    9  A    between atoms: C_11  and  C_12
REMARK   10  A    between atoms: N_14  and  C_15
REMARK   11  A    between atoms: C_15  and  C_16
REMARK   12  A    between atoms: C_16  and  C_17
REMARK   13  A    between atoms: C_17  and  C_18
REMARK   14  A    between atoms: C_18  and  O_20
REMARK                            x       y       z     vdW  Elec       q    Type
REMARK                         _______ _______ _______ _____ _____    ______ ____
ROOT
ATOM      1  C   UNL     1       6.747   4.754  16.356  0.00  0.00    +0.000 A 
ATOM      2  C   UNL     1       6.182   3.773  15.576  0.00  0.00    +0.000 A 
ATOM      3  N   UNL     1       5.787   4.437  14.457  0.00  0.00    +0.000 N 
ATOM      4  N   UNL     1       6.119   5.737  14.512  0.00  0.00    +0.000 NA
ATOM      5  N   UNL     1       6.711   5.945  15.679  0.00  0.00    +0.000 NA
ENDROOT
BRANCH   1   6
ATOM      6  C   UNL     1       7.279   4.671  17.739  0.00  0.00    +0.000 C 
BRANCH   6   7
ATOM      7  C   UNL     1       6.164   4.907  18.758  0.00  0.00    +0.000 C 
BRANCH   7  10
ATOM      8  C   UNL     1       3.756   5.008  17.976  0.00  0.00    +0.000 C 
ATOM      9  C   UNL     1       3.757   6.515  18.052  0.00  0.00    +0.000 C 
ATOM     10  C   UNL     1       4.852   4.305  18.338  0.00  0.00    +0.000 C 
BRANCH   8  11
ATOM     11  C   UNL     1       2.520   4.254  17.512  0.00  0.00    +0.000 C 
BRANCH  11  12
ATOM     12  C   UNL     1       2.347   2.844  18.085  0.00  0.00    +0.000 C 
BRANCH  12  16
ATOM     13  C   UNL     1       1.273   2.734  21.826  0.00  0.00    +0.000 C 
ATOM     14  C   UNL     1       2.132   2.651  20.596  0.00  0.00    +0.000 C 
ATOM     15  C   UNL     1       3.598   2.381  20.791  0.00  0.00    +0.000 C 
ATOM     16  C   UNL     1       1.581   2.813  19.378  0.00  0.00    +0.000 C 
ENDBRANCH  12  16
ENDBRANCH  11  12
ENDBRANCH   8  11
ENDBRANCH   7  10
ENDBRANCH   6   7
ENDBRANCH   1   6
BRANCH   3  17
ATOM     17  C   UNL     1       5.121   3.894  13.295  0.00  0.00    +0.000 C 
BRANCH  17  18
ATOM     18  C   UNL     1       6.085   3.325  12.248  0.00  0.00    +0.000 C 
BRANCH  18  19
ATOM     19  C   UNL     1       5.478   2.221  11.377  0.00  0.00    +0.000 C 
BRANCH  19  20
ATOM     20  C   UNL     1       6.434   1.071  11.175  0.00  0.00    +0.000 C 
ATOM     21  O   UNL     1       6.092  -0.085  10.986  0.00  0.00    +0.000 OA
BRANCH  20  22
ATOM     22  O   UNL     1       7.732   1.442  11.220  0.00  0.00    +0.000 OA
ATOM     23  H   UNL     1       7.875   2.406  11.284  0.00  0.00    +0.000 HD
ENDBRANCH  20  22
ENDBRANCH  19  20
ENDBRANCH  18  19
ENDBRANCH  17  18
ENDBRANCH   3  17
TORSDOF 11
ENDMDL
MODEL 8
REMARK VINA RESULT:      -6.6      1.547      2.438
REMARK  Name = 
REMARK  14 active torsions:
REMARK  status: ('A' for Active; 'I' for Inactive)
REMARK    1  A    between atoms: C_1  and  C_2
REMARK    2  A    between atoms: C_2  and  C_3
REMARK    3  A    between atoms: C_4  and  C_5
REMARK    4  A    between atoms: C_5  and  C_6
REMARK    5  A    between atoms: C_6  and  C_7
REMARK    6  A    between atoms: C_7  and  C_8
REMARK    7  A    between atoms: C_9  and  C_10
REMARK    8  A    between atoms: C_10  and  C_11
REMARK    9  A    between atoms: C_11  and  C_12
REMARK   10  A    between atoms: N_14  and  C_15
REMARK   11  A    between atoms: C_15  and  C_16
REMARK   12  A    between atoms: C_16  and  C_17
REMARK   13  A    between atoms: C_17  and  C_18
REMARK   14  A    between atoms: C_18  and  O_20
REMARK                            x       y       z     vdW  Elec       q    Type
REMARK                         _______ _______ _______ _____ _____    ______ ____
ROOT
ATOM      1  C   UNL     1       4.554   5.406  16.962  0.00  0.00    +0.000 A 
ATOM      2  C   UNL     1       4.173   6.019  18.133  0.00  0.00    +0.000 A 
ATOM      3  N   UNL     1       3.446   5.065  18.775  0.00  0.00    +0.000 N 
ATOM      4  N   UNL     1       3.409   3.920  18.075  0.00  0.00    +0.000 NA
ATOM      5  N   UNL     1       4.087   4.117  16.955  0.00  0.00    +0.000 NA
ENDROOT
BRANCH   1   6
ATOM      6  C   UNL     1       5.288   5.966  15.801  0.00  0.00    +0.000 C 
BRANCH   6   7
ATOM      7  C   UNL     1       6.464   5.063  15.424  0.00  0.00    +0.000 C 
BRANCH   7  10
ATOM      8  C   UNL     1       6.778   4.182  13.069  0.00  0.00    +0.000 C 
ATOM      9  C   UNL     1       7.822   5.231  12.777  0.00  0.00    +0.000 C 
ATOM     10  C   UNL     1       6.154   4.154  14.267  0.00  0.00    +0.000 C 
BRANCH   8  11
ATOM     11  C   UNL     1       6.395   3.153  12.018  0.00  0.00    +0.000 C 
BRANCH  11  12
ATOM     12  C   UNL     1       4.892   2.940  11.811  0.00  0.00    +0.000 C 
BRANCH  12  16
ATOM     13  C   UNL     1       2.602   4.755   9.238  0.00  0.00    +0.000 C 
ATOM     14  C   UNL     1       3.178   3.671  10.103  0.00  0.00    +0.000 C 
ATOM     15  C   UNL     1       2.483   2.337  10.099  0.00  0.00    +0.000 C 
ATOM     16  C   UNL     1       4.279   3.911  10.841  0.00  0.00    +0.000 C 
ENDBRANCH  12  16
ENDBRANCH  11  12
ENDBRANCH   8  11
ENDBRANCH   7  10
ENDBRANCH   6   7
ENDBRANCH   1   6
BRANCH   3  17
ATOM     17  C   UNL     1       2.791   5.166  20.059  0.00  0.00    +0.000 C 
BRANCH  17  18
ATOM     18  C   UNL     1       1.377   4.577  20.074  0.00  0.00    +0.000 C 
BRANCH  18  19
ATOM     19  C   UNL     1       1.338   3.054  20.228  0.00  0.00    +0.000 C 
BRANCH  19  20
ATOM     20  C   UNL     1       2.037   2.594  21.483  0.00  0.00    +0.000 C 
ATOM     21  O   UNL     1       3.224   2.316  21.549  0.00  0.00    +0.000 OA
BRANCH  20  22
ATOM     22  O   UNL     1       1.217   2.515  22.553  0.00  0.00    +0.000 OA
ATOM     23  H   UNL     1       0.747   3.345  22.763  0.00  0.00    +0.000 HD
ENDBRANCH  20  22
ENDBRANCH  19  20
ENDBRANCH  18  19
ENDBRANCH  17  18
ENDBRANCH   3  17
TORSDOF 11
ENDMDL
MODEL 9
REMARK VINA RESULT:      -6.6      1.969      2.652
REMARK  Name = 
REMARK  14 active torsions:
REMARK  status: ('A' for Active; 'I' for Inactive)
REMARK    1  A    between atoms: C_1  and  C_2
REMARK    2  A    between atoms: C_2  and  C_3
REMARK    3  A    between atoms: C_4  and  C_5
REMARK    4  A    between atoms: C_5  and  C_6
REMARK    5  A    between atoms: C_6  and  C_7
REMARK    6  A    between atoms: C_7  and  C_8
REMARK    7  A    between atoms: C_9  and  C_10
REMARK    8  A    between atoms: C_10  and  C_11
REMARK    9  A    between atoms: C_11  and  C_12
REMARK   10  A    between atoms: N_14  and  C_15
REMARK   11  A    between atoms: C_15  and  C_16
REMARK   12  A    between atoms: C_16  and  C_17
REMARK   13  A    between atoms: C_17  and  C_18
REMARK   14  A    between atoms: C_18  and  O_20
REMARK                            x       y       z     vdW  Elec       q    Type
REMARK                         _______ _______ _______ _____ _____    ______ ____
ROOT
ATOM      1  C   UNL     1       2.940   6.438  18.415  0.00  0.00    +0.000 A 
ATOM      2  C   UNL     1       1.904   5.565  18.184  0.00  0.00    +0.000 A 
ATOM      3  N   UNL     1       1.916   4.753  19.276  0.00  0.00    +0.000 N 
ATOM      4  N   UNL     1       2.866   5.118  20.151  0.00  0.00    +0.000 NA
ATOM      5  N   UNL     1       3.506   6.156  19.631  0.00  0.00    +0.000 NA
ENDROOT
BRANCH   1   6
ATOM      6  C   UNL     1       3.489   7.503  17.540  0.00  0.00    +0.000 C 
BRANCH   6   7
ATOM      7  C   UNL     1       4.938   7.194  17.162  0.00  0.00    +0.000 C 
BRANCH   7  10
ATOM      8  C   UNL     1       5.968   5.051  16.289  0.00  0.00    +0.000 C 
ATOM      9  C   UNL     1       7.023   5.076  17.367  0.00  0.00    +0.000 C 
ATOM     10  C   UNL     1       5.058   6.045  16.200  0.00  0.00    +0.000 C 
BRANCH   8  11
ATOM     11  C   UNL     1       5.921   3.920  15.273  0.00  0.00    +0.000 C 
BRANCH  11  12
ATOM     12  C   UNL     1       6.006   4.342  13.803  0.00  0.00    +0.000 C 
BRANCH  12  16
ATOM     13  C   UNL     1       6.352   1.707  10.958  0.00  0.00    +0.000 C 
ATOM     14  C   UNL     1       5.749   2.745  11.862  0.00  0.00    +0.000 C 
ATOM     15  C   UNL     1       4.341   3.186  11.569  0.00  0.00    +0.000 C 
ATOM     16  C   UNL     1       6.464   3.240  12.890  0.00  0.00    +0.000 C 
ENDBRANCH  12  16
ENDBRANCH  11  12
ENDBRANCH   8  11
ENDBRANCH   7  10
ENDBRANCH   6   7
ENDBRANCH   1   6
BRANCH   3  17
ATOM     17  C   UNL     1       1.038   3.641  19.561  0.00  0.00    +0.000 C 
BRANCH  17  18
ATOM     18  C   UNL     1       1.743   2.464  20.242  0.00  0.00    +0.000 C 
BRANCH  18  19
ATOM     19  C   UNL     1       2.565   1.592  19.288  0.00  0.00    +0.000 C 
BRANCH  19  20
ATOM     20  C   UNL     1       4.022   1.983  19.278  0.00  0.00    +0.000 C 
ATOM     21  O   UNL     1       4.752   1.950  20.256  0.00  0.00    +0.000 OA
BRANCH  20  22
ATOM     22  O   UNL     1       4.459   2.380  18.064  0.00  0.00    +0.000 OA
ATOM     23  H   UNL     1       5.161   3.059  18.089  0.00  0.00    +0.000 HD
ENDBRANCH  20  22
ENDBRANCH  19  20
ENDBRANCH  18  19
ENDBRANCH  17  18
ENDBRANCH   3  17
TORSDOF 11
ENDMDL
