MODEL 1
REMARK VINA RESULT:      -7.5      0.000      0.000
REMARK  Name = 
REMARK  7 active torsions:
REMARK  status: ('A' for Active; 'I' for Inactive)
REMARK    1  A    between atoms: C_2  and  C_3
REMARK    2  A    between atoms: C_2  and  C_11
REMARK    3  A    between atoms: C_3  and  C_4
REMARK    4  A    between atoms: C_4  and  C_5
REMARK    5  A    between atoms: C_17  and  O_18
REMARK    6  A    between atoms: O_18  and  C_19
REMARK    7  A    between atoms: C_19  and  C_20
REMARK                            x       y       z     vdW  Elec       q    Type
REMARK                         _______ _______ _______ _____ _____    ______ ____
ROOT
ATOM      1  C   UNL     1       3.890   5.531  18.400  0.00  0.00    +0.000 A 
ATOM      2  C   UNL     1       3.040   5.734  19.496  0.00  0.00    +0.000 A 
ATOM      3  C   UNL     1       2.360   6.928  19.680  0.00  0.00    +0.000 A 
ATOM      4  F   UNL     1       1.641   7.101  20.796  0.00  0.00    +0.000 F 
ATOM      5  C   UNL     1       2.411   7.914  18.724  0.00  0.00    +0.000 A 
ATOM      6  C   UNL     1       3.169   7.703  17.579  0.00  0.00    +0.000 A 
ATOM      7  C   UNL     1       3.952   6.533  17.412  0.00  0.00    +0.000 A 
ENDROOT
BRANCH   1   9
ATOM      8  O   UNL     1       5.671   4.099  19.041  0.00  0.00    +0.000 OA
ATOM      9  C   UNL     1       4.681   4.255  18.325  0.00  0.00    +0.000 C 
BRANCH   9  10
ATOM     10  C   UNL     1       4.211   3.128  17.388  0.00  0.00    +0.000 C 
BRANCH  10  11
ATOM     11  C   UNL     1       3.602   1.912  18.082  0.00  0.00    +0.000 C 
BRANCH  11  12
ATOM     12  C   UNL     1       2.714   2.215  19.258  0.00  0.00    +0.000 A 
ATOM     13  C   UNL     1       3.243   2.208  20.560  0.00  0.00    +0.000 A 
ATOM     14  C   UNL     1       2.463   2.618  21.641  0.00  0.00    +0.000 A 
ATOM     15  C   UNL     1       1.149   3.031  21.428  0.00  0.00    +0.000 A 
ATOM     16  C   UNL     1       0.618   3.033  20.139  0.00  0.00    +0.000 A 
ATOM     17  C   UNL     1       1.394   2.624  19.055  0.00  0.00    +0.000 A 
ENDBRANCH  11  12
ENDBRANCH  10  11
ENDBRANCH   9  10
ENDBRANCH   1   9
BRANCH   7  18
ATOM     18  O   UNL     1       4.783   6.357  16.332  0.00  0.00    +0.000 OA
BRANCH  18  19
ATOM     19  C   UNL     1       6.170   6.646  16.555  0.00  0.00    +0.000 C 
BRANCH  19  20
ATOM     20  C   UNL     1       6.999   5.477  16.151  0.00  0.00    +0.000 C 
ATOM     21  C   UNL     1       6.706   4.698  14.902  0.00  0.00    +0.000 C 
ATOM     22  O   UNL     1       7.756   5.676  14.948  0.00  0.00    +0.000 OA
ENDBRANCH  19  20
ENDBRANCH  18  19
ENDBRANCH   7  18
TORSDOF 7
ENDMDL
MODEL 2
REMARK VINA RESULT:      -7.4      2.306      3.119
REMARK  Name = 
REMARK  7 active torsions:
REMARK  status: ('A' for Active; 'I' for Inactive)
REMARK    1  A    between atoms: C_2  and  C_3
REMARK    2  A    between atoms: C_2  and  C_11
REMARK    3  A    between atoms: C_3  and  C_4
REMARK    4  A    between atoms: C_4  and  C_5
REMARK    5  A    between atoms: C_17  and  O_18
REMARK    6  A    between atoms: O_18  and  C_19
REMARK    7  A    between atoms: C_19  and  C_20
REMARK                            x       y       z     vdW  Elec       q    Type
REMARK                         _______ _______ _______ _____ _____    ______ ____
ROOT
ATOM      1  C   UNL     1       5.008   4.832  17.655  0.00  0.00    +0.000 A 
ATOM      2  C   UNL     1       5.537   5.313  18.860  0.00  0.00    +0.000 A 
ATOM      3  C   UNL     1       6.904   5.350  19.093  0.00  0.00    +0.000 A 
ATOM      4  F   UNL     1       7.347   5.725  20.299  0.00  0.00    +0.000 F 
ATOM      5  C   UNL     1       7.791   5.020  18.096  0.00  0.00    +0.000 A 
ATOM      6  C   UNL     1       7.296   4.632  16.857  0.00  0.00    +0.000 A 
ATOM      7  C   UNL     1       5.906   4.491  16.623  0.00  0.00    +0.000 A 
ENDROOT
BRANCH   1   9
ATOM      8  O   UNL     1       2.787   5.635  17.889  0.00  0.00    +0.000 OA
ATOM      9  C   UNL     1       3.517   4.716  17.515  0.00  0.00    +0.000 C 
BRANCH   9  10
ATOM     10  C   UNL     1       2.914   3.465  16.850  0.00  0.00    +0.000 C 
BRANCH  10  11
ATOM     11  C   UNL     1       2.912   2.203  17.710  0.00  0.00    +0.000 C 
BRANCH  11  12
ATOM     12  C   UNL     1       2.435   2.386  19.125  0.00  0.00    +0.000 A 
ATOM     13  C   UNL     1       3.351   2.319  20.190  0.00  0.00    +0.000 A 
ATOM     14  C   UNL     1       2.945   2.619  21.490  0.00  0.00    +0.000 A 
ATOM     15  C   UNL     1       1.622   2.982  21.735  0.00  0.00    +0.000 A 
ATOM     16  C   UNL     1       0.709   3.044  20.683  0.00  0.00    +0.000 A 
ATOM     17  C   UNL     1       1.110   2.744  19.382  0.00  0.00    +0.000 A 
ENDBRANCH  11  12
ENDBRANCH  10  11
ENDBRANCH   9  10
ENDBRANCH   1   9
BRANCH   7  18
ATOM     18  O   UNL     1       5.408   4.012  15.435  0.00  0.00    +0.000 OA
BRANCH  18  19
ATOM     19  C   UNL     1       6.045   4.502  14.247  0.00  0.00    +0.000 C 
BRANCH  19  20
ATOM     20  C   UNL     1       6.223   3.388  13.276  0.00  0.00    +0.000 C 
ATOM     21  C   UNL     1       5.411   3.303  12.016  0.00  0.00    +0.000 C 
ATOM     22  O   UNL     1       6.762   3.789  12.007  0.00  0.00    +0.000 OA
ENDBRANCH  19  20
ENDBRANCH  18  19
ENDBRANCH   7  18
TORSDOF 7
ENDMDL
MODEL 3
REMARK VINA RESULT:      -7.3      2.267      5.036
REMARK  Name = 
REMARK  7 active torsions:
REMARK  status: ('A' for Active; 'I' for Inactive)
REMARK    1  A    between atoms: C_2  and  C_3
REMARK    2  A    between atoms: C_2  and  C_11
REMARK    3  A    between atoms: C_3  and  C_4
REMARK    4  A    between atoms: C_4  and  C_5
REMARK    5  A    between atoms: C_17  and  O_18
REMARK    6  A    between atoms: O_18  and  C_19
REMARK    7  A    between atoms: C_19  and  C_20
REMARK                            x       y       z     vdW  Elec       q    Type
REMARK                         _______ _______ _______ _____ _____    ______ ____
ROOT
ATOM      1  C   UNL     1       2.277   3.807  19.378  0.00  0.00    +0.000 A 
ATOM      2  C   UNL     1       1.361   3.554  20.408  0.00  0.00    +0.000 A 
ATOM      3  C   UNL     1       1.671   2.718  21.469  0.00  0.00    +0.000 A 
ATOM      4  F   UNL     1       0.722   2.434  22.371  0.00  0.00    +0.000 F 
ATOM      5  C   UNL     1       2.937   2.201  21.604  0.00  0.00    +0.000 A 
ATOM      6  C   UNL     1       3.896   2.514  20.649  0.00  0.00    +0.000 A 
ATOM      7  C   UNL     1       3.579   3.284  19.502  0.00  0.00    +0.000 A 
ENDROOT
BRANCH   1   9
ATOM      8  O   UNL     1       1.126   4.131  17.327  0.00  0.00    +0.000 OA
ATOM      9  C   UNL     1       1.834   4.632  18.202  0.00  0.00    +0.000 C 
BRANCH   9  10
ATOM     10  C   UNL     1       2.224   6.120  18.131  0.00  0.00    +0.000 C 
BRANCH  10  11
ATOM     11  C   UNL     1       2.545   6.777  19.472  0.00  0.00    +0.000 C 
BRANCH  11  12
ATOM     12  C   UNL     1       1.792   8.045  19.767  0.00  0.00    +0.000 A 
ATOM     13  C   UNL     1       1.550   8.975  18.741  0.00  0.00    +0.000 A 
ATOM     14  C   UNL     1       0.740  10.086  18.972  0.00  0.00    +0.000 A 
ATOM     15  C   UNL     1       0.172  10.279  20.229  0.00  0.00    +0.000 A 
ATOM     16  C   UNL     1       0.415   9.363  21.252  0.00  0.00    +0.000 A 
ATOM     17  C   UNL     1       1.225   8.250  21.026  0.00  0.00    +0.000 A 
ENDBRANCH  11  12
ENDBRANCH  10  11
ENDBRANCH   9  10
ENDBRANCH   1   9
BRANCH   7  18
ATOM     18  O   UNL     1       4.492   3.517  18.502  0.00  0.00    +0.000 OA
BRANCH  18  19
ATOM     19  C   UNL     1       5.484   4.514  18.779  0.00  0.00    +0.000 C 
BRANCH  19  20
ATOM     20  C   UNL     1       6.502   4.527  17.692  0.00  0.00    +0.000 C 
ATOM     21  C   UNL     1       7.467   5.666  17.530  0.00  0.00    +0.000 C 
ATOM     22  O   UNL     1       7.859   4.432  18.151  0.00  0.00    +0.000 OA
ENDBRANCH  19  20
ENDBRANCH  18  19
ENDBRANCH   7  18
TORSDOF 7
ENDMDL
MODEL 4
REMARK VINA RESULT:      -7.3      2.277      3.333
REMARK  Name = 
REMARK  7 active torsions:
REMARK  status: ('A' for Active; 'I' for Inactive)
REMARK    1  A    between atoms: C_2  and  C_3
REMARK    2  A    between atoms: C_2  and  C_11
REMARK    3  A    between atoms: C_3  and  C_4
REMARK    4  A    between atoms: C_4  and  C_5
REMARK    5  A    between atoms: C_17  and  O_18
REMARK    6  A    between atoms: O_18  and  C_19
REMARK    7  A    between atoms: C_19  and  C_20
REMARK                            x       y       z     vdW  Elec       q    Type
REMARK                         _______ _______ _______ _____ _____    ______ ____
ROOT
ATOM      1  C   UNL     1       5.149   4.152  17.495  0.00  0.00    +0.000 A 
ATOM      2  C   UNL     1       5.596   4.573  18.755  0.00  0.00    +0.000 A 
ATOM      3  C   UNL     1       6.763   5.305  18.907  0.00  0.00    +0.000 A 
ATOM      4  F   UNL     1       7.194   5.593  20.142  0.00  0.00    +0.000 F 
ATOM      5  C   UNL     1       7.462   5.741  17.807  0.00  0.00    +0.000 A 
ATOM      6  C   UNL     1       6.989   5.422  16.540  0.00  0.00    +0.000 A 
ATOM      7  C   UNL     1       5.854   4.592  16.358  0.00  0.00    +0.000 A 
ENDROOT
BRANCH   1   9
ATOM      8  O   UNL     1       3.991   2.107  17.828  0.00  0.00    +0.000 OA
ATOM      9  C   UNL     1       3.937   3.266  17.416  0.00  0.00    +0.000 C 
BRANCH   9  10
ATOM     10  C   UNL     1       2.617   3.838  16.870  0.00  0.00    +0.000 C 
BRANCH  10  11
ATOM     11  C   UNL     1       1.849   4.744  17.830  0.00  0.00    +0.000 C 
BRANCH  11  12
ATOM     12  C   UNL     1       1.734   4.239  19.243  0.00  0.00    +0.000 A 
ATOM     13  C   UNL     1       1.105   3.009  19.501  0.00  0.00    +0.000 A 
ATOM     14  C   UNL     1       1.111   2.470  20.787  0.00  0.00    +0.000 A 
ATOM     15  C   UNL     1       1.739   3.158  21.823  0.00  0.00    +0.000 A 
ATOM     16  C   UNL     1       2.358   4.382  21.572  0.00  0.00    +0.000 A 
ATOM     17  C   UNL     1       2.354   4.925  20.288  0.00  0.00    +0.000 A 
ENDBRANCH  11  12
ENDBRANCH  10  11
ENDBRANCH   9  10
ENDBRANCH   1   9
BRANCH   7  18
ATOM     18  O   UNL     1       5.436   4.187  15.113  0.00  0.00    +0.000 OA
BRANCH  18  19
ATOM     19  C   UNL     1       6.341   4.449  14.032  0.00  0.00    +0.000 C 
BRANCH  19  20
ATOM     20  C   UNL     1       6.293   3.329  13.053  0.00  0.00    +0.000 C 
ATOM     21  C   UNL     1       5.304   3.313  11.923  0.00  0.00    +0.000 C 
ATOM     22  O   UNL     1       6.674   3.694  11.717  0.00  0.00    +0.000 OA
ENDBRANCH  19  20
ENDBRANCH  18  19
ENDBRANCH   7  18
TORSDOF 7
ENDMDL
MODEL 5
REMARK VINA RESULT:      -7.2      2.290      5.226
REMARK  Name = 
REMARK  7 active torsions:
REMARK  status: ('A' for Active; 'I' for Inactive)
REMARK    1  A    between atoms: C_2  and  C_3
REMARK    2  A    between atoms: C_2  and  C_11
REMARK    3  A    between atoms: C_3  and  C_4
REMARK    4  A    between atoms: C_4  and  C_5
REMARK    5  A    between atoms: C_17  and  O_18
REMARK    6  A    between atoms: O_18  and  C_19
REMARK    7  A    between atoms: C_19  and  C_20
REMARK                            x       y       z     vdW  Elec       q    Type
REMARK                         _______ _______ _______ _____ _____    ______ ____
ROOT
ATOM      1  C   UNL     1       2.564   3.854  18.736  0.00  0.00    +0.000 A 
ATOM      2  C   UNL     1       2.320   2.880  19.713  0.00  0.00    +0.000 A 
ATOM      3  C   UNL     1       2.066   3.221  21.033  0.00  0.00    +0.000 A 
ATOM      4  F   UNL     1       1.939   2.246  21.943  0.00  0.00    +0.000 F 
ATOM      5  C   UNL     1       1.932   4.538  21.401  0.00  0.00    +0.000 A 
ATOM      6  C   UNL     1       2.073   5.524  20.432  0.00  0.00    +0.000 A 
ATOM      7  C   UNL     1       2.429   5.209  19.098  0.00  0.00    +0.000 A 
ENDROOT
BRANCH   1   9
ATOM      8  O   UNL     1       2.088   3.349  16.466  0.00  0.00    +0.000 OA
ATOM      9  C   UNL     1       2.943   3.410  17.351  0.00  0.00    +0.000 C 
BRANCH   9  10
ATOM     10  C   UNL     1       4.415   3.087  17.036  0.00  0.00    +0.000 C 
BRANCH  10  11
ATOM     11  C   UNL     1       5.122   4.084  16.121  0.00  0.00    +0.000 C 
BRANCH  11  12
ATOM     12  C   UNL     1       6.068   5.033  16.806  0.00  0.00    +0.000 A 
ATOM     13  C   UNL     1       5.909   6.421  16.650  0.00  0.00    +0.000 A 
ATOM     14  C   UNL     1       6.695   7.308  17.385  0.00  0.00    +0.000 A 
ATOM     15  C   UNL     1       7.647   6.815  18.275  0.00  0.00    +0.000 A 
ATOM     16  C   UNL     1       7.813   5.438  18.428  0.00  0.00    +0.000 A 
ATOM     17  C   UNL     1       7.030   4.548  17.695  0.00  0.00    +0.000 A 
ENDBRANCH  11  12
ENDBRANCH  10  11
ENDBRANCH   9  10
ENDBRANCH   1   9
BRANCH   7  18
ATOM     18  O   UNL     1       2.669   6.180  18.156  0.00  0.00    +0.000 OA
BRANCH  18  19
ATOM     19  C   UNL     1       2.663   7.532  18.634  0.00  0.00    +0.000 C 
BRANCH  19  20
ATOM     20  C   UNL     1       1.734   8.353  17.810  0.00  0.00    +0.000 C 
ATOM     21  C   UNL     1       1.120   9.617  18.339  0.00  0.00    +0.000 C 
ATOM     22  O   UNL     1       2.247   9.645  17.450  0.00  0.00    +0.000 OA
ENDBRANCH  19  20
ENDBRANCH  18  19
ENDBRANCH   7  18
TORSDOF 7
ENDMDL
MODEL 6
REMARK VINA RESULT:      -7.2      2.879      4.614
REMARK  Name = 
REMARK  7 active torsions:
REMARK  status: ('A' for Active; 'I' for Inactive)
REMARK    1  A    between atoms: C_2  and  C_3
REMARK    2  A    between atoms: C_2  and  C_11
REMARK    3  A    between atoms: C_3  and  C_4
REMARK    4  A    between atoms: C_4  and  C_5
REMARK    5  A    between atoms: C_17  and  O_18
REMARK    6  A    between atoms: O_18  and  C_19
REMARK    7  A    between atoms: C_19  and  C_20
REMARK                            x       y       z     vdW  Elec       q    Type
REMARK                         _______ _______ _______ _____ _____    ______ ____
ROOT
ATOM      1  C   UNL     1       5.588   4.540  14.966  0.00  0.00    +0.000 A 
ATOM      2  C   UNL     1       5.052   3.845  13.873  0.00  0.00    +0.000 A 
ATOM      3  C   UNL     1       5.739   3.729  12.675  0.00  0.00    +0.000 A 
ATOM      4  F   UNL     1       5.135   3.140  11.634  0.00  0.00    +0.000 F 
ATOM      5  C   UNL     1       7.025   4.198  12.560  0.00  0.00    +0.000 A 
ATOM      6  C   UNL     1       7.620   4.806  13.658  0.00  0.00    +0.000 A 
ATOM      7  C   UNL     1       6.907   5.026  14.863  0.00  0.00    +0.000 A 
ENDROOT
BRANCH   1   9
ATOM      8  O   UNL     1       4.412   5.853  16.555  0.00  0.00    +0.000 OA
ATOM      9  C   UNL     1       4.741   4.723  16.194  0.00  0.00    +0.000 C 
BRANCH   9  10
ATOM     10  C   UNL     1       4.244   3.484  16.960  0.00  0.00    +0.000 C 
BRANCH  10  11
ATOM     11  C   UNL     1       2.759   3.487  17.315  0.00  0.00    +0.000 C 
BRANCH  11  12
ATOM     12  C   UNL     1       2.445   3.502  18.787  0.00  0.00    +0.000 A 
ATOM     13  C   UNL     1       2.664   4.668  19.541  0.00  0.00    +0.000 A 
ATOM     14  C   UNL     1       2.253   4.735  20.872  0.00  0.00    +0.000 A 
ATOM     15  C   UNL     1       1.628   3.637  21.459  0.00  0.00    +0.000 A 
ATOM     16  C   UNL     1       1.415   2.476  20.716  0.00  0.00    +0.000 A 
ATOM     17  C   UNL     1       1.825   2.404  19.386  0.00  0.00    +0.000 A 
ENDBRANCH  11  12
ENDBRANCH  10  11
ENDBRANCH   9  10
ENDBRANCH   1   9
BRANCH   7  18
ATOM     18  O   UNL     1       7.450   5.714  15.920  0.00  0.00    +0.000 OA
BRANCH  18  19
ATOM     19  C   UNL     1       7.700   4.946  17.106  0.00  0.00    +0.000 C 
BRANCH  19  20
ATOM     20  C   UNL     1       7.519   5.805  18.308  0.00  0.00    +0.000 C 
ATOM     21  C   UNL     1       6.558   5.436  19.402  0.00  0.00    +0.000 C 
ATOM     22  O   UNL     1       7.969   5.208  19.534  0.00  0.00    +0.000 OA
ENDBRANCH  19  20
ENDBRANCH  18  19
ENDBRANCH   7  18
TORSDOF 7
ENDMDL
MODEL 7
REMARK VINA RESULT:      -7.1      0.798      1.354
REMARK  Name = 
REMARK  7 active torsions:
REMARK  status: ('A' for Active; 'I' for Inactive)
REMARK    1  A    between atoms: C_2  and  C_3
REMARK    2  A    between atoms: C_2  and  C_11
REMARK    3  A    between atoms: C_3  and  C_4
REMARK    4  A    between atoms: C_4  and  C_5
REMARK    5  A    between atoms: C_17  and  O_18
REMARK    6  A    between atoms: O_18  and  C_19
REMARK    7  A    between atoms: C_19  and  C_20
REMARK                            x       y       z     vdW  Elec       q    Type
REMARK                         _______ _______ _______ _____ _____    ______ ____
ROOT
ATOM      1  C   UNL     1       4.260   5.640  18.073  0.00  0.00    +0.000 A 
ATOM      2  C   UNL     1       3.160   5.868  18.911  0.00  0.00    +0.000 A 
ATOM      3  C   UNL     1       2.516   7.095  18.950  0.00  0.00    +0.000 A 
ATOM      4  F   UNL     1       1.535   7.285  19.842  0.00  0.00    +0.000 F 
ATOM      5  C   UNL     1       2.867   8.096  18.078  0.00  0.00    +0.000 A 
ATOM      6  C   UNL     1       3.891   7.866  17.167  0.00  0.00    +0.000 A 
ATOM      7  C   UNL     1       4.632   6.658  17.172  0.00  0.00    +0.000 A 
ENDROOT
BRANCH   1   9
ATOM      8  O   UNL     1       5.945   4.198  18.918  0.00  0.00    +0.000 OA
ATOM      9  C   UNL     1       4.979   4.324  18.164  0.00  0.00    +0.000 C 
BRANCH   9  10
ATOM     10  C   UNL     1       4.463   3.122  17.352  0.00  0.00    +0.000 C 
BRANCH  10  11
ATOM     11  C   UNL     1       3.846   1.993  18.174  0.00  0.00    +0.000 C 
BRANCH  11  12
ATOM     12  C   UNL     1       2.909   2.427  19.268  0.00  0.00    +0.000 A 
ATOM     13  C   UNL     1       1.556   2.678  18.978  0.00  0.00    +0.000 A 
ATOM     14  C   UNL     1       0.653   2.950  20.006  0.00  0.00    +0.000 A 
ATOM     15  C   UNL     1       1.096   2.979  21.326  0.00  0.00    +0.000 A 
ATOM     16  C   UNL     1       2.438   2.738  21.618  0.00  0.00    +0.000 A 
ATOM     17  C   UNL     1       3.345   2.466  20.594  0.00  0.00    +0.000 A 
ENDBRANCH  11  12
ENDBRANCH  10  11
ENDBRANCH   9  10
ENDBRANCH   1   9
BRANCH   7  18
ATOM     18  O   UNL     1       5.710   6.457  16.345  0.00  0.00    +0.000 OA
BRANCH  18  19
ATOM     19  C   UNL     1       5.421   5.864  15.071  0.00  0.00    +0.000 C 
BRANCH  19  20
ATOM     20  C   UNL     1       6.412   4.792  14.779  0.00  0.00    +0.000 C 
ATOM     21  C   UNL     1       6.231   3.844  13.629  0.00  0.00    +0.000 C 
ATOM     22  O   UNL     1       7.124   4.966  13.544  0.00  0.00    +0.000 OA
ENDBRANCH  19  20
ENDBRANCH  18  19
ENDBRANCH   7  18
TORSDOF 7
ENDMDL
MODEL 8
REMARK VINA RESULT:      -7.1      2.034      6.106
REMARK  Name = 
REMARK  7 active torsions:
REMARK  status: ('A' for Active; 'I' for Inactive)
REMARK    1  A    between atoms: C_2  and  C_3
REMARK    2  A    between atoms: C_2  and  C_11
REMARK    3  A    between atoms: C_3  and  C_4
REMARK    4  A    between atoms: C_4  and  C_5
REMARK    5  A    between atoms: C_17  and  O_18
REMARK    6  A    between atoms: O_18  and  C_19
REMARK    7  A    between atoms: C_19  and  C_20
REMARK                            x       y       z     vdW  Elec       q    Type
REMARK                         _______ _______ _______ _____ _____    ______ ____
ROOT
ATOM      1  C   UNL     1       4.611   5.272  18.201  0.00  0.00    +0.000 A 
ATOM      2  C   UNL     1       4.391   6.641  17.997  0.00  0.00    +0.000 A 
ATOM      3  C   UNL     1       3.113   7.168  17.904  0.00  0.00    +0.000 A 
ATOM      4  F   UNL     1       2.965   8.466  17.609  0.00  0.00    +0.000 F 
ATOM      5  C   UNL     1       2.013   6.375  18.125  0.00  0.00    +0.000 A 
ATOM      6  C   UNL     1       2.202   5.031  18.426  0.00  0.00    +0.000 A 
ATOM      7  C   UNL     1       3.492   4.446  18.430  0.00  0.00    +0.000 A 
ENDROOT
BRANCH   1   9
ATOM      8  O   UNL     1       6.663   4.666  19.227  0.00  0.00    +0.000 OA
ATOM      9  C   UNL     1       6.022   4.755  18.180  0.00  0.00    +0.000 C 
BRANCH   9  10
ATOM     10  C   UNL     1       6.635   4.285  16.848  0.00  0.00    +0.000 C 
BRANCH  10  11
ATOM     11  C   UNL     1       5.637   4.024  15.723  0.00  0.00    +0.000 C 
BRANCH  11  12
ATOM     12  C   UNL     1       6.166   4.226  14.329  0.00  0.00    +0.000 A 
ATOM     13  C   UNL     1       7.231   5.115  14.102  0.00  0.00    +0.000 A 
ATOM     14  C   UNL     1       7.816   5.208  12.840  0.00  0.00    +0.000 A 
ATOM     15  C   UNL     1       7.338   4.419  11.796  0.00  0.00    +0.000 A 
ATOM     16  C   UNL     1       6.277   3.540  12.015  0.00  0.00    +0.000 A 
ATOM     17  C   UNL     1       5.689   3.444  13.275  0.00  0.00    +0.000 A 
ENDBRANCH  11  12
ENDBRANCH  10  11
ENDBRANCH   9  10
ENDBRANCH   1   9
BRANCH   7  18
ATOM     18  O   UNL     1       3.685   3.100  18.627  0.00  0.00    +0.000 OA
BRANCH  18  19
ATOM     19  C   UNL     1       3.866   2.686  19.989  0.00  0.00    +0.000 C 
BRANCH  19  20
ATOM     20  C   UNL     1       2.795   3.274  20.840  0.00  0.00    +0.000 C 
ATOM     21  C   UNL     1       1.546   2.511  21.173  0.00  0.00    +0.000 C 
ATOM     22  O   UNL     1       2.627   2.627  22.110  0.00  0.00    +0.000 OA
ENDBRANCH  19  20
ENDBRANCH  18  19
ENDBRANCH   7  18
TORSDOF 7
ENDMDL
MODEL 9
REMARK VINA RESULT:      -7.1      1.616      4.290
REMARK  Name = 
REMARK  7 active torsions:
REMARK  status: ('A' for Active; 'I' for Inactive)
REMARK    1  A    between atoms: C_2  and  C_3
REMARK    2  A    between atoms: C_2  and  C_11
REMARK    3  A    between atoms: C_3  and  C_4
REMARK    4  A    between atoms: C_4  and  C_5
REMARK    5  A    between atoms: C_17  and  O_18
REMARK    6  A    between atoms: O_18  and  C_19
REMARK    7  A    between atoms: C_19  and  C_20
REMARK                            x       y       z     vdW  Elec       q    Type
REMARK                         _______ _______ _______ _____ _____    ______ ____
ROOT
ATOM      1  C   UNL     1       3.762   4.024  19.053  0.00  0.00    +0.000 A 
ATOM      2  C   UNL     1       2.692   4.030  19.959  0.00  0.00    +0.000 A 
ATOM      3  C   UNL     1       1.585   3.213  19.785  0.00  0.00    +0.000 A 
ATOM      4  F   UNL     1       0.550   3.334  20.625  0.00  0.00    +0.000 F 
ATOM      5  C   UNL     1       1.557   2.283  18.774  0.00  0.00    +0.000 A 
ATOM      6  C   UNL     1       2.647   2.186  17.918  0.00  0.00    +0.000 A 
ATOM      7  C   UNL     1       3.747   3.074  18.012  0.00  0.00    +0.000 A 
ENDROOT
BRANCH   1   9
ATOM      8  O   UNL     1       5.929   4.666  19.776  0.00  0.00    +0.000 OA
ATOM      9  C   UNL     1       4.875   5.015  19.242  0.00  0.00    +0.000 C 
BRANCH   9  10
ATOM     10  C   UNL     1       4.708   6.451  18.713  0.00  0.00    +0.000 C 
BRANCH  10  11
ATOM     11  C   UNL     1       3.440   6.706  17.902  0.00  0.00    +0.000 C 
BRANCH  11  12
ATOM     12  C   UNL     1       2.452   7.653  18.527  0.00  0.00    +0.000 A 
ATOM     13  C   UNL     1       2.095   7.507  19.879  0.00  0.00    +0.000 A 
ATOM     14  C   UNL     1       1.286   8.456  20.502  0.00  0.00    +0.000 A 
ATOM     15  C   UNL     1       0.824   9.553  19.778  0.00  0.00    +0.000 A 
ATOM     16  C   UNL     1       1.170   9.699  18.435  0.00  0.00    +0.000 A 
ATOM     17  C   UNL     1       1.978   8.752  17.807  0.00  0.00    +0.000 A 
ENDBRANCH  11  12
ENDBRANCH  10  11
ENDBRANCH   9  10
ENDBRANCH   1   9
BRANCH   7  18
ATOM     18  O   UNL     1       4.784   3.054  17.111  0.00  0.00    +0.000 OA
BRANCH  18  19
ATOM     19  C   UNL     1       4.727   4.038  16.070  0.00  0.00    +0.000 C 
BRANCH  19  20
ATOM     20  C   UNL     1       6.107   4.460  15.701  0.00  0.00    +0.000 C 
ATOM     21  C   UNL     1       6.601   4.386  14.285  0.00  0.00    +0.000 C 
ATOM     22  O   UNL     1       6.165   5.626  14.865  0.00  0.00    +0.000 OA
ENDBRANCH  19  20
ENDBRANCH  18  19
ENDBRANCH   7  18
TORSDOF 7
ENDMDL
