MODEL 1
REMARK VINA RESULT:      -7.5      0.000      0.000
REMARK  Name = 
REMARK  6 active torsions:
REMARK  status: ('A' for Active; 'I' for Inactive)
REMARK    1  A    between atoms: C_4  and  O_5
REMARK    2  A    between atoms: O_5  and  C_6
REMARK    3  A    between atoms: C_6  and  C_7
REMARK    4  A    between atoms: C_10  and  C_11
REMARK    5  A    between atoms: C_11  and  O_12
REMARK    6  A    between atoms: O_12  and  C_13
REMARK                            x       y       z     vdW  Elec       q    Type
REMARK                         _______ _______ _______ _____ _____    ______ ____
ROOT
ATOM      1  C   UNL     1       7.541   7.627  17.870  0.00  0.00    +0.000 A 
ATOM      2  C   UNL     1       7.978   6.567  18.676  0.00  0.00    +0.000 A 
ATOM      3  C   UNL     1       7.241   5.383  18.751  0.00  0.00    +0.000 A 
ATOM      4  C   UNL     1       6.060   5.233  18.014  0.00  0.00    +0.000 A 
ATOM      5  C   UNL     1       5.622   6.292  17.208  0.00  0.00    +0.000 A 
ATOM      6  C   UNL     1       6.360   7.475  17.132  0.00  0.00    +0.000 A 
ENDROOT
BRANCH   1   7
ATOM      7  C   UNL     1       8.315   8.920  17.814  0.00  0.00    +0.000 C 
BRANCH   7   8
ATOM      8  O   UNL     1       8.788   9.267  19.118  0.00  0.00    +0.000 OA
BRANCH   8  12
ATOM      9  C   UNL     1      10.844  12.832  19.131  0.00  0.00    +0.000 A 
ATOM     10  C   UNL     1      10.576  12.191  20.338  0.00  0.00    +0.000 A 
ATOM     11  C   UNL     1       9.879  10.984  20.327  0.00  0.00    +0.000 A 
ATOM     12  C   UNL     1       9.476  10.466  19.106  0.00  0.00    +0.000 A 
ATOM     13  N   UNL     1       9.725  11.073  17.923  0.00  0.00    +0.000 NA
ATOM     14  C   UNL     1      10.401  12.239  17.962  0.00  0.00    +0.000 A 
ENDBRANCH   8  12
ENDBRANCH   7   8
ENDBRANCH   1   7
BRANCH   4  15
ATOM     15  C   UNL     1       5.271   3.949  18.089  0.00  0.00    +0.000 C 
BRANCH  15  16
ATOM     16  O   UNL     1       5.048   3.603  19.457  0.00  0.00    +0.000 OA
BRANCH  16  17
ATOM     17  C   UNL     1       3.705   3.644  19.781  0.00  0.00    +0.000 A 
ATOM     18  C   UNL     1       3.139   4.891  19.989  0.00  0.00    +0.000 A 
ATOM     19  C   UNL     1       1.783   4.955  20.301  0.00  0.00    +0.000 A 
ATOM     20  C   UNL     1       1.047   3.777  20.394  0.00  0.00    +0.000 A 
ATOM     21  C   UNL     1       1.703   2.579  20.173  0.00  0.00    +0.000 A 
ATOM     22  N   UNL     1       3.011   2.488  19.871  0.00  0.00    +0.000 NA
ENDBRANCH  16  17
ENDBRANCH  15  16
ENDBRANCH   4  15
TORSDOF 6
ENDMDL
MODEL 2
REMARK VINA RESULT:      -7.5      1.136      1.567
REMARK  Name = 
REMARK  6 active torsions:
REMARK  status: ('A' for Active; 'I' for Inactive)
REMARK    1  A    between atoms: C_4  and  O_5
REMARK    2  A    between atoms: O_5  and  C_6
REMARK    3  A    between atoms: C_6  and  C_7
REMARK    4  A    between atoms: C_10  and  C_11
REMARK    5  A    between atoms: C_11  and  O_12
REMARK    6  A    between atoms: O_12  and  C_13
REMARK                            x       y       z     vdW  Elec       q    Type
REMARK                         _______ _______ _______ _____ _____    ______ ____
ROOT
ATOM      1  C   UNL     1       7.401   7.558  17.819  0.00  0.00    +0.000 A 
ATOM      2  C   UNL     1       7.816   6.467  18.593  0.00  0.00    +0.000 A 
ATOM      3  C   UNL     1       7.043   5.305  18.652  0.00  0.00    +0.000 A 
ATOM      4  C   UNL     1       5.846   5.211  17.931  0.00  0.00    +0.000 A 
ATOM      5  C   UNL     1       5.431   6.301  17.156  0.00  0.00    +0.000 A 
ATOM      6  C   UNL     1       6.205   7.462  17.095  0.00  0.00    +0.000 A 
ENDROOT
BRANCH   1   7
ATOM      7  C   UNL     1       8.216   8.828  17.780  0.00  0.00    +0.000 C 
BRANCH   7   8
ATOM      8  O   UNL     1       8.928   8.992  19.009  0.00  0.00    +0.000 OA
BRANCH   8  12
ATOM      9  C   UNL     1      10.037  12.917  19.552  0.00  0.00    +0.000 A 
ATOM     10  C   UNL     1       9.965  12.399  18.262  0.00  0.00    +0.000 A 
ATOM     11  C   UNL     1       9.589  11.068  18.084  0.00  0.00    +0.000 A 
ATOM     12  C   UNL     1       9.301  10.308  19.207  0.00  0.00    +0.000 A 
ATOM     13  N   UNL     1       9.367  10.793  20.469  0.00  0.00    +0.000 NA
ATOM     14  C   UNL     1       9.732  12.083  20.612  0.00  0.00    +0.000 A 
ENDBRANCH   8  12
ENDBRANCH   7   8
ENDBRANCH   1   7
BRANCH   4  15
ATOM     15  C   UNL     1       5.018   3.951  17.988  0.00  0.00    +0.000 C 
BRANCH  15  16
ATOM     16  O   UNL     1       3.662   4.254  17.653  0.00  0.00    +0.000 OA
BRANCH  16  17
ATOM     17  C   UNL     1       2.806   3.995  18.708  0.00  0.00    +0.000 A 
ATOM     18  C   UNL     1       1.710   3.189  18.452  0.00  0.00    +0.000 A 
ATOM     19  C   UNL     1       0.843   2.902  19.504  0.00  0.00    +0.000 A 
ATOM     20  C   UNL     1       1.104   3.429  20.766  0.00  0.00    +0.000 A 
ATOM     21  C   UNL     1       2.223   4.227  20.922  0.00  0.00    +0.000 A 
ATOM     22  N   UNL     1       3.076   4.521  19.923  0.00  0.00    +0.000 NA
ENDBRANCH  16  17
ENDBRANCH  15  16
ENDBRANCH   4  15
TORSDOF 6
ENDMDL
MODEL 3
REMARK VINA RESULT:      -7.4      1.180      1.444
REMARK  Name = 
REMARK  6 active torsions:
REMARK  status: ('A' for Active; 'I' for Inactive)
REMARK    1  A    between atoms: C_4  and  O_5
REMARK    2  A    between atoms: O_5  and  C_6
REMARK    3  A    between atoms: C_6  and  C_7
REMARK    4  A    between atoms: C_10  and  C_11
REMARK    5  A    between atoms: C_11  and  O_12
REMARK    6  A    between atoms: O_12  and  C_13
REMARK                            x       y       z     vdW  Elec       q    Type
REMARK                         _______ _______ _______ _____ _____    ______ ____
ROOT
ATOM      1  C   UNL     1       7.413   7.520  17.804  0.00  0.00    +0.000 A 
ATOM      2  C   UNL     1       7.853   6.435  18.573  0.00  0.00    +0.000 A 
ATOM      3  C   UNL     1       7.111   5.253  18.621  0.00  0.00    +0.000 A 
ATOM      4  C   UNL     1       5.920   5.131  17.895  0.00  0.00    +0.000 A 
ATOM      5  C   UNL     1       5.480   6.215  17.125  0.00  0.00    +0.000 A 
ATOM      6  C   UNL     1       6.223   7.396  17.075  0.00  0.00    +0.000 A 
ENDROOT
BRANCH   1   7
ATOM      7  C   UNL     1       8.194   8.811  17.776  0.00  0.00    +0.000 C 
BRANCH   7   8
ATOM      8  O   UNL     1       8.923   8.970  18.996  0.00  0.00    +0.000 OA
BRANCH   8  12
ATOM      9  C   UNL     1       9.946  12.910  19.594  0.00  0.00    +0.000 A 
ATOM     10  C   UNL     1       9.843  12.419  18.296  0.00  0.00    +0.000 A 
ATOM     11  C   UNL     1       9.496  11.083  18.099  0.00  0.00    +0.000 A 
ATOM     12  C   UNL     1       9.267  10.291  19.213  0.00  0.00    +0.000 A 
ATOM     13  N   UNL     1       9.364  10.748  20.483  0.00  0.00    +0.000 NA
ATOM     14  C   UNL     1       9.700  12.043  20.644  0.00  0.00    +0.000 A 
ENDBRANCH   8  12
ENDBRANCH   7   8
ENDBRANCH   1   7
BRANCH   4  15
ATOM     15  C   UNL     1       5.125   3.849  17.941  0.00  0.00    +0.000 C 
BRANCH  15  16
ATOM     16  O   UNL     1       3.829   4.071  17.381  0.00  0.00    +0.000 OA
BRANCH  16  17
ATOM     17  C   UNL     1       2.825   3.717  18.263  0.00  0.00    +0.000 A 
ATOM     18  C   UNL     1       2.886   4.247  19.541  0.00  0.00    +0.000 A 
ATOM     19  C   UNL     1       1.875   3.915  20.441  0.00  0.00    +0.000 A 
ATOM     20  C   UNL     1       0.848   3.071  20.032  0.00  0.00    +0.000 A 
ATOM     21  C   UNL     1       0.876   2.588  18.735  0.00  0.00    +0.000 A 
ATOM     22  N   UNL     1       1.839   2.891  17.847  0.00  0.00    +0.000 NA
ENDBRANCH  16  17
ENDBRANCH  15  16
ENDBRANCH   4  15
TORSDOF 6
ENDMDL
MODEL 4
REMARK VINA RESULT:      -7.4      1.132      1.843
REMARK  Name = 
REMARK  6 active torsions:
REMARK  status: ('A' for Active; 'I' for Inactive)
REMARK    1  A    between atoms: C_4  and  O_5
REMARK    2  A    between atoms: O_5  and  C_6
REMARK    3  A    between atoms: C_6  and  C_7
REMARK    4  A    between atoms: C_10  and  C_11
REMARK    5  A    between atoms: C_11  and  O_12
REMARK    6  A    between atoms: O_12  and  C_13
REMARK                            x       y       z     vdW  Elec       q    Type
REMARK                         _______ _______ _______ _____ _____    ______ ____
ROOT
ATOM      1  C   UNL     1       7.375   7.542  17.843  0.00  0.00    +0.000 A 
ATOM      2  C   UNL     1       6.174   7.433  17.129  0.00  0.00    +0.000 A 
ATOM      3  C   UNL     1       5.433   6.250  17.166  0.00  0.00    +0.000 A 
ATOM      4  C   UNL     1       5.874   5.159  17.925  0.00  0.00    +0.000 A 
ATOM      5  C   UNL     1       7.074   5.268  18.640  0.00  0.00    +0.000 A 
ATOM      6  C   UNL     1       7.813   6.451  18.604  0.00  0.00    +0.000 A 
ENDROOT
BRANCH   1   7
ATOM      7  C   UNL     1       8.196   8.807  17.777  0.00  0.00    +0.000 C 
BRANCH   7   8
ATOM      8  O   UNL     1       8.919   8.987  18.998  0.00  0.00    +0.000 OA
BRANCH   8  12
ATOM      9  C   UNL     1      10.019  12.921  19.488  0.00  0.00    +0.000 A 
ATOM     10  C   UNL     1       9.913  12.395  18.204  0.00  0.00    +0.000 A 
ATOM     11  C   UNL     1       9.539  11.061  18.044  0.00  0.00    +0.000 A 
ATOM     12  C   UNL     1       9.289  10.306  19.179  0.00  0.00    +0.000 A 
ATOM     13  N   UNL     1       9.389  10.798  20.436  0.00  0.00    +0.000 NA
ATOM     14  C   UNL     1       9.750  12.090  20.561  0.00  0.00    +0.000 A 
ENDBRANCH   8  12
ENDBRANCH   7   8
ENDBRANCH   1   7
BRANCH   4  15
ATOM     15  C   UNL     1       5.066   3.885  17.972  0.00  0.00    +0.000 C 
BRANCH  15  16
ATOM     16  O   UNL     1       3.703   4.171  17.653  0.00  0.00    +0.000 OA
BRANCH  16  17
ATOM     17  C   UNL     1       2.851   3.799  18.676  0.00  0.00    +0.000 A 
ATOM     18  C   UNL     1       1.611   3.296  18.319  0.00  0.00    +0.000 A 
ATOM     19  C   UNL     1       0.743   2.900  19.334  0.00  0.00    +0.000 A 
ATOM     20  C   UNL     1       1.144   3.022  20.661  0.00  0.00    +0.000 A 
ATOM     21  C   UNL     1       2.402   3.539  20.918  0.00  0.00    +0.000 A 
ATOM     22  N   UNL     1       3.259   3.930  19.958  0.00  0.00    +0.000 NA
ENDBRANCH  16  17
ENDBRANCH  15  16
ENDBRANCH   4  15
TORSDOF 6
ENDMDL
MODEL 5
REMARK VINA RESULT:      -7.4      0.867      9.055
REMARK  Name = 
REMARK  6 active torsions:
REMARK  status: ('A' for Active; 'I' for Inactive)
REMARK    1  A    between atoms: C_4  and  O_5
REMARK    2  A    between atoms: O_5  and  C_6
REMARK    3  A    between atoms: C_6  and  C_7
REMARK    4  A    between atoms: C_10  and  C_11
REMARK    5  A    between atoms: C_11  and  O_12
REMARK    6  A    between atoms: O_12  and  C_13
REMARK                            x       y       z     vdW  Elec       q    Type
REMARK                         _______ _______ _______ _____ _____    ______ ____
ROOT
ATOM      1  C   UNL     1       6.182   5.246  17.961  0.00  0.00    +0.000 A 
ATOM      2  C   UNL     1       5.735   6.308  17.164  0.00  0.00    +0.000 A 
ATOM      3  C   UNL     1       6.437   7.515  17.134  0.00  0.00    +0.000 A 
ATOM      4  C   UNL     1       7.603   7.679  17.893  0.00  0.00    +0.000 A 
ATOM      5  C   UNL     1       8.051   6.617  18.689  0.00  0.00    +0.000 A 
ATOM      6  C   UNL     1       7.350   5.409  18.717  0.00  0.00    +0.000 A 
ENDROOT
BRANCH   1   7
ATOM      7  C   UNL     1       5.408   3.952  18.023  0.00  0.00    +0.000 C 
BRANCH   7   8
ATOM      8  O   UNL     1       5.042   3.663  19.375  0.00  0.00    +0.000 OA
BRANCH   8  12
ATOM      9  C   UNL     1       0.975   3.143  19.717  0.00  0.00    +0.000 A 
ATOM     10  C   UNL     1       1.490   3.804  18.605  0.00  0.00    +0.000 A 
ATOM     11  C   UNL     1       2.869   3.977  18.494  0.00  0.00    +0.000 A 
ATOM     12  C   UNL     1       3.678   3.482  19.505  0.00  0.00    +0.000 A 
ATOM     13  N   UNL     1       3.197   2.839  20.594  0.00  0.00    +0.000 NA
ATOM     14  C   UNL     1       1.861   2.684  20.675  0.00  0.00    +0.000 A 
ENDBRANCH   8  12
ENDBRANCH   7   8
ENDBRANCH   1   7
BRANCH   4  15
ATOM     15  C   UNL     1       8.365   8.981  17.851  0.00  0.00    +0.000 C 
BRANCH  15  16
ATOM     16  O   UNL     1       8.771   9.339  19.173  0.00  0.00    +0.000 OA
BRANCH  16  17
ATOM     17  C   UNL     1       9.492  10.519  19.183  0.00  0.00    +0.000 A 
ATOM     18  C   UNL     1       9.736  11.125  17.961  0.00  0.00    +0.000 A 
ATOM     19  C   UNL     1      10.447  12.322  17.950  0.00  0.00    +0.000 A 
ATOM     20  C   UNL     1      10.886  12.866  19.153  0.00  0.00    +0.000 A 
ATOM     21  C   UNL     1      10.597  12.185  20.323  0.00  0.00    +0.000 A 
ATOM     22  N   UNL     1       9.914  11.027  20.362  0.00  0.00    +0.000 NA
ENDBRANCH  16  17
ENDBRANCH  15  16
ENDBRANCH   4  15
TORSDOF 6
ENDMDL
MODEL 6
REMARK VINA RESULT:      -7.4      0.760      8.818
REMARK  Name = 
REMARK  6 active torsions:
REMARK  status: ('A' for Active; 'I' for Inactive)
REMARK    1  A    between atoms: C_4  and  O_5
REMARK    2  A    between atoms: O_5  and  C_6
REMARK    3  A    between atoms: C_6  and  C_7
REMARK    4  A    between atoms: C_10  and  C_11
REMARK    5  A    between atoms: C_11  and  O_12
REMARK    6  A    between atoms: O_12  and  C_13
REMARK                            x       y       z     vdW  Elec       q    Type
REMARK                         _______ _______ _______ _____ _____    ______ ____
ROOT
ATOM      1  C   UNL     1       6.003   5.081  18.071  0.00  0.00    +0.000 A 
ATOM      2  C   UNL     1       7.188   5.275  18.794  0.00  0.00    +0.000 A 
ATOM      3  C   UNL     1       7.895   6.474  18.687  0.00  0.00    +0.000 A 
ATOM      4  C   UNL     1       7.426   7.505  17.863  0.00  0.00    +0.000 A 
ATOM      5  C   UNL     1       6.241   7.312  17.141  0.00  0.00    +0.000 A 
ATOM      6  C   UNL     1       5.533   6.113  17.250  0.00  0.00    +0.000 A 
ENDROOT
BRANCH   1   7
ATOM      7  C   UNL     1       5.255   3.773  18.158  0.00  0.00    +0.000 C 
BRANCH   7   8
ATOM      8  O   UNL     1       4.938   3.478  19.521  0.00  0.00    +0.000 OA
BRANCH   8  12
ATOM      9  C   UNL     1       0.878   3.325  20.172  0.00  0.00    +0.000 A 
ATOM     10  C   UNL     1       1.742   2.746  21.097  0.00  0.00    +0.000 A 
ATOM     11  C   UNL     1       3.117   2.801  20.871  0.00  0.00    +0.000 A 
ATOM     12  C   UNL     1       3.571   3.433  19.725  0.00  0.00    +0.000 A 
ATOM     13  N   UNL     1       2.748   4.000  18.813  0.00  0.00    +0.000 NA
ATOM     14  C   UNL     1       1.424   3.934  19.056  0.00  0.00    +0.000 A 
ENDBRANCH   8  12
ENDBRANCH   7   8
ENDBRANCH   1   7
BRANCH   4  15
ATOM     15  C   UNL     1       8.186   8.804  17.756  0.00  0.00    +0.000 C 
BRANCH  15  16
ATOM     16  O   UNL     1       8.892   9.046  18.974  0.00  0.00    +0.000 OA
BRANCH  16  17
ATOM     17  C   UNL     1       9.239  10.378  19.106  0.00  0.00    +0.000 A 
ATOM     18  C   UNL     1       9.637  10.810  20.361  0.00  0.00    +0.000 A 
ATOM     19  C   UNL     1      10.006  12.144  20.512  0.00  0.00    +0.000 A 
ATOM     20  C   UNL     1       9.965  12.993  19.410  0.00  0.00    +0.000 A 
ATOM     21  C   UNL     1       9.551  12.469  18.198  0.00  0.00    +0.000 A 
ATOM     22  N   UNL     1       9.187  11.186  18.024  0.00  0.00    +0.000 NA
ENDBRANCH  16  17
ENDBRANCH  15  16
ENDBRANCH   4  15
TORSDOF 6
ENDMDL
MODEL 7
REMARK VINA RESULT:      -7.4      0.253      8.957
REMARK  Name = 
REMARK  6 active torsions:
REMARK  status: ('A' for Active; 'I' for Inactive)
REMARK    1  A    between atoms: C_4  and  O_5
REMARK    2  A    between atoms: O_5  and  C_6
REMARK    3  A    between atoms: C_6  and  C_7
REMARK    4  A    between atoms: C_10  and  C_11
REMARK    5  A    between atoms: C_11  and  O_12
REMARK    6  A    between atoms: O_12  and  C_13
REMARK                            x       y       z     vdW  Elec       q    Type
REMARK                         _______ _______ _______ _____ _____    ______ ____
ROOT
ATOM      1  C   UNL     1       6.150   5.272  18.056  0.00  0.00    +0.000 A 
ATOM      2  C   UNL     1       5.694   6.296  17.216  0.00  0.00    +0.000 A 
ATOM      3  C   UNL     1       6.387   7.506  17.133  0.00  0.00    +0.000 A 
ATOM      4  C   UNL     1       7.552   7.711  17.881  0.00  0.00    +0.000 A 
ATOM      5  C   UNL     1       8.010   6.687  18.721  0.00  0.00    +0.000 A 
ATOM      6  C   UNL     1       7.318   5.476  18.802  0.00  0.00    +0.000 A 
ENDROOT
BRANCH   1   7
ATOM      7  C   UNL     1       5.386   3.977  18.175  0.00  0.00    +0.000 C 
BRANCH   7   8
ATOM      8  O   UNL     1       5.063   3.720  19.544  0.00  0.00    +0.000 OA
BRANCH   8  12
ATOM      9  C   UNL     1       0.994   3.592  20.140  0.00  0.00    +0.000 A 
ATOM     10  C   UNL     1       1.689   4.766  20.416  0.00  0.00    +0.000 A 
ATOM     11  C   UNL     1       3.068   4.803  20.212  0.00  0.00    +0.000 A 
ATOM     12  C   UNL     1       3.696   3.661  19.740  0.00  0.00    +0.000 A 
ATOM     13  N   UNL     1       3.038   2.510  19.468  0.00  0.00    +0.000 NA
ATOM     14  C   UNL     1       1.706   2.502  19.673  0.00  0.00    +0.000 A 
ENDBRANCH   8  12
ENDBRANCH   7   8
ENDBRANCH   1   7
BRANCH   4  15
ATOM     15  C   UNL     1       8.305   9.015  17.783  0.00  0.00    +0.000 C 
BRANCH  15  16
ATOM     16  O   UNL     1       8.739   9.416  19.084  0.00  0.00    +0.000 OA
BRANCH  16  17
ATOM     17  C   UNL     1       9.429  10.613  19.045  0.00  0.00    +0.000 A 
ATOM     18  C   UNL     1      10.139  10.975  20.177  0.00  0.00    +0.000 A 
ATOM     19  C   UNL     1      10.854  12.170  20.153  0.00  0.00    +0.000 A 
ATOM     20  C   UNL     1      10.834  12.955  19.004  0.00  0.00    +0.000 A 
ATOM     21  C   UNL     1      10.092  12.511  17.923  0.00  0.00    +0.000 A 
ATOM     22  N   UNL     1       9.392  11.362  17.920  0.00  0.00    +0.000 NA
ENDBRANCH  16  17
ENDBRANCH  15  16
ENDBRANCH   4  15
TORSDOF 6
ENDMDL
MODEL 8
REMARK VINA RESULT:      -7.3      0.677      1.479
REMARK  Name = 
REMARK  6 active torsions:
REMARK  status: ('A' for Active; 'I' for Inactive)
REMARK    1  A    between atoms: C_4  and  O_5
REMARK    2  A    between atoms: O_5  and  C_6
REMARK    3  A    between atoms: C_6  and  C_7
REMARK    4  A    between atoms: C_10  and  C_11
REMARK    5  A    between atoms: C_11  and  O_12
REMARK    6  A    between atoms: O_12  and  C_13
REMARK                            x       y       z     vdW  Elec       q    Type
REMARK                         _______ _______ _______ _____ _____    ______ ____
ROOT
ATOM      1  C   UNL     1       7.597   7.719  17.820  0.00  0.00    +0.000 A 
ATOM      2  C   UNL     1       6.416   7.573  17.081  0.00  0.00    +0.000 A 
ATOM      3  C   UNL     1       5.684   6.386  17.143  0.00  0.00    +0.000 A 
ATOM      4  C   UNL     1       6.114   5.327  17.952  0.00  0.00    +0.000 A 
ATOM      5  C   UNL     1       7.294   5.472  18.692  0.00  0.00    +0.000 A 
ATOM      6  C   UNL     1       8.025   6.661  18.632  0.00  0.00    +0.000 A 
ENDROOT
BRANCH   1   7
ATOM      7  C   UNL     1       8.410   8.988  17.729  0.00  0.00    +0.000 C 
BRANCH   7   8
ATOM      8  O   UNL     1       8.514   9.598  19.018  0.00  0.00    +0.000 OA
BRANCH   8  12
ATOM      9  C   UNL     1      11.451  12.477  19.140  0.00  0.00    +0.000 A 
ATOM     10  C   UNL     1      10.929  11.981  20.331  0.00  0.00    +0.000 A 
ATOM     11  C   UNL     1       9.933  11.006  20.284  0.00  0.00    +0.000 A 
ATOM     12  C   UNL     1       9.500  10.566  19.043  0.00  0.00    +0.000 A 
ATOM     13  N   UNL     1       9.994  11.037  17.874  0.00  0.00    +0.000 NA
ATOM     14  C   UNL     1      10.955  11.978  17.949  0.00  0.00    +0.000 A 
ENDBRANCH   8  12
ENDBRANCH   7   8
ENDBRANCH   1   7
BRANCH   4  15
ATOM     15  C   UNL     1       5.316   4.048  18.025  0.00  0.00    +0.000 C 
BRANCH  15  16
ATOM     16  O   UNL     1       5.154   3.664  19.391  0.00  0.00    +0.000 OA
BRANCH  16  17
ATOM     17  C   UNL     1       3.844   3.808  19.810  0.00  0.00    +0.000 A 
ATOM     18  C   UNL     1       3.160   2.657  20.166  0.00  0.00    +0.000 A 
ATOM     19  C   UNL     1       1.844   2.782  20.606  0.00  0.00    +0.000 A 
ATOM     20  C   UNL     1       1.264   4.045  20.672  0.00  0.00    +0.000 A 
ATOM     21  C   UNL     1       2.026   5.136  20.291  0.00  0.00    +0.000 A 
ATOM     22  N   UNL     1       3.298   5.043  19.862  0.00  0.00    +0.000 NA
ENDBRANCH  16  17
ENDBRANCH  15  16
ENDBRANCH   4  15
TORSDOF 6
ENDMDL
MODEL 9
REMARK VINA RESULT:      -7.3      4.693      8.341
REMARK  Name = 
REMARK  6 active torsions:
REMARK  status: ('A' for Active; 'I' for Inactive)
REMARK    1  A    between atoms: C_4  and  O_5
REMARK    2  A    between atoms: O_5  and  C_6
REMARK    3  A    between atoms: C_6  and  C_7
REMARK    4  A    between atoms: C_10  and  C_11
REMARK    5  A    between atoms: C_11  and  O_12
REMARK    6  A    between atoms: O_12  and  C_13
REMARK                            x       y       z     vdW  Elec       q    Type
REMARK                         _______ _______ _______ _____ _____    ______ ____
ROOT
ATOM      1  C   UNL     1       3.923   6.116  18.858  0.00  0.00    +0.000 A 
ATOM      2  C   UNL     1       4.819   5.165  19.365  0.00  0.00    +0.000 A 
ATOM      3  C   UNL     1       5.896   4.724  18.593  0.00  0.00    +0.000 A 
ATOM      4  C   UNL     1       6.101   5.233  17.304  0.00  0.00    +0.000 A 
ATOM      5  C   UNL     1       5.207   6.184  16.797  0.00  0.00    +0.000 A 
ATOM      6  C   UNL     1       4.131   6.626  17.571  0.00  0.00    +0.000 A 
ENDROOT
BRANCH   1   7
ATOM      7  C   UNL     1       2.738   6.569  19.676  0.00  0.00    +0.000 C 
BRANCH   7   8
ATOM      8  O   UNL     1       1.532   6.020  19.139  0.00  0.00    +0.000 OA
BRANCH   8  12
ATOM      9  C   UNL     1       1.274   1.979  19.870  0.00  0.00    +0.000 A 
ATOM     10  C   UNL     1       1.297   2.868  20.941  0.00  0.00    +0.000 A 
ATOM     11  C   UNL     1       1.385   4.237  20.687  0.00  0.00    +0.000 A 
ATOM     12  C   UNL     1       1.447   4.660  19.369  0.00  0.00    +0.000 A 
ATOM     13  N   UNL     1       1.428   3.812  18.315  0.00  0.00    +0.000 NA
ATOM     14  C   UNL     1       1.342   2.495  18.588  0.00  0.00    +0.000 A 
ENDBRANCH   8  12
ENDBRANCH   7   8
ENDBRANCH   1   7
BRANCH   4  15
ATOM     15  C   UNL     1       7.271   4.762  16.475  0.00  0.00    +0.000 C 
BRANCH  15  16
ATOM     16  O   UNL     1       7.463   5.650  15.372  0.00  0.00    +0.000 OA
BRANCH  16  17
ATOM     17  C   UNL     1       7.216   5.023  14.165  0.00  0.00    +0.000 A 
ATOM     18  C   UNL     1       6.292   3.992  14.161  0.00  0.00    +0.000 A 
ATOM     19  C   UNL     1       6.016   3.358  12.952  0.00  0.00    +0.000 A 
ATOM     20  C   UNL     1       6.671   3.776  11.797  0.00  0.00    +0.000 A 
ATOM     21  C   UNL     1       7.581   4.814  11.902  0.00  0.00    +0.000 A 
ATOM     22  N   UNL     1       7.866   5.443  13.056  0.00  0.00    +0.000 NA
ENDBRANCH  16  17
ENDBRANCH  15  16
ENDBRANCH   4  15
TORSDOF 6
ENDMDL
