MODEL 1
REMARK VINA RESULT:      -7.6      0.000      0.000
REMARK  Name = 
REMARK  11 active torsions:
REMARK  status: ('A' for Active; 'I' for Inactive)
REMARK    1  A    between atoms: C_1  and  C_2
REMARK    2  A    between atoms: C_2  and  O_3
REMARK    3  A    between atoms: O_3  and  C_4
REMARK    4  A    between atoms: C_7  and  C_8
REMARK    5  A    between atoms: C_10  and  C_11
REMARK    6  A    between atoms: C_11  and  C_12
REMARK    7  A    between atoms: C_12  and  C_13
REMARK    8  A    between atoms: C_13  and  C_14
REMARK    9  A    between atoms: N_16  and  C_17
REMARK   10  A    between atoms: C_17  and  C_18
REMARK   11  A    between atoms: C_21  and  C_22
REMARK                            x       y       z     vdW  Elec       q    Type
REMARK                         _______ _______ _______ _____ _____    ______ ____
ROOT
ATOM      1  C   UNL     1       2.205   3.630  21.129  0.00  0.00    +0.000 C 
ENDROOT
BRANCH   1   4
ATOM      2  C   UNL     1       2.062   7.079  19.928  0.00  0.00    +0.000 A 
ATOM      3  C   UNL     1       1.446   6.055  20.603  0.00  0.00    +0.000 A 
ATOM      4  C   UNL     1       2.346   4.977  20.516  0.00  0.00    +0.000 A 
ATOM      5  N   UNL     1       3.439   5.305  19.815  0.00  0.00    +0.000 NA
ATOM      6  O   UNL     1       3.256   6.627  19.447  0.00  0.00    +0.000 OA
BRANCH   2  10
ATOM      7  C   UNL     1       0.999  11.127  19.110  0.00  0.00    +0.000 A 
ATOM      8  C   UNL     1       1.635  10.358  18.139  0.00  0.00    +0.000 A 
ATOM      9  C   UNL     1       1.974   9.031  18.408  0.00  0.00    +0.000 A 
ATOM     10  C   UNL     1       1.717   8.466  19.666  0.00  0.00    +0.000 A 
ATOM     11  C   UNL     1       1.108   9.259  20.647  0.00  0.00    +0.000 A 
ATOM     12  C   UNL     1       0.755  10.579  20.370  0.00  0.00    +0.000 A 
BRANCH   7  13
ATOM     13  O   UNL     1       0.645  12.386  18.726  0.00  0.00    +0.000 OA
BRANCH  13  15
ATOM     14  C   UNL     1       2.078  14.243  18.296  0.00  0.00    +0.000 C 
ATOM     15  C   UNL     1       1.368  13.439  19.366  0.00  0.00    +0.000 C 
ENDBRANCH  13  15
ENDBRANCH   7  13
ENDBRANCH   2  10
ENDBRANCH   1   4
BRANCH   1  16
ATOM     16  C   UNL     1       1.619   2.587  20.168  0.00  0.00    +0.000 C 
BRANCH  16  17
ATOM     17  C   UNL     1       2.653   1.802  19.351  0.00  0.00    +0.000 C 
BRANCH  17  18
ATOM     18  C   UNL     1       2.964   2.488  18.038  0.00  0.00    +0.000 C 
ATOM     19  O   UNL     1       2.095   2.688  17.186  0.00  0.00    +0.000 OA
ATOM     20  N   UNL     1       4.263   2.872  17.866  0.00  0.00    +0.000 N 
ATOM     21  H   UNL     1       4.961   2.659  18.565  0.00  0.00    +0.000 HD
BRANCH  20  22
ATOM     22  C   UNL     1       4.673   3.590  16.678  0.00  0.00    +0.000 C 
BRANCH  22  23
ATOM     23  C   UNL     1       5.528   4.774  17.036  0.00  0.00    +0.000 A 
ATOM     24  C   UNL     1       5.177   6.063  16.617  0.00  0.00    +0.000 A 
ATOM     25  C   UNL     1       6.008   7.149  16.899  0.00  0.00    +0.000 A 
ATOM     26  C   UNL     1       7.188   6.973  17.629  0.00  0.00    +0.000 A 
ATOM     27  C   UNL     1       8.052   8.145  17.984  0.00  0.00    +0.000 C 
ATOM     28  C   UNL     1       7.538   5.686  18.054  0.00  0.00    +0.000 A 
ATOM     29  C   UNL     1       6.717   4.596  17.756  0.00  0.00    +0.000 A 
ENDBRANCH  22  23
ENDBRANCH  20  22
ENDBRANCH  17  18
ENDBRANCH  16  17
ENDBRANCH   1  16
TORSDOF 9
ENDMDL
MODEL 2
REMARK VINA RESULT:      -7.5      1.222      1.721
REMARK  Name = 
REMARK  11 active torsions:
REMARK  status: ('A' for Active; 'I' for Inactive)
REMARK    1  A    between atoms: C_1  and  C_2
REMARK    2  A    between atoms: C_2  and  O_3
REMARK    3  A    between atoms: O_3  and  C_4
REMARK    4  A    between atoms: C_7  and  C_8
REMARK    5  A    between atoms: C_10  and  C_11
REMARK    6  A    between atoms: C_11  and  C_12
REMARK    7  A    between atoms: C_12  and  C_13
REMARK    8  A    between atoms: C_13  and  C_14
REMARK    9  A    between atoms: N_16  and  C_17
REMARK   10  A    between atoms: C_17  and  C_18
REMARK   11  A    between atoms: C_21  and  C_22
REMARK                            x       y       z     vdW  Elec       q    Type
REMARK                         _______ _______ _______ _____ _____    ______ ____
ROOT
ATOM      1  C   UNL     1       2.660   3.522  20.660  0.00  0.00    +0.000 C 
ENDROOT
BRANCH   1   4
ATOM      2  C   UNL     1       1.956   7.079  20.197  0.00  0.00    +0.000 A 
ATOM      3  C   UNL     1       1.547   5.866  20.695  0.00  0.00    +0.000 A 
ATOM      4  C   UNL     1       2.565   4.967  20.325  0.00  0.00    +0.000 A 
ATOM      5  N   UNL     1       3.529   5.578  19.625  0.00  0.00    +0.000 NA
ATOM      6  O   UNL     1       3.143   6.905  19.548  0.00  0.00    +0.000 OA
BRANCH   2  10
ATOM      7  C   UNL     1       0.302  11.008  20.303  0.00  0.00    +0.000 A 
ATOM      8  C   UNL     1       0.819  10.495  19.116  0.00  0.00    +0.000 A 
ATOM      9  C   UNL     1       1.351   9.206  19.084  0.00  0.00    +0.000 A 
ATOM     10  C   UNL     1       1.411   8.425  20.248  0.00  0.00    +0.000 A 
ATOM     11  C   UNL     1       0.920   8.964  21.444  0.00  0.00    +0.000 A 
ATOM     12  C   UNL     1       0.371  10.246  21.469  0.00  0.00    +0.000 A 
BRANCH   7  13
ATOM     13  O   UNL     1      -0.261  12.247  20.215  0.00  0.00    +0.000 OA
BRANCH  13  15
ATOM     14  C   UNL     1      -2.608  12.547  20.509  0.00  0.00    +0.000 C 
ATOM     15  C   UNL     1      -1.500  12.299  19.506  0.00  0.00    +0.000 C 
ENDBRANCH  13  15
ENDBRANCH   7  13
ENDBRANCH   2  10
ENDBRANCH   1   4
BRANCH   1  16
ATOM     16  C   UNL     1       1.529   2.684  20.050  0.00  0.00    +0.000 C 
BRANCH  16  17
ATOM     17  C   UNL     1       1.504   2.646  18.517  0.00  0.00    +0.000 C 
BRANCH  17  18
ATOM     18  C   UNL     1       2.889   2.448  17.940  0.00  0.00    +0.000 C 
ATOM     19  O   UNL     1       3.520   1.402  18.106  0.00  0.00    +0.000 OA
ATOM     20  N   UNL     1       3.386   3.499  17.223  0.00  0.00    +0.000 N 
ATOM     21  H   UNL     1       2.861   4.359  17.137  0.00  0.00    +0.000 HD
BRANCH  20  22
ATOM     22  C   UNL     1       4.675   3.410  16.571  0.00  0.00    +0.000 C 
BRANCH  22  23
ATOM     23  C   UNL     1       5.504   4.632  16.852  0.00  0.00    +0.000 A 
ATOM     24  C   UNL     1       6.696   4.537  17.578  0.00  0.00    +0.000 A 
ATOM     25  C   UNL     1       7.428   5.684  17.891  0.00  0.00    +0.000 A 
ATOM     26  C   UNL     1       6.998   6.943  17.458  0.00  0.00    +0.000 A 
ATOM     27  C   UNL     1       7.812   8.170  17.739  0.00  0.00    +0.000 C 
ATOM     28  C   UNL     1       5.809   7.040  16.726  0.00  0.00    +0.000 A 
ATOM     29  C   UNL     1       5.066   5.895  16.430  0.00  0.00    +0.000 A 
ENDBRANCH  22  23
ENDBRANCH  20  22
ENDBRANCH  17  18
ENDBRANCH  16  17
ENDBRANCH   1  16
TORSDOF 9
ENDMDL
MODEL 3
REMARK VINA RESULT:      -7.5      1.146      1.535
REMARK  Name = 
REMARK  11 active torsions:
REMARK  status: ('A' for Active; 'I' for Inactive)
REMARK    1  A    between atoms: C_1  and  C_2
REMARK    2  A    between atoms: C_2  and  O_3
REMARK    3  A    between atoms: O_3  and  C_4
REMARK    4  A    between atoms: C_7  and  C_8
REMARK    5  A    between atoms: C_10  and  C_11
REMARK    6  A    between atoms: C_11  and  C_12
REMARK    7  A    between atoms: C_12  and  C_13
REMARK    8  A    between atoms: C_13  and  C_14
REMARK    9  A    between atoms: N_16  and  C_17
REMARK   10  A    between atoms: C_17  and  C_18
REMARK   11  A    between atoms: C_21  and  C_22
REMARK                            x       y       z     vdW  Elec       q    Type
REMARK                         _______ _______ _______ _____ _____    ______ ____
ROOT
ATOM      1  C   UNL     1       3.893   3.434  20.132  0.00  0.00    +0.000 C 
ENDROOT
BRANCH   1   4
ATOM      2  C   UNL     1       2.281   6.702  19.844  0.00  0.00    +0.000 A 
ATOM      3  C   UNL     1       3.305   5.871  19.462  0.00  0.00    +0.000 A 
ATOM      4  C   UNL     1       3.102   4.691  20.202  0.00  0.00    +0.000 A 
ATOM      5  N   UNL     1       2.035   4.792  21.004  0.00  0.00    +0.000 NA
ATOM      6  O   UNL     1       1.521   6.057  20.776  0.00  0.00    +0.000 OA
BRANCH   2  10
ATOM      7  C   UNL     1       1.112  10.652  18.743  0.00  0.00    +0.000 A 
ATOM      8  C   UNL     1       0.769  10.140  19.992  0.00  0.00    +0.000 A 
ATOM      9  C   UNL     1       1.161   8.850  20.351  0.00  0.00    +0.000 A 
ATOM     10  C   UNL     1       1.867   8.038  19.452  0.00  0.00    +0.000 A 
ATOM     11  C   UNL     1       2.176   8.550  18.185  0.00  0.00    +0.000 A 
ATOM     12  C   UNL     1       1.800   9.846  17.835  0.00  0.00    +0.000 A 
BRANCH   7  13
ATOM     13  O   UNL     1       0.746  11.946  18.515  0.00  0.00    +0.000 OA
BRANCH  13  15
ATOM     14  C   UNL     1      -0.670  13.456  19.697  0.00  0.00    +0.000 C 
ATOM     15  C   UNL     1      -0.623  12.244  18.790  0.00  0.00    +0.000 C 
ENDBRANCH  13  15
ENDBRANCH   7  13
ENDBRANCH   2  10
ENDBRANCH   1   4
BRANCH   1  16
ATOM     16  C   UNL     1       3.028   2.187  19.911  0.00  0.00    +0.000 C 
BRANCH  16  17
ATOM     17  C   UNL     1       3.082   1.601  18.495  0.00  0.00    +0.000 C 
BRANCH  17  18
ATOM     18  C   UNL     1       3.253   2.682  17.450  0.00  0.00    +0.000 C 
ATOM     19  O   UNL     1       2.288   3.279  16.968  0.00  0.00    +0.000 OA
ATOM     20  N   UNL     1       4.541   2.952  17.084  0.00  0.00    +0.000 N 
ATOM     21  H   UNL     1       5.309   2.419  17.468  0.00  0.00    +0.000 HD
BRANCH  20  22
ATOM     22  C   UNL     1       4.838   4.007  16.138  0.00  0.00    +0.000 C 
BRANCH  22  23
ATOM     23  C   UNL     1       5.719   5.053  16.762  0.00  0.00    +0.000 A 
ATOM     24  C   UNL     1       5.511   6.412  16.498  0.00  0.00    +0.000 A 
ATOM     25  C   UNL     1       6.372   7.375  17.028  0.00  0.00    +0.000 A 
ATOM     26  C   UNL     1       7.435   7.001  17.856  0.00  0.00    +0.000 A 
ATOM     27  C   UNL     1       8.325   8.036  18.477  0.00  0.00    +0.000 C 
ATOM     28  C   UNL     1       7.641   5.644  18.126  0.00  0.00    +0.000 A 
ATOM     29  C   UNL     1       6.793   4.678  17.580  0.00  0.00    +0.000 A 
ENDBRANCH  22  23
ENDBRANCH  20  22
ENDBRANCH  17  18
ENDBRANCH  16  17
ENDBRANCH   1  16
TORSDOF 9
ENDMDL
MODEL 4
REMARK VINA RESULT:      -7.4      1.171      1.602
REMARK  Name = 
REMARK  11 active torsions:
REMARK  status: ('A' for Active; 'I' for Inactive)
REMARK    1  A    between atoms: C_1  and  C_2
REMARK    2  A    between atoms: C_2  and  O_3
REMARK    3  A    between atoms: O_3  and  C_4
REMARK    4  A    between atoms: C_7  and  C_8
REMARK    5  A    between atoms: C_10  and  C_11
REMARK    6  A    between atoms: C_11  and  C_12
REMARK    7  A    between atoms: C_12  and  C_13
REMARK    8  A    between atoms: C_13  and  C_14
REMARK    9  A    between atoms: N_16  and  C_17
REMARK   10  A    between atoms: C_17  and  C_18
REMARK   11  A    between atoms: C_21  and  C_22
REMARK                            x       y       z     vdW  Elec       q    Type
REMARK                         _______ _______ _______ _____ _____    ______ ____
ROOT
ATOM      1  C   UNL     1       3.092   3.293  20.874  0.00  0.00    +0.000 C 
ENDROOT
BRANCH   1   4
ATOM      2  C   UNL     1       2.398   6.710  19.774  0.00  0.00    +0.000 A 
ATOM      3  C   UNL     1       1.924   5.544  20.324  0.00  0.00    +0.000 A 
ATOM      4  C   UNL     1       3.031   4.676  20.330  0.00  0.00    +0.000 A 
ATOM      5  N   UNL     1       4.114   5.257  19.799  0.00  0.00    +0.000 NA
ATOM      6  O   UNL     1       3.712   6.535  19.452  0.00  0.00    +0.000 OA
BRANCH   2  10
ATOM      7  C   UNL     1       0.629  10.501  18.951  0.00  0.00    +0.000 A 
ATOM      8  C   UNL     1       1.361   9.839  17.969  0.00  0.00    +0.000 A 
ATOM      9  C   UNL     1       1.931   8.596  18.240  0.00  0.00    +0.000 A 
ATOM     10  C   UNL     1       1.811   8.012  19.510  0.00  0.00    +0.000 A 
ATOM     11  C   UNL     1       1.102   8.702  20.501  0.00  0.00    +0.000 A 
ATOM     12  C   UNL     1       0.517   9.937  20.223  0.00  0.00    +0.000 A 
BRANCH   7  13
ATOM     13  O   UNL     1       0.052  11.675  18.567  0.00  0.00    +0.000 OA
BRANCH  13  15
ATOM     14  C   UNL     1      -2.078  11.557  17.501  0.00  0.00    +0.000 C 
ATOM     15  C   UNL     1      -1.352  11.768  18.814  0.00  0.00    +0.000 C 
ENDBRANCH  13  15
ENDBRANCH   7  13
ENDBRANCH   2  10
ENDBRANCH   1   4
BRANCH   1  16
ATOM     16  C   UNL     1       3.167   2.217  19.784  0.00  0.00    +0.000 C 
BRANCH  16  17
ATOM     17  C   UNL     1       2.084   2.313  18.701  0.00  0.00    +0.000 C 
BRANCH  17  18
ATOM     18  C   UNL     1       2.584   3.043  17.474  0.00  0.00    +0.000 C 
ATOM     19  O   UNL     1       1.816   3.632  16.709  0.00  0.00    +0.000 OA
ATOM     20  N   UNL     1       3.935   3.012  17.278  0.00  0.00    +0.000 N 
ATOM     21  H   UNL     1       4.535   2.489  17.901  0.00  0.00    +0.000 HD
BRANCH  20  22
ATOM     22  C   UNL     1       4.541   3.724  16.173  0.00  0.00    +0.000 C 
BRANCH  22  23
ATOM     23  C   UNL     1       5.484   4.784  16.672  0.00  0.00    +0.000 A 
ATOM     24  C   UNL     1       6.553   4.453  17.512  0.00  0.00    +0.000 A 
ATOM     25  C   UNL     1       7.386   5.450  18.023  0.00  0.00    +0.000 A 
ATOM     26  C   UNL     1       7.185   6.791  17.680  0.00  0.00    +0.000 A 
ATOM     27  C   UNL     1       8.113   7.858  18.178  0.00  0.00    +0.000 C 
ATOM     28  C   UNL     1       6.120   7.124  16.835  0.00  0.00    +0.000 A 
ATOM     29  C   UNL     1       5.274   6.130  16.339  0.00  0.00    +0.000 A 
ENDBRANCH  22  23
ENDBRANCH  20  22
ENDBRANCH  17  18
ENDBRANCH  16  17
ENDBRANCH   1  16
TORSDOF 9
ENDMDL
MODEL 5
REMARK VINA RESULT:      -7.3      2.308      5.816
REMARK  Name = 
REMARK  11 active torsions:
REMARK  status: ('A' for Active; 'I' for Inactive)
REMARK    1  A    between atoms: C_1  and  C_2
REMARK    2  A    between atoms: C_2  and  O_3
REMARK    3  A    between atoms: O_3  and  C_4
REMARK    4  A    between atoms: C_7  and  C_8
REMARK    5  A    between atoms: C_10  and  C_11
REMARK    6  A    between atoms: C_11  and  C_12
REMARK    7  A    between atoms: C_12  and  C_13
REMARK    8  A    between atoms: C_13  and  C_14
REMARK    9  A    between atoms: N_16  and  C_17
REMARK   10  A    between atoms: C_17  and  C_18
REMARK   11  A    between atoms: C_21  and  C_22
REMARK                            x       y       z     vdW  Elec       q    Type
REMARK                         _______ _______ _______ _____ _____    ______ ____
ROOT
ATOM      1  C   UNL     1       1.611   2.132  18.338  0.00  0.00    +0.000 C 
ENDROOT
BRANCH   1   4
ATOM      2  C   UNL     1       4.538   4.312  18.147  0.00  0.00    +0.000 A 
ATOM      3  C   UNL     1       3.216   4.108  17.838  0.00  0.00    +0.000 A 
ATOM      4  C   UNL     1       2.923   2.829  18.347  0.00  0.00    +0.000 A 
ATOM      5  N   UNL     1       3.999   2.269  18.914  0.00  0.00    +0.000 NA
ATOM      6  O   UNL     1       5.011   3.204  18.787  0.00  0.00    +0.000 OA
BRANCH   2  10
ATOM      7  C   UNL     1       7.290   7.515  17.553  0.00  0.00    +0.000 A 
ATOM      8  C   UNL     1       7.575   6.504  18.467  0.00  0.00    +0.000 A 
ATOM      9  C   UNL     1       6.676   5.454  18.652  0.00  0.00    +0.000 A 
ATOM     10  C   UNL     1       5.460   5.419  17.954  0.00  0.00    +0.000 A 
ATOM     11  C   UNL     1       5.166   6.459  17.063  0.00  0.00    +0.000 A 
ATOM     12  C   UNL     1       6.075   7.499  16.867  0.00  0.00    +0.000 A 
BRANCH   7  13
ATOM     13  O   UNL     1       8.263   8.456  17.392  0.00  0.00    +0.000 OA
BRANCH  13  15
ATOM     14  C   UNL     1       8.968  10.570  18.240  0.00  0.00    +0.000 C 
ATOM     15  C   UNL     1       8.658   9.129  18.588  0.00  0.00    +0.000 C 
ENDBRANCH  13  15
ENDBRANCH   7  13
ENDBRANCH   2  10
ENDBRANCH   1   4
BRANCH   1  16
ATOM     16  C   UNL     1       0.580   2.770  19.279  0.00  0.00    +0.000 C 
BRANCH  16  17
ATOM     17  C   UNL     1       0.867   2.591  20.775  0.00  0.00    +0.000 C 
BRANCH  17  18
ATOM     18  C   UNL     1       1.699   3.730  21.323  0.00  0.00    +0.000 C 
ATOM     19  O   UNL     1       2.465   3.576  22.278  0.00  0.00    +0.000 OA
ATOM     20  N   UNL     1       1.548   4.931  20.690  0.00  0.00    +0.000 N 
ATOM     21  H   UNL     1       0.883   5.035  19.935  0.00  0.00    +0.000 HD
BRANCH  20  22
ATOM     22  C   UNL     1       2.333   6.081  21.083  0.00  0.00    +0.000 C 
BRANCH  22  23
ATOM     23  C   UNL     1       1.843   7.325  20.394  0.00  0.00    +0.000 A 
ATOM     24  C   UNL     1       2.240   7.620  19.085  0.00  0.00    +0.000 A 
ATOM     25  C   UNL     1       1.833   8.808  18.473  0.00  0.00    +0.000 A 
ATOM     26  C   UNL     1       1.000   9.706  19.148  0.00  0.00    +0.000 A 
ATOM     27  C   UNL     1       0.513  10.954  18.474  0.00  0.00    +0.000 C 
ATOM     28  C   UNL     1       0.598   9.411  20.455  0.00  0.00    +0.000 A 
ATOM     29  C   UNL     1       1.020   8.232  21.075  0.00  0.00    +0.000 A 
ENDBRANCH  22  23
ENDBRANCH  20  22
ENDBRANCH  17  18
ENDBRANCH  16  17
ENDBRANCH   1  16
TORSDOF 9
ENDMDL
MODEL 6
REMARK VINA RESULT:      -7.2      2.159      2.609
REMARK  Name = 
REMARK  11 active torsions:
REMARK  status: ('A' for Active; 'I' for Inactive)
REMARK    1  A    between atoms: C_1  and  C_2
REMARK    2  A    between atoms: C_2  and  O_3
REMARK    3  A    between atoms: O_3  and  C_4
REMARK    4  A    between atoms: C_7  and  C_8
REMARK    5  A    between atoms: C_10  and  C_11
REMARK    6  A    between atoms: C_11  and  C_12
REMARK    7  A    between atoms: C_12  and  C_13
REMARK    8  A    between atoms: C_13  and  C_14
REMARK    9  A    between atoms: N_16  and  C_17
REMARK   10  A    between atoms: C_17  and  C_18
REMARK   11  A    between atoms: C_21  and  C_22
REMARK                            x       y       z     vdW  Elec       q    Type
REMARK                         _______ _______ _______ _____ _____    ______ ____
ROOT
ATOM      1  C   UNL     1       2.422   4.643  20.501  0.00  0.00    +0.000 C 
ENDROOT
BRANCH   1   4
ATOM      2  C   UNL     1       1.054   8.020  20.791  0.00  0.00    +0.000 A 
ATOM      3  C   UNL     1       1.038   6.717  21.222  0.00  0.00    +0.000 A 
ATOM      4  C   UNL     1       1.992   6.064  20.419  0.00  0.00    +0.000 A 
ATOM      5  N   UNL     1       2.545   6.902  19.534  0.00  0.00    +0.000 NA
ATOM      6  O   UNL     1       1.953   8.131  19.772  0.00  0.00    +0.000 OA
BRANCH   2  10
ATOM      7  C   UNL     1      -1.050  11.539  21.964  0.00  0.00    +0.000 A 
ATOM      8  C   UNL     1      -0.700  11.341  20.630  0.00  0.00    +0.000 A 
ATOM      9  C   UNL     1      -0.019  10.185  20.250  0.00  0.00    +0.000 A 
ATOM     10  C   UNL     1       0.357   9.227  21.203  0.00  0.00    +0.000 A 
ATOM     11  C   UNL     1       0.030   9.452  22.547  0.00  0.00    +0.000 A 
ATOM     12  C   UNL     1      -0.666  10.600  22.922  0.00  0.00    +0.000 A 
BRANCH   7  13
ATOM     13  O   UNL     1      -1.776  12.664  22.222  0.00  0.00    +0.000 OA
BRANCH  13  15
ATOM     14  C   UNL     1      -3.840  13.757  22.702  0.00  0.00    +0.000 C 
ATOM     15  C   UNL     1      -3.108  12.431  22.684  0.00  0.00    +0.000 C 
ENDBRANCH  13  15
ENDBRANCH   7  13
ENDBRANCH   2  10
ENDBRANCH   1   4
BRANCH   1  16
ATOM     16  C   UNL     1       1.248   3.655  20.512  0.00  0.00    +0.000 C 
BRANCH  16  17
ATOM     17  C   UNL     1       1.188   2.703  19.311  0.00  0.00    +0.000 C 
BRANCH  17  18
ATOM     18  C   UNL     1       1.782   3.333  18.070  0.00  0.00    +0.000 C 
ATOM     19  O   UNL     1       1.130   4.096  17.352  0.00  0.00    +0.000 OA
ATOM     20  N   UNL     1       3.081   3.005  17.804  0.00  0.00    +0.000 N 
ATOM     21  H   UNL     1       3.576   2.346  18.389  0.00  0.00    +0.000 HD
BRANCH  20  22
ATOM     22  C   UNL     1       3.778   3.590  16.679  0.00  0.00    +0.000 C 
BRANCH  22  23
ATOM     23  C   UNL     1       4.859   4.525  17.146  0.00  0.00    +0.000 A 
ATOM     24  C   UNL     1       5.371   5.509  16.293  0.00  0.00    +0.000 A 
ATOM     25  C   UNL     1       6.419   6.332  16.711  0.00  0.00    +0.000 A 
ATOM     26  C   UNL     1       6.952   6.208  17.998  0.00  0.00    +0.000 A 
ATOM     27  C   UNL     1       8.036   7.129  18.471  0.00  0.00    +0.000 C 
ATOM     28  C   UNL     1       6.438   5.228  18.855  0.00  0.00    +0.000 A 
ATOM     29  C   UNL     1       5.403   4.391  18.431  0.00  0.00    +0.000 A 
ENDBRANCH  22  23
ENDBRANCH  20  22
ENDBRANCH  17  18
ENDBRANCH  16  17
ENDBRANCH   1  16
TORSDOF 9
ENDMDL
MODEL 7
REMARK VINA RESULT:      -7.1      3.212      8.580
REMARK  Name = 
REMARK  11 active torsions:
REMARK  status: ('A' for Active; 'I' for Inactive)
REMARK    1  A    between atoms: C_1  and  C_2
REMARK    2  A    between atoms: C_2  and  O_3
REMARK    3  A    between atoms: O_3  and  C_4
REMARK    4  A    between atoms: C_7  and  C_8
REMARK    5  A    between atoms: C_10  and  C_11
REMARK    6  A    between atoms: C_11  and  C_12
REMARK    7  A    between atoms: C_12  and  C_13
REMARK    8  A    between atoms: C_13  and  C_14
REMARK    9  A    between atoms: N_16  and  C_17
REMARK   10  A    between atoms: C_17  and  C_18
REMARK   11  A    between atoms: C_21  and  C_22
REMARK                            x       y       z     vdW  Elec       q    Type
REMARK                         _______ _______ _______ _____ _____    ______ ____
ROOT
ATOM      1  C   UNL     1       0.698   8.034  21.161  0.00  0.00    +0.000 C 
ENDROOT
BRANCH   1   4
ATOM      2  C   UNL     1       2.967   6.837  18.557  0.00  0.00    +0.000 A 
ATOM      3  C   UNL     1       2.295   6.577  19.726  0.00  0.00    +0.000 A 
ATOM      4  C   UNL     1       1.624   7.777  20.027  0.00  0.00    +0.000 A 
ATOM      5  N   UNL     1       1.881   8.725  19.117  0.00  0.00    +0.000 NA
ATOM      6  O   UNL     1       2.725   8.130  18.194  0.00  0.00    +0.000 OA
BRANCH   2  10
ATOM      7  C   UNL     1       5.502   4.531  16.020  0.00  0.00    +0.000 A 
ATOM      8  C   UNL     1       5.522   5.922  15.957  0.00  0.00    +0.000 A 
ATOM      9  C   UNL     1       4.697   6.672  16.794  0.00  0.00    +0.000 A 
ATOM     10  C   UNL     1       3.811   6.043  17.681  0.00  0.00    +0.000 A 
ATOM     11  C   UNL     1       3.774   4.643  17.712  0.00  0.00    +0.000 A 
ATOM     12  C   UNL     1       4.613   3.895  16.887  0.00  0.00    +0.000 A 
BRANCH   7  13
ATOM     13  O   UNL     1       6.396   3.891  15.214  0.00  0.00    +0.000 OA
BRANCH  13  15
ATOM     14  C   UNL     1       7.274   4.640  13.128  0.00  0.00    +0.000 C 
ATOM     15  C   UNL     1       6.108   3.961  13.817  0.00  0.00    +0.000 C 
ENDBRANCH  13  15
ENDBRANCH   7  13
ENDBRANCH   2  10
ENDBRANCH   1   4
BRANCH   1  16
ATOM     16  C   UNL     1       1.305   8.934  22.245  0.00  0.00    +0.000 C 
BRANCH  16  17
ATOM     17  C   UNL     1       0.339   9.954  22.860  0.00  0.00    +0.000 C 
BRANCH  17  18
ATOM     18  C   UNL     1       0.018  11.072  21.892  0.00  0.00    +0.000 C 
ATOM     19  O   UNL     1       0.879  11.867  21.506  0.00  0.00    +0.000 OA
ATOM     20  N   UNL     1      -1.281  11.137  21.473  0.00  0.00    +0.000 N 
ATOM     21  H   UNL     1      -1.972  10.496  21.837  0.00  0.00    +0.000 HD
BRANCH  20  22
ATOM     22  C   UNL     1      -1.699  12.124  20.501  0.00  0.00    +0.000 C 
BRANCH  22  23
ATOM     23  C   UNL     1      -2.036  11.474  19.188  0.00  0.00    +0.000 A 
ATOM     24  C   UNL     1      -1.187  10.513  18.627  0.00  0.00    +0.000 A 
ATOM     25  C   UNL     1      -1.474   9.960  17.377  0.00  0.00    +0.000 A 
ATOM     26  C   UNL     1      -2.627  10.334  16.680  0.00  0.00    +0.000 A 
ATOM     27  C   UNL     1      -2.970   9.699  15.366  0.00  0.00    +0.000 C 
ATOM     28  C   UNL     1      -3.481  11.290  17.242  0.00  0.00    +0.000 A 
ATOM     29  C   UNL     1      -3.185  11.859  18.483  0.00  0.00    +0.000 A 
ENDBRANCH  22  23
ENDBRANCH  20  22
ENDBRANCH  17  18
ENDBRANCH  16  17
ENDBRANCH   1  16
TORSDOF 9
ENDMDL
MODEL 8
REMARK VINA RESULT:      -7.1      1.298      1.557
REMARK  Name = 
REMARK  11 active torsions:
REMARK  status: ('A' for Active; 'I' for Inactive)
REMARK    1  A    between atoms: C_1  and  C_2
REMARK    2  A    between atoms: C_2  and  O_3
REMARK    3  A    between atoms: O_3  and  C_4
REMARK    4  A    between atoms: C_7  and  C_8
REMARK    5  A    between atoms: C_10  and  C_11
REMARK    6  A    between atoms: C_11  and  C_12
REMARK    7  A    between atoms: C_12  and  C_13
REMARK    8  A    between atoms: C_13  and  C_14
REMARK    9  A    between atoms: N_16  and  C_17
REMARK   10  A    between atoms: C_17  and  C_18
REMARK   11  A    between atoms: C_21  and  C_22
REMARK                            x       y       z     vdW  Elec       q    Type
REMARK                         _______ _______ _______ _____ _____    ______ ____
ROOT
ATOM      1  C   UNL     1       4.140   3.674  19.913  0.00  0.00    +0.000 C 
ENDROOT
BRANCH   1   4
ATOM      2  C   UNL     1       2.236   6.794  19.986  0.00  0.00    +0.000 A 
ATOM      3  C   UNL     1       3.298   6.089  19.474  0.00  0.00    +0.000 A 
ATOM      4  C   UNL     1       3.251   4.846  20.131  0.00  0.00    +0.000 A 
ATOM      5  N   UNL     1       2.240   4.791  21.008  0.00  0.00    +0.000 NA
ATOM      6  O   UNL     1       1.605   6.017  20.913  0.00  0.00    +0.000 OA
BRANCH   2  10
ATOM      7  C   UNL     1       0.563  10.632  19.179  0.00  0.00    +0.000 A 
ATOM      8  C   UNL     1       1.254   9.944  18.185  0.00  0.00    +0.000 A 
ATOM      9  C   UNL     1       1.793   8.685  18.451  0.00  0.00    +0.000 A 
ATOM     10  C   UNL     1       1.682   8.112  19.726  0.00  0.00    +0.000 A 
ATOM     11  C   UNL     1       1.015   8.828  20.729  0.00  0.00    +0.000 A 
ATOM     12  C   UNL     1       0.462  10.078  20.455  0.00  0.00    +0.000 A 
BRANCH   7  13
ATOM     13  O   UNL     1       0.013  11.821  18.800  0.00  0.00    +0.000 OA
BRANCH  13  15
ATOM     14  C   UNL     1      -2.195  10.942  18.611  0.00  0.00    +0.000 C 
ATOM     15  C   UNL     1      -1.099  11.716  17.909  0.00  0.00    +0.000 C 
ENDBRANCH  13  15
ENDBRANCH   7  13
ENDBRANCH   2  10
ENDBRANCH   1   4
BRANCH   1  16
ATOM     16  C   UNL     1       3.409   2.330  20.031  0.00  0.00    +0.000 C 
BRANCH  16  17
ATOM     17  C   UNL     1       2.555   1.946  18.817  0.00  0.00    +0.000 C 
BRANCH  17  18
ATOM     18  C   UNL     1       2.962   2.719  17.581  0.00  0.00    +0.000 C 
ATOM     19  O   UNL     1       2.138   3.327  16.893  0.00  0.00    +0.000 OA
ATOM     20  N   UNL     1       4.295   2.703  17.286  0.00  0.00    +0.000 N 
ATOM     21  H   UNL     1       4.941   2.163  17.846  0.00  0.00    +0.000 HD
BRANCH  20  22
ATOM     22  C   UNL     1       4.816   3.455  16.164  0.00  0.00    +0.000 C 
BRANCH  22  23
ATOM     23  C   UNL     1       5.593   4.652  16.636  0.00  0.00    +0.000 A 
ATOM     24  C   UNL     1       5.152   5.949  16.346  0.00  0.00    +0.000 A 
ATOM     25  C   UNL     1       5.911   7.056  16.731  0.00  0.00    +0.000 A 
ATOM     26  C   UNL     1       7.106   6.889  17.439  0.00  0.00    +0.000 A 
ATOM     27  C   UNL     1       7.893   8.076  17.907  0.00  0.00    +0.000 C 
ATOM     28  C   UNL     1       7.545   5.594  17.736  0.00  0.00    +0.000 A 
ATOM     29  C   UNL     1       6.797   4.485  17.333  0.00  0.00    +0.000 A 
ENDBRANCH  22  23
ENDBRANCH  20  22
ENDBRANCH  17  18
ENDBRANCH  16  17
ENDBRANCH   1  16
TORSDOF 9
ENDMDL
MODEL 9
REMARK VINA RESULT:      -7.0      1.134      1.595
REMARK  Name = 
REMARK  11 active torsions:
REMARK  status: ('A' for Active; 'I' for Inactive)
REMARK    1  A    between atoms: C_1  and  C_2
REMARK    2  A    between atoms: C_2  and  O_3
REMARK    3  A    between atoms: O_3  and  C_4
REMARK    4  A    between atoms: C_7  and  C_8
REMARK    5  A    between atoms: C_10  and  C_11
REMARK    6  A    between atoms: C_11  and  C_12
REMARK    7  A    between atoms: C_12  and  C_13
REMARK    8  A    between atoms: C_13  and  C_14
REMARK    9  A    between atoms: N_16  and  C_17
REMARK   10  A    between atoms: C_17  and  C_18
REMARK   11  A    between atoms: C_21  and  C_22
REMARK                            x       y       z     vdW  Elec       q    Type
REMARK                         _______ _______ _______ _____ _____    ______ ____
ROOT
ATOM      1  C   UNL     1       1.840   4.768  20.970  0.00  0.00    +0.000 C 
ENDROOT
BRANCH   1   4
ATOM      2  C   UNL     1       1.451   8.283  20.042  0.00  0.00    +0.000 A 
ATOM      3  C   UNL     1       1.089   7.250  20.872  0.00  0.00    +0.000 A 
ATOM      4  C   UNL     1       1.813   6.140  20.398  0.00  0.00    +0.000 A 
ATOM      5  N   UNL     1       2.558   6.459  19.332  0.00  0.00    +0.000 NA
ATOM      6  O   UNL     1       2.328   7.806  19.112  0.00  0.00    +0.000 OA
BRANCH   2  10
ATOM      7  C   UNL     1       0.532  12.445  19.918  0.00  0.00    +0.000 A 
ATOM      8  C   UNL     1       0.465  11.746  21.121  0.00  0.00    +0.000 A 
ATOM      9  C   UNL     1       0.775  10.386  21.158  0.00  0.00    +0.000 A 
ATOM     10  C   UNL     1       1.118   9.696  19.987  0.00  0.00    +0.000 A 
ATOM     11  C   UNL     1       1.148  10.400  18.776  0.00  0.00    +0.000 A 
ATOM     12  C   UNL     1       0.855  11.763  18.744  0.00  0.00    +0.000 A 
BRANCH   7  13
ATOM     13  O   UNL     1       0.281  13.782  19.999  0.00  0.00    +0.000 OA
BRANCH  13  15
ATOM     14  C   UNL     1       0.713  15.961  19.133  0.00  0.00    +0.000 C 
ATOM     15  C   UNL     1       1.322  14.623  19.499  0.00  0.00    +0.000 C 
ENDBRANCH  13  15
ENDBRANCH   7  13
ENDBRANCH   2  10
ENDBRANCH   1   4
BRANCH   1  16
ATOM     16  C   UNL     1       1.222   3.714  20.043  0.00  0.00    +0.000 C 
BRANCH  16  17
ATOM     17  C   UNL     1       1.951   2.365  20.015  0.00  0.00    +0.000 C 
BRANCH  17  18
ATOM     18  C   UNL     1       2.979   2.309  18.906  0.00  0.00    +0.000 C 
ATOM     19  O   UNL     1       3.528   1.253  18.580  0.00  0.00    +0.000 OA
ATOM     20  N   UNL     1       3.251   3.498  18.291  0.00  0.00    +0.000 N 
ATOM     21  H   UNL     1       2.814   4.353  18.607  0.00  0.00    +0.000 HD
BRANCH  20  22
ATOM     22  C   UNL     1       4.171   3.563  17.176  0.00  0.00    +0.000 C 
BRANCH  22  23
ATOM     23  C   UNL     1       5.109   4.729  17.323  0.00  0.00    +0.000 A 
ATOM     24  C   UNL     1       4.887   5.919  16.619  0.00  0.00    +0.000 A 
ATOM     25  C   UNL     1       5.796   6.975  16.710  0.00  0.00    +0.000 A 
ATOM     26  C   UNL     1       6.925   6.874  17.529  0.00  0.00    +0.000 A 
ATOM     27  C   UNL     1       7.871   8.027  17.677  0.00  0.00    +0.000 C 
ATOM     28  C   UNL     1       7.146   5.688  18.239  0.00  0.00    +0.000 A 
ATOM     29  C   UNL     1       6.248   4.623  18.133  0.00  0.00    +0.000 A 
ENDBRANCH  22  23
ENDBRANCH  20  22
ENDBRANCH  17  18
ENDBRANCH  16  17
ENDBRANCH   1  16
TORSDOF 9
ENDMDL
