MODEL 1
REMARK VINA RESULT:      -7.0      0.000      0.000
REMARK  Name = 
REMARK  11 active torsions:
REMARK  status: ('A' for Active; 'I' for Inactive)
REMARK    1  A    between atoms: C_1  and  O_2
REMARK    2  A    between atoms: O_2  and  C_3
REMARK    3  A    between atoms: C_5  and  C_6
REMARK    4  A    between atoms: C_6  and  O_8
REMARK    5  A    between atoms: O_8  and  C_9
REMARK    6  A    between atoms: C_11  and  C_12
REMARK    7  A    between atoms: C_14  and  C_15
REMARK    8  A    between atoms: C_18  and  O_19
REMARK    9  A    between atoms: O_19  and  C_20
REMARK   10  A    between atoms: C_21  and  O_22
REMARK   11  A    between atoms: O_22  and  C_23
REMARK                            x       y       z     vdW  Elec       q    Type
REMARK                         _______ _______ _______ _____ _____    ______ ____
ROOT
ATOM      1  C   UNL     1       2.689   3.187  18.277  0.00  0.00    +0.000 A 
ATOM      2  C   UNL     1       3.472   3.821  17.296  0.00  0.00    +0.000 A 
ATOM      3  C   UNL     1       3.801   5.168  17.397  0.00  0.00    +0.000 A 
ATOM      4  C   UNL     1       3.195   5.930  18.393  0.00  0.00    +0.000 A 
ATOM      5  C   UNL     1       2.328   5.338  19.331  0.00  0.00    +0.000 A 
ATOM      6  C   UNL     1       2.091   3.944  19.304  0.00  0.00    +0.000 A 
ENDROOT
BRANCH   1   8
ATOM      7  C   UNL     1       3.708   1.102  18.661  0.00  0.00    +0.000 C 
ATOM      8  O   UNL     1       2.543   1.821  18.234  0.00  0.00    +0.000 OA
ENDBRANCH   1   8
BRANCH   3   9
ATOM      9  C   UNL     1       4.828   5.695  16.466  0.00  0.00    +0.000 C 
ATOM     10  O   UNL     1       4.876   6.871  16.100  0.00  0.00    +0.000 OA
BRANCH   9  11
ATOM     11  O   UNL     1       5.654   4.663  16.056  0.00  0.00    +0.000 OA
BRANCH  11  12
ATOM     12  C   UNL     1       6.138   4.632  14.734  0.00  0.00    +0.000 A 
ATOM     13  C   UNL     1       5.494   3.736  13.872  0.00  0.00    +0.000 A 
ATOM     14  C   UNL     1       5.999   3.528  12.579  0.00  0.00    +0.000 A 
ATOM     15  C   UNL     1       5.419   2.489  11.661  0.00  0.00    +0.000 C 
ATOM     16  C   UNL     1       7.111   4.264  12.153  0.00  0.00    +0.000 A 
ATOM     17  C   UNL     1       7.738   5.177  13.008  0.00  0.00    +0.000 A 
ATOM     18  C   UNL     1       8.953   5.944  12.578  0.00  0.00    +0.000 C 
ATOM     19  C   UNL     1       7.248   5.354  14.302  0.00  0.00    +0.000 A 
ENDBRANCH  11  12
ENDBRANCH   9  11
ENDBRANCH   3   9
BRANCH   5  20
ATOM     20  O   UNL     1       1.857   6.265  20.231  0.00  0.00    +0.000 OA
ATOM     21  C   UNL     1       2.031   7.651  19.964  0.00  0.00    +0.000 C 
ENDBRANCH   5  20
BRANCH   6  22
ATOM     22  O   UNL     1       1.321   3.472  20.325  0.00  0.00    +0.000 OA
ATOM     23  C   UNL     1       1.853   3.009  21.549  0.00  0.00    +0.000 C 
ENDBRANCH   6  22
TORSDOF 6
ENDMDL
MODEL 2
REMARK VINA RESULT:      -6.8      1.846      7.610
REMARK  Name = 
REMARK  11 active torsions:
REMARK  status: ('A' for Active; 'I' for Inactive)
REMARK    1  A    between atoms: C_1  and  O_2
REMARK    2  A    between atoms: O_2  and  C_3
REMARK    3  A    between atoms: C_5  and  C_6
REMARK    4  A    between atoms: C_6  and  O_8
REMARK    5  A    between atoms: O_8  and  C_9
REMARK    6  A    between atoms: C_11  and  C_12
REMARK    7  A    between atoms: C_14  and  C_15
REMARK    8  A    between atoms: C_18  and  O_19
REMARK    9  A    between atoms: O_19  and  C_20
REMARK   10  A    between atoms: C_21  and  O_22
REMARK   11  A    between atoms: O_22  and  C_23
REMARK                            x       y       z     vdW  Elec       q    Type
REMARK                         _______ _______ _______ _____ _____    ______ ____
ROOT
ATOM      1  C   UNL     1       6.891   5.679  15.760  0.00  0.00    +0.000 A 
ATOM      2  C   UNL     1       5.734   5.260  16.439  0.00  0.00    +0.000 A 
ATOM      3  C   UNL     1       4.984   4.181  15.986  0.00  0.00    +0.000 A 
ATOM      4  C   UNL     1       5.292   3.629  14.745  0.00  0.00    +0.000 A 
ATOM      5  C   UNL     1       6.389   4.096  13.997  0.00  0.00    +0.000 A 
ATOM      6  C   UNL     1       7.227   5.110  14.515  0.00  0.00    +0.000 A 
ENDROOT
BRANCH   1   8
ATOM      7  C   UNL     1       7.160   7.188  17.544  0.00  0.00    +0.000 C 
ATOM      8  O   UNL     1       7.700   6.625  16.341  0.00  0.00    +0.000 OA
ENDBRANCH   1   8
BRANCH   3   9
ATOM      9  C   UNL     1       3.932   3.649  16.886  0.00  0.00    +0.000 C 
ATOM     10  O   UNL     1       2.829   3.265  16.493  0.00  0.00    +0.000 OA
BRANCH   9  11
ATOM     11  O   UNL     1       4.373   3.709  18.196  0.00  0.00    +0.000 OA
BRANCH  11  12
ATOM     12  C   UNL     1       3.528   4.220  19.201  0.00  0.00    +0.000 A 
ATOM     13  C   UNL     1       2.983   3.272  20.077  0.00  0.00    +0.000 A 
ATOM     14  C   UNL     1       2.018   3.667  21.016  0.00  0.00    +0.000 A 
ATOM     15  C   UNL     1       1.314   2.669  21.893  0.00  0.00    +0.000 C 
ATOM     16  C   UNL     1       1.654   5.016  21.097  0.00  0.00    +0.000 A 
ATOM     17  C   UNL     1       2.218   5.965  20.237  0.00  0.00    +0.000 A 
ATOM     18  C   UNL     1       1.810   7.407  20.288  0.00  0.00    +0.000 C 
ATOM     19  C   UNL     1       3.154   5.558  19.286  0.00  0.00    +0.000 A 
ENDBRANCH  11  12
ENDBRANCH   9  11
ENDBRANCH   3   9
BRANCH   5  20
ATOM     20  O   UNL     1       6.520   3.402  12.816  0.00  0.00    +0.000 OA
ATOM     21  C   UNL     1       5.409   3.300  11.936  0.00  0.00    +0.000 C 
ENDBRANCH   5  20
BRANCH   6  22
ATOM     22  O   UNL     1       8.316   5.403  13.749  0.00  0.00    +0.000 OA
ATOM     23  C   UNL     1       8.229   5.979  12.462  0.00  0.00    +0.000 C 
ENDBRANCH   6  22
TORSDOF 6
ENDMDL
MODEL 3
REMARK VINA RESULT:      -6.7      2.738      7.902
REMARK  Name = 
REMARK  11 active torsions:
REMARK  status: ('A' for Active; 'I' for Inactive)
REMARK    1  A    between atoms: C_1  and  O_2
REMARK    2  A    between atoms: O_2  and  C_3
REMARK    3  A    between atoms: C_5  and  C_6
REMARK    4  A    between atoms: C_6  and  O_8
REMARK    5  A    between atoms: O_8  and  C_9
REMARK    6  A    between atoms: C_11  and  C_12
REMARK    7  A    between atoms: C_14  and  C_15
REMARK    8  A    between atoms: C_18  and  O_19
REMARK    9  A    between atoms: O_19  and  C_20
REMARK   10  A    between atoms: C_21  and  O_22
REMARK   11  A    between atoms: O_22  and  C_23
REMARK                            x       y       z     vdW  Elec       q    Type
REMARK                         _______ _______ _______ _____ _____    ______ ____
ROOT
ATOM      1  C   UNL     1       5.155   6.252  16.847  0.00  0.00    +0.000 A 
ATOM      2  C   UNL     1       4.240   7.085  17.514  0.00  0.00    +0.000 A 
ATOM      3  C   UNL     1       3.137   6.558  18.177  0.00  0.00    +0.000 A 
ATOM      4  C   UNL     1       2.849   5.204  18.021  0.00  0.00    +0.000 A 
ATOM      5  C   UNL     1       3.698   4.365  17.274  0.00  0.00    +0.000 A 
ATOM      6  C   UNL     1       4.886   4.876  16.704  0.00  0.00    +0.000 A 
ENDROOT
BRANCH   1   8
ATOM      7  C   UNL     1       7.311   7.029  17.378  0.00  0.00    +0.000 C 
ATOM      8  O   UNL     1       6.322   6.794  16.366  0.00  0.00    +0.000 OA
ENDBRANCH   1   8
BRANCH   3   9
ATOM      9  C   UNL     1       2.367   7.468  19.059  0.00  0.00    +0.000 C 
ATOM     10  O   UNL     1       1.884   7.123  20.139  0.00  0.00    +0.000 OA
BRANCH   9  11
ATOM     11  O   UNL     1       2.245   8.706  18.452  0.00  0.00    +0.000 OA
BRANCH  11  12
ATOM     12  C   UNL     1       1.070   9.463  18.626  0.00  0.00    +0.000 A 
ATOM     13  C   UNL     1       0.930  10.091  19.870  0.00  0.00    +0.000 A 
ATOM     14  C   UNL     1      -0.270  10.745  20.188  0.00  0.00    +0.000 A 
ATOM     15  C   UNL     1      -0.516  11.326  21.552  0.00  0.00    +0.000 C 
ATOM     16  C   UNL     1      -1.292  10.804  19.233  0.00  0.00    +0.000 A 
ATOM     17  C   UNL     1      -1.140  10.195  17.982  0.00  0.00    +0.000 A 
ATOM     18  C   UNL     1      -2.240  10.218  16.963  0.00  0.00    +0.000 C 
ATOM     19  C   UNL     1       0.045   9.522  17.685  0.00  0.00    +0.000 A 
ENDBRANCH  11  12
ENDBRANCH   9  11
ENDBRANCH   3   9
BRANCH   5  20
ATOM     20  O   UNL     1       3.236   3.069  17.264  0.00  0.00    +0.000 OA
ATOM     21  C   UNL     1       3.476   2.231  18.387  0.00  0.00    +0.000 C 
ENDBRANCH   5  20
BRANCH   6  22
ATOM     22  O   UNL     1       5.679   3.947  16.098  0.00  0.00    +0.000 OA
ATOM     23  C   UNL     1       5.952   3.944  14.711  0.00  0.00    +0.000 C 
ENDBRANCH   6  22
TORSDOF 6
ENDMDL
MODEL 4
REMARK VINA RESULT:      -6.7      3.707      8.032
REMARK  Name = 
REMARK  11 active torsions:
REMARK  status: ('A' for Active; 'I' for Inactive)
REMARK    1  A    between atoms: C_1  and  O_2
REMARK    2  A    between atoms: O_2  and  C_3
REMARK    3  A    between atoms: C_5  and  C_6
REMARK    4  A    between atoms: C_6  and  O_8
REMARK    5  A    between atoms: O_8  and  C_9
REMARK    6  A    between atoms: C_11  and  C_12
REMARK    7  A    between atoms: C_14  and  C_15
REMARK    8  A    between atoms: C_18  and  O_19
REMARK    9  A    between atoms: O_19  and  C_20
REMARK   10  A    between atoms: C_21  and  O_22
REMARK   11  A    between atoms: O_22  and  C_23
REMARK                            x       y       z     vdW  Elec       q    Type
REMARK                         _______ _______ _______ _____ _____    ______ ____
ROOT
ATOM      1  C   UNL     1       2.663   5.841  19.799  0.00  0.00    +0.000 A 
ATOM      2  C   UNL     1       2.206   7.156  19.606  0.00  0.00    +0.000 A 
ATOM      3  C   UNL     1       2.579   7.890  18.486  0.00  0.00    +0.000 A 
ATOM      4  C   UNL     1       3.557   7.370  17.642  0.00  0.00    +0.000 A 
ATOM      5  C   UNL     1       4.104   6.093  17.869  0.00  0.00    +0.000 A 
ATOM      6  C   UNL     1       3.635   5.294  18.938  0.00  0.00    +0.000 A 
ENDROOT
BRANCH   1   8
ATOM      7  C   UNL     1       1.037   4.253  20.409  0.00  0.00    +0.000 C 
ATOM      8  O   UNL     1       2.126   5.092  20.819  0.00  0.00    +0.000 OA
ENDBRANCH   1   8
BRANCH   3   9
ATOM      9  C   UNL     1       1.863   9.164  18.230  0.00  0.00    +0.000 C 
ATOM     10  O   UNL     1       2.266  10.027  17.449  0.00  0.00    +0.000 OA
BRANCH   9  11
ATOM     11  O   UNL     1       0.737   9.229  19.032  0.00  0.00    +0.000 OA
BRANCH  11  12
ATOM     12  C   UNL     1      -0.378   9.984  18.619  0.00  0.00    +0.000 A 
ATOM     13  C   UNL     1      -0.813  10.968  19.517  0.00  0.00    +0.000 A 
ATOM     14  C   UNL     1      -2.001  11.669  19.259  0.00  0.00    +0.000 A 
ATOM     15  C   UNL     1      -2.573  12.645  20.249  0.00  0.00    +0.000 C 
ATOM     16  C   UNL     1      -2.706  11.411  18.078  0.00  0.00    +0.000 A 
ATOM     17  C   UNL     1      -2.257  10.444  17.171  0.00  0.00    +0.000 A 
ATOM     18  C   UNL     1      -3.022  10.129  15.920  0.00  0.00    +0.000 C 
ATOM     19  C   UNL     1      -1.091   9.730  17.450  0.00  0.00    +0.000 A 
ENDBRANCH  11  12
ENDBRANCH   9  11
ENDBRANCH   3   9
BRANCH   5  20
ATOM     20  O   UNL     1       5.037   5.771  16.911  0.00  0.00    +0.000 OA
ATOM     21  C   UNL     1       6.364   6.265  17.031  0.00  0.00    +0.000 C 
ENDBRANCH   5  20
BRANCH   6  22
ATOM     22  O   UNL     1       4.162   4.038  18.991  0.00  0.00    +0.000 OA
ATOM     23  C   UNL     1       3.679   2.960  18.216  0.00  0.00    +0.000 C 
ENDBRANCH   6  22
TORSDOF 6
ENDMDL
MODEL 5
REMARK VINA RESULT:      -6.7      3.096      7.722
REMARK  Name = 
REMARK  11 active torsions:
REMARK  status: ('A' for Active; 'I' for Inactive)
REMARK    1  A    between atoms: C_1  and  O_2
REMARK    2  A    between atoms: O_2  and  C_3
REMARK    3  A    between atoms: C_5  and  C_6
REMARK    4  A    between atoms: C_6  and  O_8
REMARK    5  A    between atoms: O_8  and  C_9
REMARK    6  A    between atoms: C_11  and  C_12
REMARK    7  A    between atoms: C_14  and  C_15
REMARK    8  A    between atoms: C_18  and  O_19
REMARK    9  A    between atoms: O_19  and  C_20
REMARK   10  A    between atoms: C_21  and  O_22
REMARK   11  A    between atoms: O_22  and  C_23
REMARK                            x       y       z     vdW  Elec       q    Type
REMARK                         _______ _______ _______ _____ _____    ______ ____
ROOT
ATOM      1  C   UNL     1       5.256   6.386  16.848  0.00  0.00    +0.000 A 
ATOM      2  C   UNL     1       4.300   7.292  17.336  0.00  0.00    +0.000 A 
ATOM      3  C   UNL     1       3.129   6.848  17.939  0.00  0.00    +0.000 A 
ATOM      4  C   UNL     1       2.828   5.489  17.894  0.00  0.00    +0.000 A 
ATOM      5  C   UNL     1       3.726   4.568  17.321  0.00  0.00    +0.000 A 
ATOM      6  C   UNL     1       4.974   5.005  16.819  0.00  0.00    +0.000 A 
ENDROOT
BRANCH   1   8
ATOM      7  C   UNL     1       7.389   7.135  17.501  0.00  0.00    +0.000 C 
ATOM      8  O   UNL     1       6.475   6.863  16.429  0.00  0.00    +0.000 OA
ENDBRANCH   1   8
BRANCH   3   9
ATOM      9  C   UNL     1       2.297   7.852  18.647  0.00  0.00    +0.000 C 
ATOM     10  O   UNL     1       1.989   7.765  19.837  0.00  0.00    +0.000 OA
BRANCH   9  11
ATOM     11  O   UNL     1       1.901   8.834  17.755  0.00  0.00    +0.000 OA
BRANCH  11  12
ATOM     12  C   UNL     1       0.990   9.828  18.163  0.00  0.00    +0.000 A 
ATOM     13  C   UNL     1      -0.358   9.569  17.883  0.00  0.00    +0.000 A 
ATOM     14  C   UNL     1      -1.321  10.562  18.119  0.00  0.00    +0.000 A 
ATOM     15  C   UNL     1      -2.759  10.379  17.722  0.00  0.00    +0.000 C 
ATOM     16  C   UNL     1      -0.924  11.781  18.682  0.00  0.00    +0.000 A 
ATOM     17  C   UNL     1       0.421  12.028  18.982  0.00  0.00    +0.000 A 
ATOM     18  C   UNL     1       0.866  13.343  19.550  0.00  0.00    +0.000 C 
ATOM     19  C   UNL     1       1.375  11.047  18.717  0.00  0.00    +0.000 A 
ENDBRANCH  11  12
ENDBRANCH   9  11
ENDBRANCH   3   9
BRANCH   5  20
ATOM     20  O   UNL     1       3.241   3.284  17.397  0.00  0.00    +0.000 OA
ATOM     21  C   UNL     1       2.038   3.031  18.111  0.00  0.00    +0.000 C 
ENDBRANCH   5  20
BRANCH   6  22
ATOM     22  O   UNL     1       5.801   4.010  16.389  0.00  0.00    +0.000 OA
ATOM     23  C   UNL     1       6.098   3.781  15.027  0.00  0.00    +0.000 C 
ENDBRANCH   6  22
TORSDOF 6
ENDMDL
MODEL 6
REMARK VINA RESULT:      -6.7      3.013      7.807
REMARK  Name = 
REMARK  11 active torsions:
REMARK  status: ('A' for Active; 'I' for Inactive)
REMARK    1  A    between atoms: C_1  and  O_2
REMARK    2  A    between atoms: O_2  and  C_3
REMARK    3  A    between atoms: C_5  and  C_6
REMARK    4  A    between atoms: C_6  and  O_8
REMARK    5  A    between atoms: O_8  and  C_9
REMARK    6  A    between atoms: C_11  and  C_12
REMARK    7  A    between atoms: C_14  and  C_15
REMARK    8  A    between atoms: C_18  and  O_19
REMARK    9  A    between atoms: O_19  and  C_20
REMARK   10  A    between atoms: C_21  and  O_22
REMARK   11  A    between atoms: O_22  and  C_23
REMARK                            x       y       z     vdW  Elec       q    Type
REMARK                         _______ _______ _______ _____ _____    ______ ____
ROOT
ATOM      1  C   UNL     1       5.224   6.402  16.869  0.00  0.00    +0.000 A 
ATOM      2  C   UNL     1       4.231   7.266  17.364  0.00  0.00    +0.000 A 
ATOM      3  C   UNL     1       3.090   6.770  17.984  0.00  0.00    +0.000 A 
ATOM      4  C   UNL     1       2.854   5.398  17.949  0.00  0.00    +0.000 A 
ATOM      5  C   UNL     1       3.788   4.518  17.371  0.00  0.00    +0.000 A 
ATOM      6  C   UNL     1       5.008   5.010  16.851  0.00  0.00    +0.000 A 
ENDROOT
BRANCH   1   8
ATOM      7  C   UNL     1       7.357   7.182  17.485  0.00  0.00    +0.000 C 
ATOM      8  O   UNL     1       6.414   6.934  16.433  0.00  0.00    +0.000 OA
ENDBRANCH   1   8
BRANCH   3   9
ATOM      9  C   UNL     1       2.220   7.738  18.696  0.00  0.00    +0.000 C 
ATOM     10  O   UNL     1       2.100   7.772  19.921  0.00  0.00    +0.000 OA
BRANCH   9  11
ATOM     11  O   UNL     1       1.555   8.526  17.773  0.00  0.00    +0.000 OA
BRANCH  11  12
ATOM     12  C   UNL     1       1.146   9.827  18.124  0.00  0.00    +0.000 A 
ATOM     13  C   UNL     1       2.122  10.824  18.004  0.00  0.00    +0.000 A 
ATOM     14  C   UNL     1       1.854  12.122  18.468  0.00  0.00    +0.000 A 
ATOM     15  C   UNL     1       2.908  13.193  18.474  0.00  0.00    +0.000 C 
ATOM     16  C   UNL     1       0.590  12.411  18.995  0.00  0.00    +0.000 A 
ATOM     17  C   UNL     1      -0.392  11.419  19.092  0.00  0.00    +0.000 A 
ATOM     18  C   UNL     1      -1.737  11.706  19.690  0.00  0.00    +0.000 C 
ATOM     19  C   UNL     1      -0.106  10.125  18.657  0.00  0.00    +0.000 A 
ENDBRANCH  11  12
ENDBRANCH   9  11
ENDBRANCH   3   9
BRANCH   5  20
ATOM     20  O   UNL     1       3.365   3.212  17.460  0.00  0.00    +0.000 OA
ATOM     21  C   UNL     1       3.588   2.484  18.661  0.00  0.00    +0.000 C 
ENDBRANCH   5  20
BRANCH   6  22
ATOM     22  O   UNL     1       5.875   4.052  16.417  0.00  0.00    +0.000 OA
ATOM     23  C   UNL     1       6.145   3.810  15.051  0.00  0.00    +0.000 C 
ENDBRANCH   6  22
TORSDOF 6
ENDMDL
MODEL 7
REMARK VINA RESULT:      -6.7      1.015      2.869
REMARK  Name = 
REMARK  11 active torsions:
REMARK  status: ('A' for Active; 'I' for Inactive)
REMARK    1  A    between atoms: C_1  and  O_2
REMARK    2  A    between atoms: O_2  and  C_3
REMARK    3  A    between atoms: C_5  and  C_6
REMARK    4  A    between atoms: C_6  and  O_8
REMARK    5  A    between atoms: O_8  and  C_9
REMARK    6  A    between atoms: C_11  and  C_12
REMARK    7  A    between atoms: C_14  and  C_15
REMARK    8  A    between atoms: C_18  and  O_19
REMARK    9  A    between atoms: O_19  and  C_20
REMARK   10  A    between atoms: C_21  and  O_22
REMARK   11  A    between atoms: O_22  and  C_23
REMARK                            x       y       z     vdW  Elec       q    Type
REMARK                         _______ _______ _______ _____ _____    ______ ____
ROOT
ATOM      1  C   UNL     1       2.832   5.897  18.480  0.00  0.00    +0.000 A 
ATOM      2  C   UNL     1       4.120   6.130  17.969  0.00  0.00    +0.000 A 
ATOM      3  C   UNL     1       4.843   5.118  17.348  0.00  0.00    +0.000 A 
ATOM      4  C   UNL     1       4.347   3.818  17.396  0.00  0.00    +0.000 A 
ATOM      5  C   UNL     1       3.101   3.540  17.991  0.00  0.00    +0.000 A 
ATOM      6  C   UNL     1       2.309   4.588  18.512  0.00  0.00    +0.000 A 
ENDROOT
BRANCH   1   8
ATOM      7  C   UNL     1       2.407   8.201  18.269  0.00  0.00    +0.000 C 
ATOM      8  O   UNL     1       2.084   6.963  18.917  0.00  0.00    +0.000 OA
ENDBRANCH   1   8
BRANCH   3   9
ATOM      9  C   UNL     1       6.076   5.503  16.620  0.00  0.00    +0.000 C 
ATOM     10  O   UNL     1       6.549   6.641  16.633  0.00  0.00    +0.000 OA
BRANCH   9  11
ATOM     11  O   UNL     1       6.552   4.414  15.910  0.00  0.00    +0.000 OA
BRANCH  11  12
ATOM     12  C   UNL     1       6.687   4.491  14.510  0.00  0.00    +0.000 A 
ATOM     13  C   UNL     1       6.002   3.512  13.779  0.00  0.00    +0.000 A 
ATOM     14  C   UNL     1       6.193   3.419  12.391  0.00  0.00    +0.000 A 
ATOM     15  C   UNL     1       5.578   2.312  11.582  0.00  0.00    +0.000 C 
ATOM     16  C   UNL     1       7.027   4.343  11.752  0.00  0.00    +0.000 A 
ATOM     17  C   UNL     1       7.691   5.335  12.482  0.00  0.00    +0.000 A 
ATOM     18  C   UNL     1       8.617   6.309  11.815  0.00  0.00    +0.000 C 
ATOM     19  C   UNL     1       7.519   5.401  13.864  0.00  0.00    +0.000 A 
ENDBRANCH  11  12
ENDBRANCH   9  11
ENDBRANCH   3   9
BRANCH   5  20
ATOM     20  O   UNL     1       2.799   2.200  17.913  0.00  0.00    +0.000 OA
ATOM     21  C   UNL     1       3.625   1.256  18.582  0.00  0.00    +0.000 C 
ENDBRANCH   5  20
BRANCH   6  22
ATOM     22  O   UNL     1       1.079   4.210  18.963  0.00  0.00    +0.000 OA
ATOM     23  C   UNL     1       0.854   3.678  20.253  0.00  0.00    +0.000 C 
ENDBRANCH   6  22
TORSDOF 6
ENDMDL
MODEL 8
REMARK VINA RESULT:      -6.7      3.201      8.072
REMARK  Name = 
REMARK  11 active torsions:
REMARK  status: ('A' for Active; 'I' for Inactive)
REMARK    1  A    between atoms: C_1  and  O_2
REMARK    2  A    between atoms: O_2  and  C_3
REMARK    3  A    between atoms: C_5  and  C_6
REMARK    4  A    between atoms: C_6  and  O_8
REMARK    5  A    between atoms: O_8  and  C_9
REMARK    6  A    between atoms: C_11  and  C_12
REMARK    7  A    between atoms: C_14  and  C_15
REMARK    8  A    between atoms: C_18  and  O_19
REMARK    9  A    between atoms: O_19  and  C_20
REMARK   10  A    between atoms: C_21  and  O_22
REMARK   11  A    between atoms: O_22  and  C_23
REMARK                            x       y       z     vdW  Elec       q    Type
REMARK                         _______ _______ _______ _____ _____    ______ ____
ROOT
ATOM      1  C   UNL     1       2.874   5.163  19.733  0.00  0.00    +0.000 A 
ATOM      2  C   UNL     1       2.467   6.505  19.644  0.00  0.00    +0.000 A 
ATOM      3  C   UNL     1       2.736   7.266  18.512  0.00  0.00    +0.000 A 
ATOM      4  C   UNL     1       3.574   6.734  17.535  0.00  0.00    +0.000 A 
ATOM      5  C   UNL     1       4.076   5.424  17.647  0.00  0.00    +0.000 A 
ATOM      6  C   UNL     1       3.701   4.606  18.738  0.00  0.00    +0.000 A 
ENDROOT
BRANCH   1   8
ATOM      7  C   UNL     1       1.119   3.849  20.587  0.00  0.00    +0.000 C 
ATOM      8  O   UNL     1       2.428   4.399  20.785  0.00  0.00    +0.000 OA
ENDBRANCH   1   8
BRANCH   3   9
ATOM      9  C   UNL     1       2.063   8.582  18.392  0.00  0.00    +0.000 C 
ATOM     10  O   UNL     1       2.166   9.313  17.406  0.00  0.00    +0.000 OA
BRANCH   9  11
ATOM     11  O   UNL     1       1.370   8.853  19.560  0.00  0.00    +0.000 OA
BRANCH  11  12
ATOM     12  C   UNL     1       0.432   9.904  19.593  0.00  0.00    +0.000 A 
ATOM     13  C   UNL     1       0.439  10.688  20.754  0.00  0.00    +0.000 A 
ATOM     14  C   UNL     1      -0.553  11.663  20.941  0.00  0.00    +0.000 A 
ATOM     15  C   UNL     1      -0.662  12.444  22.221  0.00  0.00    +0.000 C 
ATOM     16  C   UNL     1      -1.504  11.873  19.936  0.00  0.00    +0.000 A 
ATOM     17  C   UNL     1      -1.494  11.105  18.766  0.00  0.00    +0.000 A 
ATOM     18  C   UNL     1      -2.530  11.293  17.698  0.00  0.00    +0.000 C 
ATOM     19  C   UNL     1      -0.523  10.117  18.602  0.00  0.00    +0.000 A 
ENDBRANCH  11  12
ENDBRANCH   9  11
ENDBRANCH   3   9
BRANCH   5  20
ATOM     20  O   UNL     1       4.865   5.097  16.568  0.00  0.00    +0.000 OA
ATOM     21  C   UNL     1       5.321   6.125  15.697  0.00  0.00    +0.000 C 
ENDBRANCH   5  20
BRANCH   6  22
ATOM     22  O   UNL     1       4.164   3.325  18.680  0.00  0.00    +0.000 OA
ATOM     23  C   UNL     1       3.434   2.260  18.104  0.00  0.00    +0.000 C 
ENDBRANCH   6  22
TORSDOF 6
ENDMDL
MODEL 9
REMARK VINA RESULT:      -6.7      3.674      6.950
REMARK  Name = 
REMARK  11 active torsions:
REMARK  status: ('A' for Active; 'I' for Inactive)
REMARK    1  A    between atoms: C_1  and  O_2
REMARK    2  A    between atoms: O_2  and  C_3
REMARK    3  A    between atoms: C_5  and  C_6
REMARK    4  A    between atoms: C_6  and  O_8
REMARK    5  A    between atoms: O_8  and  C_9
REMARK    6  A    between atoms: C_11  and  C_12
REMARK    7  A    between atoms: C_14  and  C_15
REMARK    8  A    between atoms: C_18  and  O_19
REMARK    9  A    between atoms: O_19  and  C_20
REMARK   10  A    between atoms: C_21  and  O_22
REMARK   11  A    between atoms: O_22  and  C_23
REMARK                            x       y       z     vdW  Elec       q    Type
REMARK                         _______ _______ _______ _____ _____    ______ ____
ROOT
ATOM      1  C   UNL     1       0.339  10.259  21.113  0.00  0.00    +0.000 A 
ATOM      2  C   UNL     1       1.125   9.367  20.365  0.00  0.00    +0.000 A 
ATOM      3  C   UNL     1       1.050   9.330  18.977  0.00  0.00    +0.000 A 
ATOM      4  C   UNL     1       0.052  10.066  18.343  0.00  0.00    +0.000 A 
ATOM      5  C   UNL     1      -0.815  10.894  19.080  0.00  0.00    +0.000 A 
ATOM      6  C   UNL     1      -0.659  11.028  20.479  0.00  0.00    +0.000 A 
ENDROOT
BRANCH   1   8
ATOM      7  C   UNL     1      -0.224   9.526  23.277  0.00  0.00    +0.000 C 
ATOM      8  O   UNL     1       0.577  10.391  22.460  0.00  0.00    +0.000 OA
ENDBRANCH   1   8
BRANCH   3   9
ATOM      9  C   UNL     1       2.082   8.548  18.254  0.00  0.00    +0.000 C 
ATOM     10  O   UNL     1       2.489   8.835  17.127  0.00  0.00    +0.000 OA
BRANCH   9  11
ATOM     11  O   UNL     1       2.452   7.455  19.017  0.00  0.00    +0.000 OA
BRANCH  11  12
ATOM     12  C   UNL     1       2.697   6.214  18.397  0.00  0.00    +0.000 A 
ATOM     13  C   UNL     1       1.764   5.205  18.667  0.00  0.00    +0.000 A 
ATOM     14  C   UNL     1       2.002   3.898  18.213  0.00  0.00    +0.000 A 
ATOM     15  C   UNL     1       1.095   2.757  18.581  0.00  0.00    +0.000 C 
ATOM     16  C   UNL     1       3.145   3.636  17.450  0.00  0.00    +0.000 A 
ATOM     17  C   UNL     1       4.064   4.652  17.162  0.00  0.00    +0.000 A 
ATOM     18  C   UNL     1       5.312   4.377  16.377  0.00  0.00    +0.000 C 
ATOM     19  C   UNL     1       3.835   5.941  17.642  0.00  0.00    +0.000 A 
ENDBRANCH  11  12
ENDBRANCH   9  11
ENDBRANCH   3   9
BRANCH   5  20
ATOM     20  O   UNL     1      -1.709  11.539  18.257  0.00  0.00    +0.000 OA
ATOM     21  C   UNL     1      -2.927  10.896  17.905  0.00  0.00    +0.000 C 
ENDBRANCH   5  20
BRANCH   6  22
ATOM     22  O   UNL     1      -1.486  11.939  21.066  0.00  0.00    +0.000 OA
ATOM     23  C   UNL     1      -1.121  13.284  21.296  0.00  0.00    +0.000 C 
ENDBRANCH   6  22
TORSDOF 6
ENDMDL
