MODEL 1
REMARK VINA RESULT:      -9.9      0.000      0.000
REMARK  Name = 
REMARK  8 active torsions:
REMARK  status: ('A' for Active; 'I' for Inactive)
REMARK    1  A    between atoms: C_1  and  C_2
REMARK    2  A    between atoms: C_2  and  C_3
REMARK    3  A    between atoms: C_2  and  N_17
REMARK    4  A    between atoms: C_6  and  C_7
REMARK    5  A    between atoms: C_20  and  C_21
REMARK    6  A    between atoms: C_20  and  C_27
REMARK    7  A    between atoms: C_21  and  C_22
REMARK    8  A    between atoms: C_22  and  N_23
REMARK                            x       y       z     vdW  Elec       q    Type
REMARK                         _______ _______ _______ _____ _____    ______ ____
ROOT
ATOM      1  N   UNL     1       5.315   5.357  17.865  0.00  0.00    +0.000 N 
ATOM      2  C   UNL     1       4.170   5.562  16.992  0.00  0.00    +0.000 C 
ATOM      3  C   UNL     1       2.958   4.816  17.484  0.00  0.00    +0.000 C 
ATOM      4  C   UNL     1       2.704   5.189  18.943  0.00  0.00    +0.000 C 
ATOM      5  O   UNL     1       3.902   4.902  19.702  0.00  0.00    +0.000 OA
ATOM      6  C   UNL     1       5.168   5.114  19.227  0.00  0.00    +0.000 C 
ATOM      7  O   UNL     1       6.111   5.041  20.006  0.00  0.00    +0.000 OA
ENDROOT
BRANCH   4   8
ATOM      8  C   UNL     1       2.319   6.678  19.102  0.00  0.00    +0.000 A 
ATOM      9  C   UNL     1       1.870   7.176  20.342  0.00  0.00    +0.000 A 
ATOM     10  C   UNL     1       1.445   8.501  20.475  0.00  0.00    +0.000 A 
ATOM     11  C   UNL     1       1.461   9.344  19.374  0.00  0.00    +0.000 A 
ATOM     12  F   UNL     1       1.027  10.605  19.497  0.00  0.00    +0.000 F 
ATOM     13  C   UNL     1       1.919   8.894  18.144  0.00  0.00    +0.000 A 
ATOM     14  C   UNL     1       2.358   7.574  18.013  0.00  0.00    +0.000 A 
ENDBRANCH   4   8
BRANCH   1  16
ATOM     15  C   UNL     1       6.798   5.430  15.827  0.00  0.00    +0.000 C 
ATOM     16  C   UNL     1       6.689   5.572  17.348  0.00  0.00    +0.000 C 
BRANCH  16  17
ATOM     17  C   UNL     1       7.345   6.869  17.819  0.00  0.00    +0.000 A 
ATOM     18  C   UNL     1       8.277   6.918  18.855  0.00  0.00    +0.000 A 
ATOM     19  C   UNL     1       8.910   8.119  19.199  0.00  0.00    +0.000 A 
ATOM     20  C   UNL     1       8.660   9.322  18.515  0.00  0.00    +0.000 A 
ATOM     21  C   UNL     1       7.655   9.281  17.535  0.00  0.00    +0.000 A 
ATOM     22  C   UNL     1       7.002   8.084  17.201  0.00  0.00    +0.000 A 
BRANCH  20  23
ATOM     23  C   UNL     1       9.464  10.542  18.791  0.00  0.00    +0.000 A 
ATOM     24  C   UNL     1      10.042  11.268  17.723  0.00  0.00    +0.000 A 
ATOM     25  C   UNL     1      10.801  12.422  17.942  0.00  0.00    +0.000 A 
ATOM     26  C   UNL     1      10.982  12.886  19.235  0.00  0.00    +0.000 A 
ATOM     27  F   UNL     1      11.704  13.994  19.443  0.00  0.00    +0.000 F 
ATOM     28  C   UNL     1      10.419  12.218  20.310  0.00  0.00    +0.000 A 
ATOM     29  C   UNL     1       9.675  11.059  20.083  0.00  0.00    +0.000 A 
ATOM     30  F   UNL     1       9.167  10.440  21.161  0.00  0.00    +0.000 F 
ENDBRANCH  20  23
ENDBRANCH  16  17
ENDBRANCH   1  16
BRANCH   4  31
ATOM     31  C   UNL     1       1.566   4.301  19.524  0.00  0.00    +0.000 C 
BRANCH  31  32
ATOM     32  C   UNL     1       1.730   2.804  19.242  0.00  0.00    +0.000 C 
BRANCH  32  33
ATOM     33  N   UNL     1       2.935   2.273  19.847  0.00  0.00    +0.000 N 
ATOM     34  C   UNL     1       3.898   1.659  19.098  0.00  0.00    +0.000 C 
ATOM     35  N   UNL     1       5.013   1.383  19.817  0.00  0.00    +0.000 N 
ATOM     36  O   UNL     1       3.808   1.387  17.914  0.00  0.00    +0.000 OA
ATOM     37  H   UNL     1       3.225   2.654  20.738  0.00  0.00    +0.000 HD
ATOM     38  H   UNL     1       4.902   1.146  20.791  0.00  0.00    +0.000 HD
ATOM     39  H   UNL     1       5.696   0.833  19.311  0.00  0.00    +0.000 HD
ENDBRANCH  32  33
ENDBRANCH  31  32
ENDBRANCH   4  31
TORSDOF 7
ENDMDL
MODEL 2
REMARK VINA RESULT:      -9.8      1.074      1.231
REMARK  Name = 
REMARK  8 active torsions:
REMARK  status: ('A' for Active; 'I' for Inactive)
REMARK    1  A    between atoms: C_1  and  C_2
REMARK    2  A    between atoms: C_2  and  C_3
REMARK    3  A    between atoms: C_2  and  N_17
REMARK    4  A    between atoms: C_6  and  C_7
REMARK    5  A    between atoms: C_20  and  C_21
REMARK    6  A    between atoms: C_20  and  C_27
REMARK    7  A    between atoms: C_21  and  C_22
REMARK    8  A    between atoms: C_22  and  N_23
REMARK                            x       y       z     vdW  Elec       q    Type
REMARK                         _______ _______ _______ _____ _____    ______ ____
ROOT
ATOM      1  N   UNL     1       5.448   5.434  17.897  0.00  0.00    +0.000 N 
ATOM      2  C   UNL     1       4.317   5.621  17.001  0.00  0.00    +0.000 C 
ATOM      3  C   UNL     1       3.111   4.846  17.461  0.00  0.00    +0.000 C 
ATOM      4  C   UNL     1       2.818   5.204  18.917  0.00  0.00    +0.000 C 
ATOM      5  O   UNL     1       4.004   4.937  19.700  0.00  0.00    +0.000 OA
ATOM      6  C   UNL     1       5.276   5.179  19.255  0.00  0.00    +0.000 C 
ATOM      7  O   UNL     1       6.203   5.121  20.054  0.00  0.00    +0.000 OA
ENDROOT
BRANCH   4   8
ATOM      8  C   UNL     1       2.398   6.684  19.076  0.00  0.00    +0.000 A 
ATOM      9  C   UNL     1       1.924   7.167  20.313  0.00  0.00    +0.000 A 
ATOM     10  C   UNL     1       1.468   8.481  20.446  0.00  0.00    +0.000 A 
ATOM     11  C   UNL     1       1.477   9.329  19.348  0.00  0.00    +0.000 A 
ATOM     12  F   UNL     1       1.014  10.579  19.470  0.00  0.00    +0.000 F 
ATOM     13  C   UNL     1       1.959   8.894  18.122  0.00  0.00    +0.000 A 
ATOM     14  C   UNL     1       2.429   7.584  17.991  0.00  0.00    +0.000 A 
ENDBRANCH   4   8
BRANCH   1  16
ATOM     15  C   UNL     1       7.006   5.411  15.915  0.00  0.00    +0.000 C 
ATOM     16  C   UNL     1       6.827   5.681  17.413  0.00  0.00    +0.000 C 
BRANCH  16  17
ATOM     17  C   UNL     1       7.392   7.051  17.786  0.00  0.00    +0.000 A 
ATOM     18  C   UNL     1       8.366   7.231  18.767  0.00  0.00    +0.000 A 
ATOM     19  C   UNL     1       8.911   8.496  19.020  0.00  0.00    +0.000 A 
ATOM     20  C   UNL     1       8.524   9.638  18.295  0.00  0.00    +0.000 A 
ATOM     21  C   UNL     1       7.480   9.463  17.373  0.00  0.00    +0.000 A 
ATOM     22  C   UNL     1       6.916   8.200  17.131  0.00  0.00    +0.000 A 
BRANCH  20  23
ATOM     23  C   UNL     1       9.234  10.932  18.470  0.00  0.00    +0.000 A 
ATOM     24  C   UNL     1      10.388  11.005  19.285  0.00  0.00    +0.000 A 
ATOM     25  C   UNL     1      11.086  12.202  19.471  0.00  0.00    +0.000 A 
ATOM     26  C   UNL     1      10.654  13.351  18.827  0.00  0.00    +0.000 A 
ATOM     27  F   UNL     1      11.325  14.497  19.001  0.00  0.00    +0.000 F 
ATOM     28  C   UNL     1       9.540  13.323  18.004  0.00  0.00    +0.000 A 
ATOM     29  C   UNL     1       8.841  12.126  17.836  0.00  0.00    +0.000 A 
ATOM     30  F   UNL     1       7.759  12.158  17.043  0.00  0.00    +0.000 F 
ENDBRANCH  20  23
ENDBRANCH  16  17
ENDBRANCH   1  16
BRANCH   4  31
ATOM     31  C   UNL     1       1.686   4.288  19.467  0.00  0.00    +0.000 C 
BRANCH  31  32
ATOM     32  C   UNL     1       2.186   3.005  20.139  0.00  0.00    +0.000 C 
BRANCH  32  33
ATOM     33  N   UNL     1       2.731   2.072  19.175  0.00  0.00    +0.000 N 
ATOM     34  C   UNL     1       3.987   1.554  19.315  0.00  0.00    +0.000 C 
ATOM     35  N   UNL     1       4.248   0.580  18.409  0.00  0.00    +0.000 N 
ATOM     36  O   UNL     1       4.803   1.892  20.154  0.00  0.00    +0.000 OA
ATOM     37  H   UNL     1       2.082   1.543  18.608  0.00  0.00    +0.000 HD
ATOM     38  H   UNL     1       3.834   0.662  17.493  0.00  0.00    +0.000 HD
ATOM     39  H   UNL     1       5.207   0.257  18.425  0.00  0.00    +0.000 HD
ENDBRANCH  32  33
ENDBRANCH  31  32
ENDBRANCH   4  31
TORSDOF 7
ENDMDL
MODEL 3
REMARK VINA RESULT:      -9.4      1.052      1.376
REMARK  Name = 
REMARK  8 active torsions:
REMARK  status: ('A' for Active; 'I' for Inactive)
REMARK    1  A    between atoms: C_1  and  C_2
REMARK    2  A    between atoms: C_2  and  C_3
REMARK    3  A    between atoms: C_2  and  N_17
REMARK    4  A    between atoms: C_6  and  C_7
REMARK    5  A    between atoms: C_20  and  C_21
REMARK    6  A    between atoms: C_20  and  C_27
REMARK    7  A    between atoms: C_21  and  C_22
REMARK    8  A    between atoms: C_22  and  N_23
REMARK                            x       y       z     vdW  Elec       q    Type
REMARK                         _______ _______ _______ _____ _____    ______ ____
ROOT
ATOM      1  N   UNL     1       5.482   5.159  17.716  0.00  0.00    +0.000 N 
ATOM      2  C   UNL     1       4.438   5.513  16.767  0.00  0.00    +0.000 C 
ATOM      3  C   UNL     1       3.163   4.760  17.040  0.00  0.00    +0.000 C 
ATOM      4  C   UNL     1       2.771   4.964  18.502  0.00  0.00    +0.000 C 
ATOM      5  O   UNL     1       3.876   4.540  19.333  0.00  0.00    +0.000 OA
ATOM      6  C   UNL     1       5.189   4.758  19.016  0.00  0.00    +0.000 C 
ATOM      7  O   UNL     1       6.045   4.555  19.869  0.00  0.00    +0.000 OA
ENDROOT
BRANCH   4   8
ATOM      8  C   UNL     1       2.411   6.436  18.806  0.00  0.00    +0.000 A 
ATOM      9  C   UNL     1       2.047   6.833  20.109  0.00  0.00    +0.000 A 
ATOM     10  C   UNL     1       1.643   8.144  20.376  0.00  0.00    +0.000 A 
ATOM     11  C   UNL     1       1.597   9.074  19.349  0.00  0.00    +0.000 A 
ATOM     12  F   UNL     1       1.184  10.323  19.602  0.00  0.00    +0.000 F 
ATOM     13  C   UNL     1       1.972   8.725  18.060  0.00  0.00    +0.000 A 
ATOM     14  C   UNL     1       2.389   7.418  17.793  0.00  0.00    +0.000 A 
ENDBRANCH   4   8
BRANCH   1  16
ATOM     15  C   UNL     1       7.215   5.158  15.884  0.00  0.00    +0.000 C 
ATOM     16  C   UNL     1       6.907   5.381  17.368  0.00  0.00    +0.000 C 
BRANCH  16  17
ATOM     17  C   UNL     1       7.471   6.719  17.842  0.00  0.00    +0.000 A 
ATOM     18  C   UNL     1       8.323   6.840  18.940  0.00  0.00    +0.000 A 
ATOM     19  C   UNL     1       8.878   8.077  19.290  0.00  0.00    +0.000 A 
ATOM     20  C   UNL     1       8.626   9.248  18.552  0.00  0.00    +0.000 A 
ATOM     21  C   UNL     1       7.698   9.134  17.505  0.00  0.00    +0.000 A 
ATOM     22  C   UNL     1       7.122   7.899  17.164  0.00  0.00    +0.000 A 
BRANCH  20  23
ATOM     23  C   UNL     1       9.356  10.510  18.845  0.00  0.00    +0.000 A 
ATOM     24  C   UNL     1       9.902  11.276  17.788  0.00  0.00    +0.000 A 
ATOM     25  C   UNL     1      10.590  12.471  18.023  0.00  0.00    +0.000 A 
ATOM     26  C   UNL     1      10.731  12.935  19.321  0.00  0.00    +0.000 A 
ATOM     27  F   UNL     1      11.386  14.081  19.545  0.00  0.00    +0.000 F 
ATOM     28  C   UNL     1      10.197  12.227  20.385  0.00  0.00    +0.000 A 
ATOM     29  C   UNL     1       9.523  11.028  20.143  0.00  0.00    +0.000 A 
ATOM     30  F   UNL     1       9.041  10.373  21.210  0.00  0.00    +0.000 F 
ENDBRANCH  20  23
ENDBRANCH  16  17
ENDBRANCH   1  16
BRANCH   4  31
ATOM     31  C   UNL     1       1.555   4.056  18.852  0.00  0.00    +0.000 C 
BRANCH  31  32
ATOM     32  C   UNL     1       1.937   2.647  19.319  0.00  0.00    +0.000 C 
BRANCH  32  33
ATOM     33  N   UNL     1       1.194   2.254  20.500  0.00  0.00    +0.000 N 
ATOM     34  C   UNL     1       1.651   2.538  21.755  0.00  0.00    +0.000 C 
ATOM     35  N   UNL     1       0.742   2.239  22.715  0.00  0.00    +0.000 N 
ATOM     36  O   UNL     1       2.738   3.018  22.023  0.00  0.00    +0.000 OA
ATOM     37  H   UNL     1       0.201   2.091  20.402  0.00  0.00    +0.000 HD
ATOM     38  H   UNL     1       0.136   1.447  22.564  0.00  0.00    +0.000 HD
ATOM     39  H   UNL     1       1.097   2.340  23.657  0.00  0.00    +0.000 HD
ENDBRANCH  32  33
ENDBRANCH  31  32
ENDBRANCH   4  31
TORSDOF 7
ENDMDL
MODEL 4
REMARK VINA RESULT:      -9.0      0.930      1.634
REMARK  Name = 
REMARK  8 active torsions:
REMARK  status: ('A' for Active; 'I' for Inactive)
REMARK    1  A    between atoms: C_1  and  C_2
REMARK    2  A    between atoms: C_2  and  C_3
REMARK    3  A    between atoms: C_2  and  N_17
REMARK    4  A    between atoms: C_6  and  C_7
REMARK    5  A    between atoms: C_20  and  C_21
REMARK    6  A    between atoms: C_20  and  C_27
REMARK    7  A    between atoms: C_21  and  C_22
REMARK    8  A    between atoms: C_22  and  N_23
REMARK                            x       y       z     vdW  Elec       q    Type
REMARK                         _______ _______ _______ _____ _____    ______ ____
ROOT
ATOM      1  N   UNL     1       5.230   5.334  17.868  0.00  0.00    +0.000 N 
ATOM      2  C   UNL     1       4.042   5.425  17.034  0.00  0.00    +0.000 C 
ATOM      3  C   UNL     1       2.868   4.722  17.662  0.00  0.00    +0.000 C 
ATOM      4  C   UNL     1       2.674   5.253  19.081  0.00  0.00    +0.000 C 
ATOM      5  O   UNL     1       3.910   5.068  19.810  0.00  0.00    +0.000 OA
ATOM      6  C   UNL     1       5.149   5.242  19.255  0.00  0.00    +0.000 C 
ATOM      7  O   UNL     1       6.128   5.270  19.991  0.00  0.00    +0.000 OA
ENDROOT
BRANCH   4   8
ATOM      8  C   UNL     1       2.269   6.745  19.092  0.00  0.00    +0.000 A 
ATOM      9  C   UNL     1       2.399   7.533  17.930  0.00  0.00    +0.000 A 
ATOM     10  C   UNL     1       2.111   8.900  17.951  0.00  0.00    +0.000 A 
ATOM     11  C   UNL     1       1.691   9.498  19.130  0.00  0.00    +0.000 A 
ATOM     12  F   UNL     1       1.441  10.813  19.155  0.00  0.00    +0.000 F 
ATOM     13  C   UNL     1       1.528   8.748  20.285  0.00  0.00    +0.000 A 
ATOM     14  C   UNL     1       1.803   7.378  20.262  0.00  0.00    +0.000 A 
ENDBRANCH   4   8
BRANCH   1  16
ATOM     15  C   UNL     1       6.599   5.276  15.752  0.00  0.00    +0.000 C 
ATOM     16  C   UNL     1       6.574   5.508  17.266  0.00  0.00    +0.000 C 
BRANCH  16  17
ATOM     17  C   UNL     1       7.259   6.826  17.623  0.00  0.00    +0.000 A 
ATOM     18  C   UNL     1       6.945   8.037  17.007  0.00  0.00    +0.000 A 
ATOM     19  C   UNL     1       7.544   9.234  17.422  0.00  0.00    +0.000 A 
ATOM     20  C   UNL     1       8.468   9.282  18.481  0.00  0.00    +0.000 A 
ATOM     21  C   UNL     1       8.844   8.048  19.033  0.00  0.00    +0.000 A 
ATOM     22  C   UNL     1       8.262   6.843  18.606  0.00  0.00    +0.000 A 
BRANCH  20  23
ATOM     23  C   UNL     1       8.962  10.582  19.007  0.00  0.00    +0.000 A 
ATOM     24  C   UNL     1       9.664  10.631  20.235  0.00  0.00    +0.000 A 
ATOM     25  C   UNL     1      10.148  11.832  20.761  0.00  0.00    +0.000 A 
ATOM     26  C   UNL     1       9.957  13.011  20.058  0.00  0.00    +0.000 A 
ATOM     27  F   UNL     1      10.425  14.162  20.559  0.00  0.00    +0.000 F 
ATOM     28  C   UNL     1       9.293  13.009  18.843  0.00  0.00    +0.000 A 
ATOM     29  C   UNL     1       8.800  11.807  18.332  0.00  0.00    +0.000 A 
ATOM     30  F   UNL     1       8.148  11.863  17.160  0.00  0.00    +0.000 F 
ENDBRANCH  20  23
ENDBRANCH  16  17
ENDBRANCH   1  16
BRANCH   4  31
ATOM     31  C   UNL     1       1.580   4.420  19.811  0.00  0.00    +0.000 C 
BRANCH  31  32
ATOM     32  C   UNL     1       1.740   2.903  19.660  0.00  0.00    +0.000 C 
BRANCH  32  33
ATOM     33  N   UNL     1       2.999   2.439  20.206  0.00  0.00    +0.000 N 
ATOM     34  C   UNL     1       3.897   1.750  19.441  0.00  0.00    +0.000 C 
ATOM     35  N   UNL     1       5.075   1.552  20.080  0.00  0.00    +0.000 N 
ATOM     36  O   UNL     1       3.704   1.355  18.305  0.00  0.00    +0.000 OA
ATOM     37  H   UNL     1       3.365   2.912  21.022  0.00  0.00    +0.000 HD
ATOM     38  H   UNL     1       5.055   1.418  21.080  0.00  0.00    +0.000 HD
ATOM     39  H   UNL     1       5.715   0.952  19.575  0.00  0.00    +0.000 HD
ENDBRANCH  32  33
ENDBRANCH  31  32
ENDBRANCH   4  31
TORSDOF 7
ENDMDL
MODEL 5
REMARK VINA RESULT:      -9.0      1.294      1.687
REMARK  Name = 
REMARK  8 active torsions:
REMARK  status: ('A' for Active; 'I' for Inactive)
REMARK    1  A    between atoms: C_1  and  C_2
REMARK    2  A    between atoms: C_2  and  C_3
REMARK    3  A    between atoms: C_2  and  N_17
REMARK    4  A    between atoms: C_6  and  C_7
REMARK    5  A    between atoms: C_20  and  C_21
REMARK    6  A    between atoms: C_20  and  C_27
REMARK    7  A    between atoms: C_21  and  C_22
REMARK    8  A    between atoms: C_22  and  N_23
REMARK                            x       y       z     vdW  Elec       q    Type
REMARK                         _______ _______ _______ _____ _____    ______ ____
ROOT
ATOM      1  N   UNL     1       5.616   5.117  17.554  0.00  0.00    +0.000 N 
ATOM      2  C   UNL     1       4.644   5.584  16.577  0.00  0.00    +0.000 C 
ATOM      3  C   UNL     1       3.354   4.814  16.668  0.00  0.00    +0.000 C 
ATOM      4  C   UNL     1       2.854   4.852  18.110  0.00  0.00    +0.000 C 
ATOM      5  O   UNL     1       3.895   4.329  18.967  0.00  0.00    +0.000 OA
ATOM      6  C   UNL     1       5.228   4.573  18.775  0.00  0.00    +0.000 C 
ATOM      7  O   UNL     1       6.018   4.268  19.660  0.00  0.00    +0.000 OA
ENDROOT
BRANCH   4   8
ATOM      8  C   UNL     1       2.470   6.283  18.553  0.00  0.00    +0.000 A 
ATOM      9  C   UNL     1       2.221   6.573  19.910  0.00  0.00    +0.000 A 
ATOM     10  C   UNL     1       1.796   7.843  20.309  0.00  0.00    +0.000 A 
ATOM     11  C   UNL     1       1.614   8.839  19.361  0.00  0.00    +0.000 A 
ATOM     12  F   UNL     1       1.181  10.047  19.741  0.00  0.00    +0.000 F 
ATOM     13  C   UNL     1       1.874   8.595  18.020  0.00  0.00    +0.000 A 
ATOM     14  C   UNL     1       2.311   7.329  17.621  0.00  0.00    +0.000 A 
ENDBRANCH   4   8
BRANCH   1  16
ATOM     15  C   UNL     1       7.529   5.063  15.913  0.00  0.00    +0.000 C 
ATOM     16  C   UNL     1       7.061   5.367  17.340  0.00  0.00    +0.000 C 
BRANCH  16  17
ATOM     17  C   UNL     1       7.534   6.752  17.780  0.00  0.00    +0.000 A 
ATOM     18  C   UNL     1       8.346   6.960  18.895  0.00  0.00    +0.000 A 
ATOM     19  C   UNL     1       8.819   8.239  19.214  0.00  0.00    +0.000 A 
ATOM     20  C   UNL     1       8.522   9.367  18.428  0.00  0.00    +0.000 A 
ATOM     21  C   UNL     1       7.633   9.162  17.361  0.00  0.00    +0.000 A 
ATOM     22  C   UNL     1       7.139   7.885  17.050  0.00  0.00    +0.000 A 
BRANCH  20  23
ATOM     23  C   UNL     1       9.170  10.678  18.695  0.00  0.00    +0.000 A 
ATOM     24  C   UNL     1      10.215  10.774  19.644  0.00  0.00    +0.000 A 
ATOM     25  C   UNL     1      10.852  11.988  19.920  0.00  0.00    +0.000 A 
ATOM     26  C   UNL     1      10.470  13.130  19.235  0.00  0.00    +0.000 A 
ATOM     27  F   UNL     1      11.083  14.292  19.496  0.00  0.00    +0.000 F 
ATOM     28  C   UNL     1       9.465  13.081  18.284  0.00  0.00    +0.000 A 
ATOM     29  C   UNL     1       8.824  11.867  18.026  0.00  0.00    +0.000 A 
ATOM     30  F   UNL     1       7.845  11.877  17.108  0.00  0.00    +0.000 F 
ENDBRANCH  20  23
ENDBRANCH  16  17
ENDBRANCH   1  16
BRANCH   4  31
ATOM     31  C   UNL     1       1.617   3.919  18.265  0.00  0.00    +0.000 C 
BRANCH  31  32
ATOM     32  C   UNL     1       1.965   2.461  18.585  0.00  0.00    +0.000 C 
BRANCH  32  33
ATOM     33  N   UNL     1       2.281   2.280  19.987  0.00  0.00    +0.000 N 
ATOM     34  C   UNL     1       1.515   2.843  20.968  0.00  0.00    +0.000 C 
ATOM     35  N   UNL     1       1.872   2.423  22.206  0.00  0.00    +0.000 N 
ATOM     36  O   UNL     1       0.598   3.625  20.790  0.00  0.00    +0.000 OA
ATOM     37  H   UNL     1       2.836   1.476  20.248  0.00  0.00    +0.000 HD
ATOM     38  H   UNL     1       2.846   2.224  22.376  0.00  0.00    +0.000 HD
ATOM     39  H   UNL     1       1.391   2.907  22.953  0.00  0.00    +0.000 HD
ENDBRANCH  32  33
ENDBRANCH  31  32
ENDBRANCH   4  31
TORSDOF 7
ENDMDL
MODEL 6
REMARK VINA RESULT:      -8.9      1.342      1.926
REMARK  Name = 
REMARK  8 active torsions:
REMARK  status: ('A' for Active; 'I' for Inactive)
REMARK    1  A    between atoms: C_1  and  C_2
REMARK    2  A    between atoms: C_2  and  C_3
REMARK    3  A    between atoms: C_2  and  N_17
REMARK    4  A    between atoms: C_6  and  C_7
REMARK    5  A    between atoms: C_20  and  C_21
REMARK    6  A    between atoms: C_20  and  C_27
REMARK    7  A    between atoms: C_21  and  C_22
REMARK    8  A    between atoms: C_22  and  N_23
REMARK                            x       y       z     vdW  Elec       q    Type
REMARK                         _______ _______ _______ _____ _____    ______ ____
ROOT
ATOM      1  N   UNL     1       5.575   4.955  17.354  0.00  0.00    +0.000 N 
ATOM      2  C   UNL     1       4.582   5.427  16.401  0.00  0.00    +0.000 C 
ATOM      3  C   UNL     1       3.306   4.633  16.492  0.00  0.00    +0.000 C 
ATOM      4  C   UNL     1       2.826   4.631  17.941  0.00  0.00    +0.000 C 
ATOM      5  O   UNL     1       3.887   4.106  18.772  0.00  0.00    +0.000 OA
ATOM      6  C   UNL     1       5.213   4.377  18.567  0.00  0.00    +0.000 C 
ATOM      7  O   UNL     1       6.021   4.066  19.434  0.00  0.00    +0.000 OA
ENDROOT
BRANCH   4   8
ATOM      8  C   UNL     1       2.425   6.044  18.422  0.00  0.00    +0.000 A 
ATOM      9  C   UNL     1       2.315   7.110  17.505  0.00  0.00    +0.000 A 
ATOM     10  C   UNL     1       2.031   8.408  17.940  0.00  0.00    +0.000 A 
ATOM     11  C   UNL     1       1.854   8.658  19.293  0.00  0.00    +0.000 A 
ATOM     12  F   UNL     1       1.609   9.906  19.711  0.00  0.00    +0.000 F 
ATOM     13  C   UNL     1       1.930   7.628  20.220  0.00  0.00    +0.000 A 
ATOM     14  C   UNL     1       2.201   6.328  19.785  0.00  0.00    +0.000 A 
ENDBRANCH   4   8
BRANCH   1  16
ATOM     15  C   UNL     1       7.425   5.153  15.653  0.00  0.00    +0.000 C 
ATOM     16  C   UNL     1       7.013   5.235  17.126  0.00  0.00    +0.000 C 
BRANCH  16  17
ATOM     17  C   UNL     1       7.511   6.535  17.755  0.00  0.00    +0.000 A 
ATOM     18  C   UNL     1       8.250   6.575  18.937  0.00  0.00    +0.000 A 
ATOM     19  C   UNL     1       8.752   7.785  19.433  0.00  0.00    +0.000 A 
ATOM     20  C   UNL     1       8.558   9.008  18.766  0.00  0.00    +0.000 A 
ATOM     21  C   UNL     1       7.738   8.970  17.627  0.00  0.00    +0.000 A 
ATOM     22  C   UNL     1       7.215   7.762  17.137  0.00  0.00    +0.000 A 
BRANCH  20  23
ATOM     23  C   UNL     1       9.239  10.247  19.226  0.00  0.00    +0.000 A 
ATOM     24  C   UNL     1       9.089  10.685  20.563  0.00  0.00    +0.000 A 
ATOM     25  C   UNL     1       9.717  11.842  21.035  0.00  0.00    +0.000 A 
ATOM     26  C   UNL     1      10.525  12.576  20.182  0.00  0.00    +0.000 A 
ATOM     27  F   UNL     1      11.130  13.682  20.635  0.00  0.00    +0.000 F 
ATOM     28  C   UNL     1      10.716  12.175  18.870  0.00  0.00    +0.000 A 
ATOM     29  C   UNL     1      10.074  11.026  18.404  0.00  0.00    +0.000 A 
ATOM     30  F   UNL     1      10.277  10.692  17.120  0.00  0.00    +0.000 F 
ENDBRANCH  20  23
ENDBRANCH  16  17
ENDBRANCH   1  16
BRANCH   4  31
ATOM     31  C   UNL     1       1.607   3.673  18.091  0.00  0.00    +0.000 C 
BRANCH  31  32
ATOM     32  C   UNL     1       1.910   2.386  18.866  0.00  0.00    +0.000 C 
BRANCH  32  33
ATOM     33  N   UNL     1       1.322   2.406  20.189  0.00  0.00    +0.000 N 
ATOM     34  C   UNL     1       2.090   2.567  21.308  0.00  0.00    +0.000 C 
ATOM     35  N   UNL     1       1.343   2.724  22.427  0.00  0.00    +0.000 N 
ATOM     36  O   UNL     1       3.307   2.588  21.335  0.00  0.00    +0.000 OA
ATOM     37  H   UNL     1       0.344   2.648  20.270  0.00  0.00    +0.000 HD
ATOM     38  H   UNL     1       0.464   2.233  22.484  0.00  0.00    +0.000 HD
ATOM     39  H   UNL     1       1.888   2.739  23.280  0.00  0.00    +0.000 HD
ENDBRANCH  32  33
ENDBRANCH  31  32
ENDBRANCH   4  31
TORSDOF 7
ENDMDL
MODEL 7
REMARK VINA RESULT:      -8.8      0.842      1.408
REMARK  Name = 
REMARK  8 active torsions:
REMARK  status: ('A' for Active; 'I' for Inactive)
REMARK    1  A    between atoms: C_1  and  C_2
REMARK    2  A    between atoms: C_2  and  C_3
REMARK    3  A    between atoms: C_2  and  N_17
REMARK    4  A    between atoms: C_6  and  C_7
REMARK    5  A    between atoms: C_20  and  C_21
REMARK    6  A    between atoms: C_20  and  C_27
REMARK    7  A    between atoms: C_21  and  C_22
REMARK    8  A    between atoms: C_22  and  N_23
REMARK                            x       y       z     vdW  Elec       q    Type
REMARK                         _______ _______ _______ _____ _____    ______ ____
ROOT
ATOM      1  N   UNL     1       5.378   5.346  17.921  0.00  0.00    +0.000 N 
ATOM      2  C   UNL     1       4.228   5.439  17.034  0.00  0.00    +0.000 C 
ATOM      3  C   UNL     1       3.030   4.729  17.604  0.00  0.00    +0.000 C 
ATOM      4  C   UNL     1       2.771   5.249  19.017  0.00  0.00    +0.000 C 
ATOM      5  O   UNL     1       3.973   5.063  19.799  0.00  0.00    +0.000 OA
ATOM      6  C   UNL     1       5.235   5.245  19.302  0.00  0.00    +0.000 C 
ATOM      7  O   UNL     1       6.180   5.270  20.082  0.00  0.00    +0.000 OA
ENDROOT
BRANCH   4   8
ATOM      8  C   UNL     1       2.360   6.740  19.019  0.00  0.00    +0.000 A 
ATOM      9  C   UNL     1       2.506   7.527  17.858  0.00  0.00    +0.000 A 
ATOM     10  C   UNL     1       2.213   8.893  17.873  0.00  0.00    +0.000 A 
ATOM     11  C   UNL     1       1.773   9.491  19.045  0.00  0.00    +0.000 A 
ATOM     12  F   UNL     1       1.519  10.806  19.064  0.00  0.00    +0.000 F 
ATOM     13  C   UNL     1       1.595   8.742  20.198  0.00  0.00    +0.000 A 
ATOM     14  C   UNL     1       1.874   7.373  20.181  0.00  0.00    +0.000 A 
ENDBRANCH   4   8
BRANCH   1  16
ATOM     15  C   UNL     1       6.872   5.168  15.897  0.00  0.00    +0.000 C 
ATOM     16  C   UNL     1       6.747   5.528  17.381  0.00  0.00    +0.000 C 
BRANCH  16  17
ATOM     17  C   UNL     1       7.357   6.902  17.657  0.00  0.00    +0.000 A 
ATOM     18  C   UNL     1       6.943   8.063  17.005  0.00  0.00    +0.000 A 
ATOM     19  C   UNL     1       7.476   9.312  17.348  0.00  0.00    +0.000 A 
ATOM     20  C   UNL     1       8.432   9.465  18.368  0.00  0.00    +0.000 A 
ATOM     21  C   UNL     1       8.907   8.282  18.956  0.00  0.00    +0.000 A 
ATOM     22  C   UNL     1       8.391   7.026  18.601  0.00  0.00    +0.000 A 
BRANCH  20  23
ATOM     23  C   UNL     1       8.858  10.815  18.822  0.00  0.00    +0.000 A 
ATOM     24  C   UNL     1       8.887  11.895  17.908  0.00  0.00    +0.000 A 
ATOM     25  C   UNL     1       9.276  13.181  18.297  0.00  0.00    +0.000 A 
ATOM     26  C   UNL     1       9.627  13.418  19.616  0.00  0.00    +0.000 A 
ATOM     27  F   UNL     1       9.996  14.650  19.989  0.00  0.00    +0.000 F 
ATOM     28  C   UNL     1       9.595  12.396  20.550  0.00  0.00    +0.000 A 
ATOM     29  C   UNL     1       9.219  11.112  20.149  0.00  0.00    +0.000 A 
ATOM     30  F   UNL     1       9.222  10.154  21.089  0.00  0.00    +0.000 F 
ENDBRANCH  20  23
ENDBRANCH  16  17
ENDBRANCH   1  16
BRANCH   4  31
ATOM     31  C   UNL     1       1.647   4.408  19.690  0.00  0.00    +0.000 C 
BRANCH  31  32
ATOM     32  C   UNL     1       2.131   3.088  20.301  0.00  0.00    +0.000 C 
BRANCH  32  33
ATOM     33  N   UNL     1       2.642   2.184  19.291  0.00  0.00    +0.000 N 
ATOM     34  C   UNL     1       3.899   1.658  19.375  0.00  0.00    +0.000 C 
ATOM     35  N   UNL     1       4.128   0.713  18.431  0.00  0.00    +0.000 N 
ATOM     36  O   UNL     1       4.742   1.965  20.199  0.00  0.00    +0.000 OA
ATOM     37  H   UNL     1       1.972   1.676  18.727  0.00  0.00    +0.000 HD
ATOM     38  H   UNL     1       3.686   0.825  17.531  0.00  0.00    +0.000 HD
ATOM     39  H   UNL     1       5.085   0.386  18.407  0.00  0.00    +0.000 HD
ENDBRANCH  32  33
ENDBRANCH  31  32
ENDBRANCH   4  31
TORSDOF 7
ENDMDL
MODEL 8
REMARK VINA RESULT:      -8.6      1.305      1.756
REMARK  Name = 
REMARK  8 active torsions:
REMARK  status: ('A' for Active; 'I' for Inactive)
REMARK    1  A    between atoms: C_1  and  C_2
REMARK    2  A    between atoms: C_2  and  C_3
REMARK    3  A    between atoms: C_2  and  N_17
REMARK    4  A    between atoms: C_6  and  C_7
REMARK    5  A    between atoms: C_20  and  C_21
REMARK    6  A    between atoms: C_20  and  C_27
REMARK    7  A    between atoms: C_21  and  C_22
REMARK    8  A    between atoms: C_22  and  N_23
REMARK                            x       y       z     vdW  Elec       q    Type
REMARK                         _______ _______ _______ _____ _____    ______ ____
ROOT
ATOM      1  N   UNL     1       5.617   5.032  17.849  0.00  0.00    +0.000 N 
ATOM      2  C   UNL     1       4.691   5.436  16.802  0.00  0.00    +0.000 C 
ATOM      3  C   UNL     1       3.411   4.647  16.861  0.00  0.00    +0.000 C 
ATOM      4  C   UNL     1       2.834   4.741  18.273  0.00  0.00    +0.000 C 
ATOM      5  O   UNL     1       3.837   4.277  19.206  0.00  0.00    +0.000 OA
ATOM      6  C   UNL     1       5.174   4.537  19.072  0.00  0.00    +0.000 C 
ATOM      7  O   UNL     1       5.922   4.288  20.010  0.00  0.00    +0.000 OA
ENDROOT
BRANCH   4   8
ATOM      8  C   UNL     1       2.405   6.183  18.628  0.00  0.00    +0.000 A 
ATOM      9  C   UNL     1       2.307   7.171  17.627  0.00  0.00    +0.000 A 
ATOM     10  C   UNL     1       1.997   8.495  17.949  0.00  0.00    +0.000 A 
ATOM     11  C   UNL     1       1.781   8.850  19.272  0.00  0.00    +0.000 A 
ATOM     12  F   UNL     1       1.511  10.125  19.582  0.00  0.00    +0.000 F 
ATOM     13  C   UNL     1       1.845   7.899  20.280  0.00  0.00    +0.000 A 
ATOM     14  C   UNL     1       2.141   6.572  19.958  0.00  0.00    +0.000 A 
ENDBRANCH   4   8
BRANCH   1  16
ATOM     15  C   UNL     1       7.647   4.803  16.371  0.00  0.00    +0.000 C 
ATOM     16  C   UNL     1       7.068   5.300  17.699  0.00  0.00    +0.000 C 
BRANCH  16  17
ATOM     17  C   UNL     1       7.472   6.751  17.956  0.00  0.00    +0.000 A 
ATOM     18  C   UNL     1       8.376   7.125  18.950  0.00  0.00    +0.000 A 
ATOM     19  C   UNL     1       8.776   8.459  19.097  0.00  0.00    +0.000 A 
ATOM     20  C   UNL     1       8.311   9.479  18.248  0.00  0.00    +0.000 A 
ATOM     21  C   UNL     1       7.335   9.108  17.309  0.00  0.00    +0.000 A 
ATOM     22  C   UNL     1       6.915   7.776  17.173  0.00  0.00    +0.000 A 
BRANCH  20  23
ATOM     23  C   UNL     1       8.876  10.852  18.320  0.00  0.00    +0.000 A 
ATOM     24  C   UNL     1       8.323  11.890  17.533  0.00  0.00    +0.000 A 
ATOM     25  C   UNL     1       8.823  13.195  17.576  0.00  0.00    +0.000 A 
ATOM     26  C   UNL     1       9.878  13.495  18.424  0.00  0.00    +0.000 A 
ATOM     27  F   UNL     1      10.354  14.746  18.469  0.00  0.00    +0.000 F 
ATOM     28  C   UNL     1      10.439  12.515  19.227  0.00  0.00    +0.000 A 
ATOM     29  C   UNL     1       9.942  11.211  19.166  0.00  0.00    +0.000 A 
ATOM     30  F   UNL     1      10.533  10.296  19.951  0.00  0.00    +0.000 F 
ENDBRANCH  20  23
ENDBRANCH  16  17
ENDBRANCH   1  16
BRANCH   4  31
ATOM     31  C   UNL     1       1.607   3.793  18.405  0.00  0.00    +0.000 C 
BRANCH  31  32
ATOM     32  C   UNL     1       1.903   2.480  19.137  0.00  0.00    +0.000 C 
BRANCH  32  33
ATOM     33  N   UNL     1       1.156   2.374  20.374  0.00  0.00    +0.000 N 
ATOM     34  C   UNL     1       1.775   2.448  21.589  0.00  0.00    +0.000 C 
ATOM     35  N   UNL     1       0.892   2.496  22.616  0.00  0.00    +0.000 N 
ATOM     36  O   UNL     1       2.979   2.484  21.770  0.00  0.00    +0.000 OA
ATOM     37  H   UNL     1       0.169   2.595  20.351  0.00  0.00    +0.000 HD
ATOM     38  H   UNL     1       0.025   1.989  22.520  0.00  0.00    +0.000 HD
ATOM     39  H   UNL     1       1.327   2.443  23.528  0.00  0.00    +0.000 HD
ENDBRANCH  32  33
ENDBRANCH  31  32
ENDBRANCH   4  31
TORSDOF 7
ENDMDL
MODEL 9
REMARK VINA RESULT:      -8.5      0.975      1.478
REMARK  Name = 
REMARK  8 active torsions:
REMARK  status: ('A' for Active; 'I' for Inactive)
REMARK    1  A    between atoms: C_1  and  C_2
REMARK    2  A    between atoms: C_2  and  C_3
REMARK    3  A    between atoms: C_2  and  N_17
REMARK    4  A    between atoms: C_6  and  C_7
REMARK    5  A    between atoms: C_20  and  C_21
REMARK    6  A    between atoms: C_20  and  C_27
REMARK    7  A    between atoms: C_21  and  C_22
REMARK    8  A    between atoms: C_22  and  N_23
REMARK                            x       y       z     vdW  Elec       q    Type
REMARK                         _______ _______ _______ _____ _____    ______ ____
ROOT
ATOM      1  N   UNL     1       5.611   5.500  17.767  0.00  0.00    +0.000 N 
ATOM      2  C   UNL     1       4.489   5.643  16.853  0.00  0.00    +0.000 C 
ATOM      3  C   UNL     1       3.310   4.813  17.290  0.00  0.00    +0.000 C 
ATOM      4  C   UNL     1       2.977   5.150  18.742  0.00  0.00    +0.000 C 
ATOM      5  O   UNL     1       4.161   4.931  19.543  0.00  0.00    +0.000 OA
ATOM      6  C   UNL     1       5.428   5.230  19.121  0.00  0.00    +0.000 C 
ATOM      7  O   UNL     1       6.343   5.209  19.935  0.00  0.00    +0.000 OA
ENDROOT
BRANCH   4   8
ATOM      8  C   UNL     1       2.491   6.609  18.901  0.00  0.00    +0.000 A 
ATOM      9  C   UNL     1       2.526   7.502  17.810  0.00  0.00    +0.000 A 
ATOM     10  C   UNL     1       2.164   8.842  17.964  0.00  0.00    +0.000 A 
ATOM     11  C   UNL     1       1.762   9.310  19.207  0.00  0.00    +0.000 A 
ATOM     12  F   UNL     1       1.441  10.601  19.359  0.00  0.00    +0.000 F 
ATOM     13  C   UNL     1       1.692   8.454  20.296  0.00  0.00    +0.000 A 
ATOM     14  C   UNL     1       2.041   7.110  20.141  0.00  0.00    +0.000 A 
ENDBRANCH   4   8
BRANCH   1  16
ATOM     15  C   UNL     1       7.148   5.753  15.784  0.00  0.00    +0.000 C 
ATOM     16  C   UNL     1       6.986   5.810  17.307  0.00  0.00    +0.000 C 
BRANCH  16  17
ATOM     17  C   UNL     1       7.560   7.112  17.863  0.00  0.00    +0.000 A 
ATOM     18  C   UNL     1       8.442   7.155  18.942  0.00  0.00    +0.000 A 
ATOM     19  C   UNL     1       9.004   8.365  19.368  0.00  0.00    +0.000 A 
ATOM     20  C   UNL     1       8.729   9.586  18.726  0.00  0.00    +0.000 A 
ATOM     21  C   UNL     1       7.772   9.546  17.699  0.00  0.00    +0.000 A 
ATOM     22  C   UNL     1       7.190   8.337  17.284  0.00  0.00    +0.000 A 
BRANCH  20  23
ATOM     23  C   UNL     1       9.463  10.826  19.092  0.00  0.00    +0.000 A 
ATOM     24  C   UNL     1       9.199  11.471  20.323  0.00  0.00    +0.000 A 
ATOM     25  C   UNL     1       9.871  12.636  20.705  0.00  0.00    +0.000 A 
ATOM     26  C   UNL     1      10.840  13.170  19.870  0.00  0.00    +0.000 A 
ATOM     27  F   UNL     1      11.488  14.283  20.238  0.00  0.00    +0.000 F 
ATOM     28  C   UNL     1      11.146  12.562  18.664  0.00  0.00    +0.000 A 
ATOM     29  C   UNL     1      10.458  11.408  18.284  0.00  0.00    +0.000 A 
ATOM     30  F   UNL     1      10.780  10.869  17.098  0.00  0.00    +0.000 F 
ENDBRANCH  20  23
ENDBRANCH  16  17
ENDBRANCH   1  16
BRANCH   4  31
ATOM     31  C   UNL     1       1.878   4.183  19.269  0.00  0.00    +0.000 C 
BRANCH  31  32
ATOM     32  C   UNL     1       2.347   3.247  20.388  0.00  0.00    +0.000 C 
BRANCH  32  33
ATOM     33  N   UNL     1       3.336   2.300  19.916  0.00  0.00    +0.000 N 
ATOM     34  C   UNL     1       3.130   1.556  18.789  0.00  0.00    +0.000 C 
ATOM     35  N   UNL     1       4.231   0.858  18.423  0.00  0.00    +0.000 N 
ATOM     36  O   UNL     1       2.094   1.511  18.151  0.00  0.00    +0.000 OA
ATOM     37  H   UNL     1       4.297   2.435  20.202  0.00  0.00    +0.000 HD
ATOM     38  H   UNL     1       4.839   0.514  19.151  0.00  0.00    +0.000 HD
ATOM     39  H   UNL     1       4.070   0.218  17.655  0.00  0.00    +0.000 HD
ENDBRANCH  32  33
ENDBRANCH  31  32
ENDBRANCH   4  31
TORSDOF 7
ENDMDL
