MODEL 1
REMARK VINA RESULT:      -8.2      0.000      0.000
REMARK  Name = 
REMARK  9 active torsions:
REMARK  status: ('A' for Active; 'I' for Inactive)
REMARK    1  A    between atoms: C_1  and  O_2
REMARK    2  A    between atoms: O_2  and  C_3
REMARK    3  A    between atoms: C_3  and  C_4
REMARK    4  A    between atoms: C_11  and  C_12
REMARK    5  A    between atoms: C_15  and  N_16
REMARK    6  A    between atoms: N_16  and  C_17
REMARK    7  A    between atoms: C_17  and  C_18
REMARK    8  A    between atoms: C_21  and  S_22
REMARK    9  A    between atoms: S_22  and  C_23
REMARK                            x       y       z     vdW  Elec       q    Type
REMARK                         _______ _______ _______ _____ _____    ______ ____
ROOT
ATOM      1  C   UNL     1       2.474   6.143  19.530  0.00  0.00    +0.000 A 
ATOM      2  C   UNL     1       2.449   6.989  18.407  0.00  0.00    +0.000 A 
ATOM      3  C   UNL     1       2.005   8.319  18.481  0.00  0.00    +0.000 A 
ATOM      4  C   UNL     1       1.458   8.834  19.654  0.00  0.00    +0.000 A 
ATOM      5  C   UNL     1       1.443   7.999  20.769  0.00  0.00    +0.000 A 
ATOM      6  C   UNL     1       1.970   6.699  20.715  0.00  0.00    +0.000 A 
ENDROOT
BRANCH   1  14
ATOM      7  C   UNL     1       4.430   4.491  19.266  0.00  0.00    +0.000 A 
ATOM      8  N   UNL     1       4.917   3.221  19.172  0.00  0.00    +0.000 NA
ATOM      9  C   UNL     1       4.066   2.215  19.318  0.00  0.00    +0.000 A 
ATOM     10  N   UNL     1       4.579   0.934  19.273  0.00  0.00    +0.000 N 
ATOM     11  N   UNL     1       2.772   2.355  19.558  0.00  0.00    +0.000 NA
ATOM     12  C   UNL     1       2.293   3.608  19.613  0.00  0.00    +0.000 A 
ATOM     13  N   UNL     1       0.915   3.635  19.860  0.00  0.00    +0.000 N 
ATOM     14  C   UNL     1       3.071   4.773  19.473  0.00  0.00    +0.000 A 
ATOM     15  H   UNL     1       5.556   0.963  19.527  0.00  0.00    +0.000 HD
ATOM     16  H   UNL     1       3.984   0.326  19.818  0.00  0.00    +0.000 HD
ATOM     17  H   UNL     1       0.588   2.673  19.860  0.00  0.00    +0.000 HD
ATOM     18  H   UNL     1       0.423   4.215  19.189  0.00  0.00    +0.000 HD
BRANCH   7  19
ATOM     19  C   UNL     1       5.519   5.533  19.136  0.00  0.00    +0.000 C 
BRANCH  19  21
ATOM     20  C   UNL     1       7.863   5.730  19.262  0.00  0.00    +0.000 C 
ATOM     21  O   UNL     1       6.702   5.140  19.827  0.00  0.00    +0.000 OA
ENDBRANCH  19  21
ENDBRANCH   7  19
ENDBRANCH   1  14
BRANCH   4  22
ATOM     22  N   UNL     1       1.081  10.175  19.703  0.00  0.00    +0.000 N 
ATOM     23  H   UNL     1       1.715  10.752  20.248  0.00  0.00    +0.000 HD
BRANCH  22  24
ATOM     24  C   UNL     1       0.633  10.848  18.490  0.00  0.00    +0.000 C 
BRANCH  24  25
ATOM     25  C   UNL     1      -0.873  10.987  18.450  0.00  0.00    +0.000 A 
ATOM     26  C   UNL     1      -1.485  12.017  19.185  0.00  0.00    +0.000 A 
ATOM     27  C   UNL     1      -2.867  12.200  19.142  0.00  0.00    +0.000 A 
ATOM     28  C   UNL     1      -3.648  11.365  18.340  0.00  0.00    +0.000 A 
ATOM     29  C   UNL     1      -3.063  10.335  17.602  0.00  0.00    +0.000 A 
ATOM     30  C   UNL     1      -1.679  10.157  17.652  0.00  0.00    +0.000 A 
BRANCH  28  31
ATOM     31  S   UNL     1      -5.407  11.595  18.283  0.00  0.00    +0.000 S 
ATOM     32  C   UNL     1      -5.734  12.570  19.730  0.00  0.00    +0.000 C 
ATOM     33  O   UNL     1      -5.711  12.404  17.118  0.00  0.00    +0.000 OA
ATOM     34  O   UNL     1      -6.024  10.295  18.473  0.00  0.00    +0.000 OA
ENDBRANCH  28  31
ENDBRANCH  24  25
ENDBRANCH  22  24
ENDBRANCH   4  22
TORSDOF 7
ENDMDL
MODEL 2
REMARK VINA RESULT:      -8.2      0.587      1.389
REMARK  Name = 
REMARK  9 active torsions:
REMARK  status: ('A' for Active; 'I' for Inactive)
REMARK    1  A    between atoms: C_1  and  O_2
REMARK    2  A    between atoms: O_2  and  C_3
REMARK    3  A    between atoms: C_3  and  C_4
REMARK    4  A    between atoms: C_11  and  C_12
REMARK    5  A    between atoms: C_15  and  N_16
REMARK    6  A    between atoms: N_16  and  C_17
REMARK    7  A    between atoms: C_17  and  C_18
REMARK    8  A    between atoms: C_21  and  S_22
REMARK    9  A    between atoms: S_22  and  C_23
REMARK                            x       y       z     vdW  Elec       q    Type
REMARK                         _______ _______ _______ _____ _____    ______ ____
ROOT
ATOM      1  C   UNL     1       2.460   6.043  19.286  0.00  0.00    +0.000 A 
ATOM      2  C   UNL     1       2.046   6.518  20.543  0.00  0.00    +0.000 A 
ATOM      3  C   UNL     1       1.523   7.809  20.721  0.00  0.00    +0.000 A 
ATOM      4  C   UNL     1       1.496   8.728  19.675  0.00  0.00    +0.000 A 
ATOM      5  C   UNL     1       1.935   8.286  18.428  0.00  0.00    +0.000 A 
ATOM      6  C   UNL     1       2.373   6.967  18.233  0.00  0.00    +0.000 A 
ENDROOT
BRANCH   1  14
ATOM      7  C   UNL     1       4.176   4.219  18.689  0.00  0.00    +0.000 A 
ATOM      8  N   UNL     1       4.504   2.915  18.466  0.00  0.00    +0.000 NA
ATOM      9  C   UNL     1       3.570   1.994  18.662  0.00  0.00    +0.000 A 
ATOM     10  N   UNL     1       3.928   0.674  18.483  0.00  0.00    +0.000 N 
ATOM     11  N   UNL     1       2.337   2.251  19.069  0.00  0.00    +0.000 NA
ATOM     12  C   UNL     1       2.010   3.541  19.252  0.00  0.00    +0.000 A 
ATOM     13  N   UNL     1       0.683   3.693  19.671  0.00  0.00    +0.000 N 
ATOM     14  C   UNL     1       2.890   4.626  19.080  0.00  0.00    +0.000 A 
ATOM     15  H   UNL     1       4.926   0.584  18.613  0.00  0.00    +0.000 HD
ATOM     16  H   UNL     1       3.339   0.095  19.064  0.00  0.00    +0.000 HD
ATOM     17  H   UNL     1       0.253   2.772  19.659  0.00  0.00    +0.000 HD
ATOM     18  H   UNL     1       0.182   4.365  19.100  0.00  0.00    +0.000 HD
BRANCH   7  19
ATOM     19  C   UNL     1       5.350   5.150  18.480  0.00  0.00    +0.000 C 
BRANCH  19  21
ATOM     20  C   UNL     1       7.558   4.738  17.770  0.00  0.00    +0.000 C 
ATOM     21  O   UNL     1       6.585   4.503  18.777  0.00  0.00    +0.000 OA
ENDBRANCH  19  21
ENDBRANCH   7  19
ENDBRANCH   1  14
BRANCH   4  22
ATOM     22  N   UNL     1       0.918   9.980  19.877  0.00  0.00    +0.000 N 
ATOM     23  H   UNL     1       1.345  10.504  20.635  0.00  0.00    +0.000 HD
BRANCH  22  24
ATOM     24  C   UNL     1       0.605  10.827  18.733  0.00  0.00    +0.000 C 
BRANCH  24  25
ATOM     25  C   UNL     1      -0.884  11.063  18.599  0.00  0.00    +0.000 A 
ATOM     26  C   UNL     1      -1.648  10.182  17.816  0.00  0.00    +0.000 A 
ATOM     27  C   UNL     1      -3.029  10.345  17.700  0.00  0.00    +0.000 A 
ATOM     28  C   UNL     1      -3.660  11.381  18.391  0.00  0.00    +0.000 A 
ATOM     29  C   UNL     1      -2.922  12.269  19.174  0.00  0.00    +0.000 A 
ATOM     30  C   UNL     1      -1.541  12.100  19.284  0.00  0.00    +0.000 A 
BRANCH  28  31
ATOM     31  S   UNL     1      -5.417  11.591  18.245  0.00  0.00    +0.000 S 
ATOM     32  C   UNL     1      -5.811  12.654  19.611  0.00  0.00    +0.000 C 
ATOM     33  O   UNL     1      -5.675  12.321  17.019  0.00  0.00    +0.000 OA
ATOM     34  O   UNL     1      -6.034  10.301  18.492  0.00  0.00    +0.000 OA
ENDBRANCH  28  31
ENDBRANCH  24  25
ENDBRANCH  22  24
ENDBRANCH   4  22
TORSDOF 7
ENDMDL
MODEL 3
REMARK VINA RESULT:      -8.2      2.419      2.731
REMARK  Name = 
REMARK  9 active torsions:
REMARK  status: ('A' for Active; 'I' for Inactive)
REMARK    1  A    between atoms: C_1  and  O_2
REMARK    2  A    between atoms: O_2  and  C_3
REMARK    3  A    between atoms: C_3  and  C_4
REMARK    4  A    between atoms: C_11  and  C_12
REMARK    5  A    between atoms: C_15  and  N_16
REMARK    6  A    between atoms: N_16  and  C_17
REMARK    7  A    between atoms: C_17  and  C_18
REMARK    8  A    between atoms: C_21  and  S_22
REMARK    9  A    between atoms: S_22  and  C_23
REMARK                            x       y       z     vdW  Elec       q    Type
REMARK                         _______ _______ _______ _____ _____    ______ ____
ROOT
ATOM      1  C   UNL     1       2.507   6.260  19.520  0.00  0.00    +0.000 A 
ATOM      2  C   UNL     1       2.452   7.014  18.335  0.00  0.00    +0.000 A 
ATOM      3  C   UNL     1       1.944   8.323  18.303  0.00  0.00    +0.000 A 
ATOM      4  C   UNL     1       1.361   8.899  19.430  0.00  0.00    +0.000 A 
ATOM      5  C   UNL     1       1.376   8.153  20.606  0.00  0.00    +0.000 A 
ATOM      6  C   UNL     1       1.966   6.880  20.656  0.00  0.00    +0.000 A 
ENDROOT
BRANCH   1  14
ATOM      7  C   UNL     1       4.545   4.690  19.401  0.00  0.00    +0.000 A 
ATOM      8  N   UNL     1       5.093   3.443  19.408  0.00  0.00    +0.000 NA
ATOM      9  C   UNL     1       4.290   2.409  19.621  0.00  0.00    +0.000 A 
ATOM     10  N   UNL     1       4.864   1.156  19.678  0.00  0.00    +0.000 N 
ATOM     11  N   UNL     1       2.988   2.503  19.837  0.00  0.00    +0.000 NA
ATOM     12  C   UNL     1       2.448   3.732  19.792  0.00  0.00    +0.000 A 
ATOM     13  N   UNL     1       1.067   3.710  20.023  0.00  0.00    +0.000 N 
ATOM     14  C   UNL     1       3.170   4.920  19.573  0.00  0.00    +0.000 A 
ATOM     15  H   UNL     1       5.835   1.251  19.938  0.00  0.00    +0.000 HD
ATOM     16  H   UNL     1       4.292   0.561  20.262  0.00  0.00    +0.000 HD
ATOM     17  H   UNL     1       0.787   2.735  20.092  0.00  0.00    +0.000 HD
ATOM     18  H   UNL     1       0.557   4.213  19.306  0.00  0.00    +0.000 HD
BRANCH   7  19
ATOM     19  C   UNL     1       5.583   5.772  19.203  0.00  0.00    +0.000 C 
BRANCH  19  21
ATOM     20  C   UNL     1       7.931   5.702  19.020  0.00  0.00    +0.000 C 
ATOM     21  O   UNL     1       6.809   5.441  19.851  0.00  0.00    +0.000 OA
ENDBRANCH  19  21
ENDBRANCH   7  19
ENDBRANCH   1  14
BRANCH   4  22
ATOM     22  N   UNL     1       0.920  10.220  19.373  0.00  0.00    +0.000 N 
ATOM     23  H   UNL     1      -0.008  10.318  18.972  0.00  0.00    +0.000 HD
BRANCH  22  24
ATOM     24  C   UNL     1       1.119  11.100  20.518  0.00  0.00    +0.000 C 
BRANCH  24  25
ATOM     25  C   UNL     1      -0.195  11.507  21.148  0.00  0.00    +0.000 A 
ATOM     26  C   UNL     1      -0.526  11.010  22.420  0.00  0.00    +0.000 A 
ATOM     27  C   UNL     1      -1.712  11.393  23.049  0.00  0.00    +0.000 A 
ATOM     28  C   UNL     1      -2.565  12.300  22.417  0.00  0.00    +0.000 A 
ATOM     29  C   UNL     1      -2.257  12.806  21.154  0.00  0.00    +0.000 A 
ATOM     30  C   UNL     1      -1.070  12.417  20.530  0.00  0.00    +0.000 A 
BRANCH  28  31
ATOM     31  S   UNL     1      -4.073  12.789  23.214  0.00  0.00    +0.000 S 
ATOM     32  C   UNL     1      -4.090  14.551  23.001  0.00  0.00    +0.000 C 
ATOM     33  O   UNL     1      -5.176  12.234  22.453  0.00  0.00    +0.000 OA
ATOM     34  O   UNL     1      -3.928  12.513  24.632  0.00  0.00    +0.000 OA
ENDBRANCH  28  31
ENDBRANCH  24  25
ENDBRANCH  22  24
ENDBRANCH   4  22
TORSDOF 7
ENDMDL
MODEL 4
REMARK VINA RESULT:      -8.0      2.358      2.799
REMARK  Name = 
REMARK  9 active torsions:
REMARK  status: ('A' for Active; 'I' for Inactive)
REMARK    1  A    between atoms: C_1  and  O_2
REMARK    2  A    between atoms: O_2  and  C_3
REMARK    3  A    between atoms: C_3  and  C_4
REMARK    4  A    between atoms: C_11  and  C_12
REMARK    5  A    between atoms: C_15  and  N_16
REMARK    6  A    between atoms: N_16  and  C_17
REMARK    7  A    between atoms: C_17  and  C_18
REMARK    8  A    between atoms: C_21  and  S_22
REMARK    9  A    between atoms: S_22  and  C_23
REMARK                            x       y       z     vdW  Elec       q    Type
REMARK                         _______ _______ _______ _____ _____    ______ ____
ROOT
ATOM      1  C   UNL     1       2.536   6.212  19.301  0.00  0.00    +0.000 A 
ATOM      2  C   UNL     1       2.046   6.698  20.526  0.00  0.00    +0.000 A 
ATOM      3  C   UNL     1       1.474   7.974  20.650  0.00  0.00    +0.000 A 
ATOM      4  C   UNL     1       1.467   8.870  19.583  0.00  0.00    +0.000 A 
ATOM      5  C   UNL     1       1.980   8.417  18.369  0.00  0.00    +0.000 A 
ATOM      6  C   UNL     1       2.469   7.110  18.225  0.00  0.00    +0.000 A 
ENDROOT
BRANCH   1  14
ATOM      7  C   UNL     1       4.336   4.434  18.828  0.00  0.00    +0.000 A 
ATOM      8  N   UNL     1       4.717   3.137  18.649  0.00  0.00    +0.000 NA
ATOM      9  C   UNL     1       3.805   2.190  18.820  0.00  0.00    +0.000 A 
ATOM     10  N   UNL     1       4.214   0.879  18.688  0.00  0.00    +0.000 N 
ATOM     11  N   UNL     1       2.546   2.413  19.162  0.00  0.00    +0.000 NA
ATOM     12  C   UNL     1       2.168   3.695  19.301  0.00  0.00    +0.000 A 
ATOM     13  N   UNL     1       0.818   3.812  19.651  0.00  0.00    +0.000 N 
ATOM     14  C   UNL     1       3.021   4.805  19.147  0.00  0.00    +0.000 A 
ATOM     15  H   UNL     1       5.206   0.824  18.869  0.00  0.00    +0.000 HD
ATOM     16  H   UNL     1       3.615   0.292  19.253  0.00  0.00    +0.000 HD
ATOM     17  H   UNL     1       0.420   2.877  19.639  0.00  0.00    +0.000 HD
ATOM     18  H   UNL     1       0.325   4.455  19.042  0.00  0.00    +0.000 HD
BRANCH   7  19
ATOM     19  C   UNL     1       5.489   5.398  18.655  0.00  0.00    +0.000 C 
BRANCH  19  21
ATOM     20  C   UNL     1       7.721   5.749  19.321  0.00  0.00    +0.000 C 
ATOM     21  O   UNL     1       6.444   5.260  19.704  0.00  0.00    +0.000 OA
ENDBRANCH  19  21
ENDBRANCH   7  19
ENDBRANCH   1  14
BRANCH   4  22
ATOM     22  N   UNL     1       0.840  10.106  19.730  0.00  0.00    +0.000 N 
ATOM     23  H   UNL     1      -0.096  10.132  19.335  0.00  0.00    +0.000 HD
BRANCH  22  24
ATOM     24  C   UNL     1       0.919  10.813  21.002  0.00  0.00    +0.000 C 
BRANCH  24  25
ATOM     25  C   UNL     1      -0.424  11.372  21.418  0.00  0.00    +0.000 A 
ATOM     26  C   UNL     1      -0.862  11.186  22.740  0.00  0.00    +0.000 A 
ATOM     27  C   UNL     1      -2.078  11.719  23.171  0.00  0.00    +0.000 A 
ATOM     28  C   UNL     1      -2.854  12.467  22.283  0.00  0.00    +0.000 A 
ATOM     29  C   UNL     1      -2.440  12.664  20.965  0.00  0.00    +0.000 A 
ATOM     30  C   UNL     1      -1.224  12.126  20.542  0.00  0.00    +0.000 A 
BRANCH  28  31
ATOM     31  S   UNL     1      -4.401  13.146  22.827  0.00  0.00    +0.000 S 
ATOM     32  C   UNL     1      -4.524  14.659  21.907  0.00  0.00    +0.000 C 
ATOM     33  O   UNL     1      -5.457  12.259  22.377  0.00  0.00    +0.000 OA
ATOM     34  O   UNL     1      -4.259  13.488  24.231  0.00  0.00    +0.000 OA
ENDBRANCH  28  31
ENDBRANCH  24  25
ENDBRANCH  22  24
ENDBRANCH   4  22
TORSDOF 7
ENDMDL
MODEL 5
REMARK VINA RESULT:      -8.0      3.578      9.975
REMARK  Name = 
REMARK  9 active torsions:
REMARK  status: ('A' for Active; 'I' for Inactive)
REMARK    1  A    between atoms: C_1  and  O_2
REMARK    2  A    between atoms: O_2  and  C_3
REMARK    3  A    between atoms: C_3  and  C_4
REMARK    4  A    between atoms: C_11  and  C_12
REMARK    5  A    between atoms: C_15  and  N_16
REMARK    6  A    between atoms: N_16  and  C_17
REMARK    7  A    between atoms: C_17  and  C_18
REMARK    8  A    between atoms: C_21  and  S_22
REMARK    9  A    between atoms: S_22  and  C_23
REMARK                            x       y       z     vdW  Elec       q    Type
REMARK                         _______ _______ _______ _____ _____    ______ ____
ROOT
ATOM      1  C   UNL     1       0.744   9.988  19.696  0.00  0.00    +0.000 A 
ATOM      2  C   UNL     1       0.288   9.326  20.850  0.00  0.00    +0.000 A 
ATOM      3  C   UNL     1       0.750   8.051  21.213  0.00  0.00    +0.000 A 
ATOM      4  C   UNL     1       1.603   7.327  20.384  0.00  0.00    +0.000 A 
ATOM      5  C   UNL     1       2.039   7.954  19.218  0.00  0.00    +0.000 A 
ATOM      6  C   UNL     1       1.645   9.264  18.902  0.00  0.00    +0.000 A 
ENDROOT
BRANCH   1  14
ATOM      7  C   UNL     1      -0.714  11.773  18.549  0.00  0.00    +0.000 A 
ATOM      8  N   UNL     1      -1.003  13.073  18.258  0.00  0.00    +0.000 NA
ATOM      9  C   UNL     1      -0.262  14.018  18.822  0.00  0.00    +0.000 A 
ATOM     10  N   UNL     1      -0.596  15.331  18.561  0.00  0.00    +0.000 N 
ATOM     11  N   UNL     1       0.737  13.788  19.659  0.00  0.00    +0.000 NA
ATOM     12  C   UNL     1       1.040  12.504  19.912  0.00  0.00    +0.000 A 
ATOM     13  N   UNL     1       2.116  12.381  20.798  0.00  0.00    +0.000 N 
ATOM     14  C   UNL     1       0.349  11.396  19.386  0.00  0.00    +0.000 A 
ATOM     15  H   UNL     1      -1.572  15.377  18.307  0.00  0.00    +0.000 HD
ATOM     16  H   UNL     1      -0.301  15.903  19.340  0.00  0.00    +0.000 HD
ATOM     17  H   UNL     1       2.469  13.317  20.978  0.00  0.00    +0.000 HD
ATOM     18  H   UNL     1       2.830  11.757  20.439  0.00  0.00    +0.000 HD
BRANCH   7  19
ATOM     19  C   UNL     1      -1.672  10.810  17.882  0.00  0.00    +0.000 C 
BRANCH  19  21
ATOM     20  C   UNL     1      -4.013  11.069  17.849  0.00  0.00    +0.000 C 
ATOM     21  O   UNL     1      -2.776  11.496  17.298  0.00  0.00    +0.000 OA
ENDBRANCH  19  21
ENDBRANCH   7  19
ENDBRANCH   1  14
BRANCH   4  22
ATOM     22  N   UNL     1       2.084   6.090  20.807  0.00  0.00    +0.000 N 
ATOM     23  H   UNL     1       1.747   5.819  21.726  0.00  0.00    +0.000 HD
BRANCH  22  24
ATOM     24  C   UNL     1       2.110   4.966  19.878  0.00  0.00    +0.000 C 
BRANCH  24  25
ATOM     25  C   UNL     1       3.334   5.002  18.989  0.00  0.00    +0.000 A 
ATOM     26  C   UNL     1       4.594   5.226  19.567  0.00  0.00    +0.000 A 
ATOM     27  C   UNL     1       5.749   5.229  18.784  0.00  0.00    +0.000 A 
ATOM     28  C   UNL     1       5.652   4.980  17.413  0.00  0.00    +0.000 A 
ATOM     29  C   UNL     1       4.410   4.756  16.816  0.00  0.00    +0.000 A 
ATOM     30  C   UNL     1       3.260   4.757  17.606  0.00  0.00    +0.000 A 
BRANCH  28  31
ATOM     31  S   UNL     1       7.119   4.983  16.414  0.00  0.00    +0.000 S 
ATOM     32  C   UNL     1       6.601   4.148  14.935  0.00  0.00    +0.000 C 
ATOM     33  O   UNL     1       7.418   6.360  16.071  0.00  0.00    +0.000 OA
ATOM     34  O   UNL     1       8.101   4.146  17.078  0.00  0.00    +0.000 OA
ENDBRANCH  28  31
ENDBRANCH  24  25
ENDBRANCH  22  24
ENDBRANCH   4  22
TORSDOF 7
ENDMDL
MODEL 6
REMARK VINA RESULT:      -8.0      2.379      2.885
REMARK  Name = 
REMARK  9 active torsions:
REMARK  status: ('A' for Active; 'I' for Inactive)
REMARK    1  A    between atoms: C_1  and  O_2
REMARK    2  A    between atoms: O_2  and  C_3
REMARK    3  A    between atoms: C_3  and  C_4
REMARK    4  A    between atoms: C_11  and  C_12
REMARK    5  A    between atoms: C_15  and  N_16
REMARK    6  A    between atoms: N_16  and  C_17
REMARK    7  A    between atoms: C_17  and  C_18
REMARK    8  A    between atoms: C_21  and  S_22
REMARK    9  A    between atoms: S_22  and  C_23
REMARK                            x       y       z     vdW  Elec       q    Type
REMARK                         _______ _______ _______ _____ _____    ______ ____
ROOT
ATOM      1  C   UNL     1       2.454   6.107  19.285  0.00  0.00    +0.000 A 
ATOM      2  C   UNL     1       1.993   6.593  20.522  0.00  0.00    +0.000 A 
ATOM      3  C   UNL     1       1.453   7.880  20.666  0.00  0.00    +0.000 A 
ATOM      4  C   UNL     1       1.453   8.787  19.609  0.00  0.00    +0.000 A 
ATOM      5  C   UNL     1       1.937   8.334  18.383  0.00  0.00    +0.000 A 
ATOM      6  C   UNL     1       2.394   7.017  18.220  0.00  0.00    +0.000 A 
ENDROOT
BRANCH   1  14
ATOM      7  C   UNL     1       4.215   4.290  18.809  0.00  0.00    +0.000 A 
ATOM      8  N   UNL     1       4.564   2.988  18.611  0.00  0.00    +0.000 NA
ATOM      9  C   UNL     1       3.624   2.063  18.745  0.00  0.00    +0.000 A 
ATOM     10  N   UNL     1       4.000   0.744  18.593  0.00  0.00    +0.000 N 
ATOM     11  N   UNL     1       2.365   2.314  19.067  0.00  0.00    +0.000 NA
ATOM     12  C   UNL     1       2.020   3.602  19.226  0.00  0.00    +0.000 A 
ATOM     13  N   UNL     1       0.667   3.748  19.553  0.00  0.00    +0.000 N 
ATOM     14  C   UNL     1       2.904   4.691  19.111  0.00  0.00    +0.000 A 
ATOM     15  H   UNL     1       4.986   0.659  18.791  0.00  0.00    +0.000 HD
ATOM     16  H   UNL     1       3.375   0.162  19.134  0.00  0.00    +0.000 HD
ATOM     17  H   UNL     1       0.243   2.825  19.514  0.00  0.00    +0.000 HD
ATOM     18  H   UNL     1       0.203   4.417  18.949  0.00  0.00    +0.000 HD
BRANCH   7  19
ATOM     19  C   UNL     1       5.397   5.227  18.679  0.00  0.00    +0.000 C 
BRANCH  19  21
ATOM     20  C   UNL     1       7.581   4.879  17.870  0.00  0.00    +0.000 C 
ATOM     21  O   UNL     1       6.630   4.537  18.867  0.00  0.00    +0.000 OA
ENDBRANCH  19  21
ENDBRANCH   7  19
ENDBRANCH   1  14
BRANCH   4  22
ATOM     22  N   UNL     1       0.856  10.035  19.776  0.00  0.00    +0.000 N 
ATOM     23  H   UNL     1      -0.088  10.084  19.405  0.00  0.00    +0.000 HD
BRANCH  22  24
ATOM     24  C   UNL     1       0.983  10.735  21.048  0.00  0.00    +0.000 C 
BRANCH  24  25
ATOM     25  C   UNL     1      -0.335  11.328  21.497  0.00  0.00    +0.000 A 
ATOM     26  C   UNL     1      -1.119  12.031  20.567  0.00  0.00    +0.000 A 
ATOM     27  C   UNL     1      -2.358  12.560  20.934  0.00  0.00    +0.000 A 
ATOM     28  C   UNL     1      -2.832  12.364  22.233  0.00  0.00    +0.000 A 
ATOM     29  C   UNL     1      -2.070  11.669  23.173  0.00  0.00    +0.000 A 
ATOM     30  C   UNL     1      -0.832  11.146  22.799  0.00  0.00    +0.000 A 
BRANCH  28  31
ATOM     31  S   UNL     1      -4.407  13.035  22.703  0.00  0.00    +0.000 S 
ATOM     32  C   UNL     1      -5.453  12.606  21.334  0.00  0.00    +0.000 C 
ATOM     33  O   UNL     1      -4.869  12.305  23.868  0.00  0.00    +0.000 OA
ATOM     34  O   UNL     1      -4.277  14.480  22.728  0.00  0.00    +0.000 OA
ENDBRANCH  28  31
ENDBRANCH  24  25
ENDBRANCH  22  24
ENDBRANCH   4  22
TORSDOF 7
ENDMDL
MODEL 7
REMARK VINA RESULT:      -8.0      2.641      2.949
REMARK  Name = 
REMARK  9 active torsions:
REMARK  status: ('A' for Active; 'I' for Inactive)
REMARK    1  A    between atoms: C_1  and  O_2
REMARK    2  A    between atoms: O_2  and  C_3
REMARK    3  A    between atoms: C_3  and  C_4
REMARK    4  A    between atoms: C_11  and  C_12
REMARK    5  A    between atoms: C_15  and  N_16
REMARK    6  A    between atoms: N_16  and  C_17
REMARK    7  A    between atoms: C_17  and  C_18
REMARK    8  A    between atoms: C_21  and  S_22
REMARK    9  A    between atoms: S_22  and  C_23
REMARK                            x       y       z     vdW  Elec       q    Type
REMARK                         _______ _______ _______ _____ _____    ______ ____
ROOT
ATOM      1  C   UNL     1       2.297   5.974  19.493  0.00  0.00    +0.000 A 
ATOM      2  C   UNL     1       2.310   6.956  18.487  0.00  0.00    +0.000 A 
ATOM      3  C   UNL     1       1.961   8.292  18.741  0.00  0.00    +0.000 A 
ATOM      4  C   UNL     1       1.473   8.688  19.984  0.00  0.00    +0.000 A 
ATOM      5  C   UNL     1       1.421   7.720  20.985  0.00  0.00    +0.000 A 
ATOM      6  C   UNL     1       1.855   6.405  20.753  0.00  0.00    +0.000 A 
ENDROOT
BRANCH   1  14
ATOM      7  C   UNL     1       4.110   4.250  18.884  0.00  0.00    +0.000 A 
ATOM      8  N   UNL     1       4.503   2.972  18.622  0.00  0.00    +0.000 NA
ATOM      9  C   UNL     1       3.604   2.004  18.750  0.00  0.00    +0.000 A 
ATOM     10  N   UNL     1       4.027   0.709  18.533  0.00  0.00    +0.000 N 
ATOM     11  N   UNL     1       2.349   2.191  19.126  0.00  0.00    +0.000 NA
ATOM     12  C   UNL     1       1.959   3.457  19.347  0.00  0.00    +0.000 A 
ATOM     13  N   UNL     1       0.614   3.536  19.727  0.00  0.00    +0.000 N 
ATOM     14  C   UNL     1       2.796   4.585  19.247  0.00  0.00    +0.000 A 
ATOM     15  H   UNL     1       5.022   0.657  18.693  0.00  0.00    +0.000 HD
ATOM     16  H   UNL     1       3.445   0.082  19.071  0.00  0.00    +0.000 HD
ATOM     17  H   UNL     1       0.227   2.598  19.665  0.00  0.00    +0.000 HD
ATOM     18  H   UNL     1       0.103   4.208  19.166  0.00  0.00    +0.000 HD
BRANCH   7  19
ATOM     19  C   UNL     1       5.248   5.238  18.751  0.00  0.00    +0.000 C 
BRANCH  19  21
ATOM     20  C   UNL     1       7.396   4.947  17.828  0.00  0.00    +0.000 C 
ATOM     21  O   UNL     1       6.513   4.595  18.883  0.00  0.00    +0.000 OA
ENDBRANCH  19  21
ENDBRANCH   7  19
ENDBRANCH   1  14
BRANCH   4  22
ATOM     22  N   UNL     1       1.192  10.033  20.213  0.00  0.00    +0.000 N 
ATOM     23  H   UNL     1       2.014  10.629  20.178  0.00  0.00    +0.000 HD
BRANCH  22  24
ATOM     24  C   UNL     1       0.038  10.653  19.573  0.00  0.00    +0.000 C 
BRANCH  24  25
ATOM     25  C   UNL     1      -0.923  11.233  20.588  0.00  0.00    +0.000 A 
ATOM     26  C   UNL     1      -0.758  10.913  21.946  0.00  0.00    +0.000 A 
ATOM     27  C   UNL     1      -1.602  11.459  22.915  0.00  0.00    +0.000 A 
ATOM     28  C   UNL     1      -2.604  12.353  22.531  0.00  0.00    +0.000 A 
ATOM     29  C   UNL     1      -2.786  12.685  21.188  0.00  0.00    +0.000 A 
ATOM     30  C   UNL     1      -1.940  12.133  20.224  0.00  0.00    +0.000 A 
BRANCH  28  31
ATOM     31  S   UNL     1      -3.678  13.049  23.760  0.00  0.00    +0.000 S 
ATOM     32  C   UNL     1      -4.974  13.784  22.795  0.00  0.00    +0.000 C 
ATOM     33  O   UNL     1      -4.250  11.954  24.520  0.00  0.00    +0.000 OA
ATOM     34  O   UNL     1      -2.952  14.119  24.420  0.00  0.00    +0.000 OA
ENDBRANCH  28  31
ENDBRANCH  24  25
ENDBRANCH  22  24
ENDBRANCH   4  22
TORSDOF 7
ENDMDL
MODEL 8
REMARK VINA RESULT:      -7.9      2.568      2.986
REMARK  Name = 
REMARK  9 active torsions:
REMARK  status: ('A' for Active; 'I' for Inactive)
REMARK    1  A    between atoms: C_1  and  O_2
REMARK    2  A    between atoms: O_2  and  C_3
REMARK    3  A    between atoms: C_3  and  C_4
REMARK    4  A    between atoms: C_11  and  C_12
REMARK    5  A    between atoms: C_15  and  N_16
REMARK    6  A    between atoms: N_16  and  C_17
REMARK    7  A    between atoms: C_17  and  C_18
REMARK    8  A    between atoms: C_21  and  S_22
REMARK    9  A    between atoms: S_22  and  C_23
REMARK                            x       y       z     vdW  Elec       q    Type
REMARK                         _______ _______ _______ _____ _____    ______ ____
ROOT
ATOM      1  C   UNL     1       2.680   6.561  19.440  0.00  0.00    +0.000 A 
ATOM      2  C   UNL     1       2.102   7.213  20.544  0.00  0.00    +0.000 A 
ATOM      3  C   UNL     1       1.385   8.412  20.415  0.00  0.00    +0.000 A 
ATOM      4  C   UNL     1       1.306   9.080  19.195  0.00  0.00    +0.000 A 
ATOM      5  C   UNL     1       1.901   8.466  18.095  0.00  0.00    +0.000 A 
ATOM      6  C   UNL     1       2.542   7.222  18.210  0.00  0.00    +0.000 A 
ENDROOT
BRANCH   1  14
ATOM      7  C   UNL     1       4.670   4.938  19.268  0.00  0.00    +0.000 A 
ATOM      8  N   UNL     1       5.200   3.685  19.350  0.00  0.00    +0.000 NA
ATOM      9  C   UNL     1       4.413   2.700  19.763  0.00  0.00    +0.000 A 
ATOM     10  N   UNL     1       4.974   1.446  19.893  0.00  0.00    +0.000 N 
ATOM     11  N   UNL     1       3.145   2.849  20.111  0.00  0.00    +0.000 NA
ATOM     12  C   UNL     1       2.619   4.079  19.992  0.00  0.00    +0.000 A 
ATOM     13  N   UNL     1       1.273   4.117  20.376  0.00  0.00    +0.000 N 
ATOM     14  C   UNL     1       3.327   5.219  19.565  0.00  0.00    +0.000 A 
ATOM     15  H   UNL     1       5.969   1.545  20.031  0.00  0.00    +0.000 HD
ATOM     16  H   UNL     1       4.464   0.933  20.598  0.00  0.00    +0.000 HD
ATOM     17  H   UNL     1       0.990   3.163  20.582  0.00  0.00    +0.000 HD
ATOM     18  H   UNL     1       0.692   4.553  19.669  0.00  0.00    +0.000 HD
BRANCH   7  19
ATOM     19  C   UNL     1       5.693   5.966  18.838  0.00  0.00    +0.000 C 
BRANCH  19  21
ATOM     20  C   UNL     1       7.050   5.646  16.939  0.00  0.00    +0.000 C 
ATOM     21  O   UNL     1       5.777   6.054  17.418  0.00  0.00    +0.000 OA
ENDBRANCH  19  21
ENDBRANCH   7  19
ENDBRANCH   1  14
BRANCH   4  22
ATOM     22  N   UNL     1       0.537  10.237  19.095  0.00  0.00    +0.000 N 
ATOM     23  H   UNL     1      -0.462  10.056  19.054  0.00  0.00    +0.000 HD
BRANCH  22  24
ATOM     24  C   UNL     1       0.851  11.391  19.929  0.00  0.00    +0.000 C 
BRANCH  24  25
ATOM     25  C   UNL     1      -0.315  11.778  20.814  0.00  0.00    +0.000 A 
ATOM     26  C   UNL     1      -1.323  12.605  20.292  0.00  0.00    +0.000 A 
ATOM     27  C   UNL     1      -2.432  12.953  21.066  0.00  0.00    +0.000 A 
ATOM     28  C   UNL     1      -2.551  12.450  22.363  0.00  0.00    +0.000 A 
ATOM     29  C   UNL     1      -1.561  11.627  22.902  0.00  0.00    +0.000 A 
ATOM     30  C   UNL     1      -0.454  11.286  22.124  0.00  0.00    +0.000 A 
BRANCH  28  31
ATOM     31  S   UNL     1      -3.960  12.890  23.349  0.00  0.00    +0.000 S 
ATOM     32  C   UNL     1      -3.403  14.327  24.230  0.00  0.00    +0.000 C 
ATOM     33  O   UNL     1      -5.021  13.298  22.448  0.00  0.00    +0.000 OA
ATOM     34  O   UNL     1      -4.166  11.827  24.316  0.00  0.00    +0.000 OA
ENDBRANCH  28  31
ENDBRANCH  24  25
ENDBRANCH  22  24
ENDBRANCH   4  22
TORSDOF 7
ENDMDL
MODEL 9
REMARK VINA RESULT:      -7.9      0.896      1.336
REMARK  Name = 
REMARK  9 active torsions:
REMARK  status: ('A' for Active; 'I' for Inactive)
REMARK    1  A    between atoms: C_1  and  O_2
REMARK    2  A    between atoms: O_2  and  C_3
REMARK    3  A    between atoms: C_3  and  C_4
REMARK    4  A    between atoms: C_11  and  C_12
REMARK    5  A    between atoms: C_15  and  N_16
REMARK    6  A    between atoms: N_16  and  C_17
REMARK    7  A    between atoms: C_17  and  C_18
REMARK    8  A    between atoms: C_21  and  S_22
REMARK    9  A    between atoms: S_22  and  C_23
REMARK                            x       y       z     vdW  Elec       q    Type
REMARK                         _______ _______ _______ _____ _____    ______ ____
ROOT
ATOM      1  C   UNL     1       2.508   6.014  19.367  0.00  0.00    +0.000 A 
ATOM      2  C   UNL     1       1.952   6.451  20.582  0.00  0.00    +0.000 A 
ATOM      3  C   UNL     1       1.393   7.730  20.734  0.00  0.00    +0.000 A 
ATOM      4  C   UNL     1       1.465   8.676  19.713  0.00  0.00    +0.000 A 
ATOM      5  C   UNL     1       2.043   8.272  18.512  0.00  0.00    +0.000 A 
ATOM      6  C   UNL     1       2.521   6.964  18.334  0.00  0.00    +0.000 A 
ENDROOT
BRANCH   1  14
ATOM      7  C   UNL     1       4.324   4.209  19.099  0.00  0.00    +0.000 A 
ATOM      8  N   UNL     1       4.702   2.920  18.873  0.00  0.00    +0.000 NA
ATOM      9  C   UNL     1       3.751   2.003  18.753  0.00  0.00    +0.000 A 
ATOM     10  N   UNL     1       4.146   0.693  18.576  0.00  0.00    +0.000 N 
ATOM     11  N   UNL     1       2.454   2.250  18.847  0.00  0.00    +0.000 NA
ATOM     12  C   UNL     1       2.087   3.528  19.034  0.00  0.00    +0.000 A 
ATOM     13  N   UNL     1       0.697   3.673  19.107  0.00  0.00    +0.000 N 
ATOM     14  C   UNL     1       2.980   4.609  19.175  0.00  0.00    +0.000 A 
ATOM     15  H   UNL     1       5.077   0.577  18.951  0.00  0.00    +0.000 HD
ATOM     16  H   UNL     1       3.428   0.083  18.941  0.00  0.00    +0.000 HD
ATOM     17  H   UNL     1       0.287   2.762  18.917  0.00  0.00    +0.000 HD
ATOM     18  H   UNL     1       0.359   4.392  18.478  0.00  0.00    +0.000 HD
BRANCH   7  19
ATOM     19  C   UNL     1       5.510   5.133  19.269  0.00  0.00    +0.000 C 
BRANCH  19  21
ATOM     20  C   UNL     1       7.440   5.238  17.922  0.00  0.00    +0.000 C 
ATOM     21  O   UNL     1       6.051   5.522  18.009  0.00  0.00    +0.000 OA
ENDBRANCH  19  21
ENDBRANCH   7  19
ENDBRANCH   1  14
BRANCH   4  22
ATOM     22  N   UNL     1       0.849   9.914  19.882  0.00  0.00    +0.000 N 
ATOM     23  H   UNL     1       1.263  10.473  20.622  0.00  0.00    +0.000 HD
BRANCH  22  24
ATOM     24  C   UNL     1       0.504  10.717  18.715  0.00  0.00    +0.000 C 
BRANCH  24  25
ATOM     25  C   UNL     1      -0.982  10.992  18.642  0.00  0.00    +0.000 A 
ATOM     26  C   UNL     1      -1.533  11.994  19.459  0.00  0.00    +0.000 A 
ATOM     27  C   UNL     1      -2.892  12.302  19.393  0.00  0.00    +0.000 A 
ATOM     28  C   UNL     1      -3.708  11.623  18.486  0.00  0.00    +0.000 A 
ATOM     29  C   UNL     1      -3.184  10.623  17.665  0.00  0.00    +0.000 A 
ATOM     30  C   UNL     1      -1.824  10.320  17.739  0.00  0.00    +0.000 A 
BRANCH  28  31
ATOM     31  S   UNL     1      -5.438  12.011  18.398  0.00  0.00    +0.000 S 
ATOM     32  C   UNL     1      -6.219  10.440  18.668  0.00  0.00    +0.000 C 
ATOM     33  O   UNL     1      -5.756  12.870  19.523  0.00  0.00    +0.000 OA
ATOM     34  O   UNL     1      -5.725  12.425  17.037  0.00  0.00    +0.000 OA
ENDBRANCH  28  31
ENDBRANCH  24  25
ENDBRANCH  22  24
ENDBRANCH   4  22
TORSDOF 7
ENDMDL
