MODEL 1
REMARK VINA RESULT:      -8.4      0.000      0.000
REMARK  Name = 
REMARK  12 active torsions:
REMARK  status: ('A' for Active; 'I' for Inactive)
REMARK    1  A    between atoms: C_1  and  C_2
REMARK    2  A    between atoms: C_2  and  C_3
REMARK    3  A    between atoms: C_3  and  C_4
REMARK    4  A    between atoms: C_4  and  C_5
REMARK    5  A    between atoms: C_7  and  C_8
REMARK    6  A    between atoms: C_11  and  C_12
REMARK    7  A    between atoms: C_15  and  C_16
REMARK    8  A    between atoms: C_16  and  C_17
REMARK    9  A    between atoms: C_20  and  O_21
REMARK   10  A    between atoms: C_26  and  O_27
REMARK   11  A    between atoms: O_27  and  C_28
REMARK   12  A    between atoms: C_30  and  C_31
REMARK                            x       y       z     vdW  Elec       q    Type
REMARK                         _______ _______ _______ _____ _____    ______ ____
ROOT
ATOM      1  C   UNL     1       4.172   4.582  19.309  0.00  0.00    +0.000 C 
ATOM      2  C   UNL     1       3.226   5.463  19.672  0.00  0.00    +0.000 C 
ATOM      3  N   UNL     1       3.039   6.704  19.108  0.00  0.00    +0.000 NA
ATOM      4  C   UNL     1       2.027   7.225  19.740  0.00  0.00    +0.000 C 
ATOM      5  C   UNL     1       1.448   6.365  20.795  0.00  0.00    +0.000 C 
ATOM      6  C   UNL     1       2.232   5.280  20.704  0.00  0.00    +0.000 C 
ENDROOT
BRANCH   1   9
ATOM      7  C   UNL     1       6.382   4.974  16.405  0.00  0.00    +0.000 A 
ATOM      8  C   UNL     1       5.390   4.205  17.085  0.00  0.00    +0.000 A 
ATOM      9  C   UNL     1       5.103   4.837  18.271  0.00  0.00    +0.000 A 
ATOM     10  N   UNL     1       5.936   5.924  18.351  0.00  0.00    +0.000 N 
ATOM     11  C   UNL     1       6.723   6.025  17.235  0.00  0.00    +0.000 A 
ATOM     12  C   UNL     1       7.695   7.136  17.093  0.00  0.00    +0.000 C 
ATOM     13  H   UNL     1       5.922   6.566  19.133  0.00  0.00    +0.000 HD
BRANCH   7  14
ATOM     14  C   UNL     1       6.908   4.684  15.039  0.00  0.00    +0.000 C 
BRANCH  14  15
ATOM     15  C   UNL     1       5.908   3.856  14.230  0.00  0.00    +0.000 C 
BRANCH  15  17
ATOM     16  C   UNL     1       5.187   3.270  11.906  0.00  0.00    +0.000 C 
ATOM     17  C   UNL     1       6.355   3.681  12.785  0.00  0.00    +0.000 C 
ENDBRANCH  15  17
ENDBRANCH  14  15
ENDBRANCH   7  14
ENDBRANCH   1   9
BRANCH   4  18
ATOM     18  C   UNL     1       1.592   8.545  19.366  0.00  0.00    +0.000 A 
ATOM     19  C   UNL     1       1.980   9.388  18.345  0.00  0.00    +0.000 A 
ATOM     20  C   UNL     1       1.190  10.568  18.420  0.00  0.00    +0.000 A 
ATOM     21  C   UNL     1       0.335  10.445  19.497  0.00  0.00    +0.000 A 
ATOM     22  N   UNL     1       0.599   9.225  20.070  0.00  0.00    +0.000 N 
ATOM     23  H   UNL     1       0.134   8.833  20.883  0.00  0.00    +0.000 HD
BRANCH  21  24
ATOM     24  C   UNL     1      -0.742  11.374  19.999  0.00  0.00    +0.000 C 
BRANCH  24  25
ATOM     25  C   UNL     1      -2.039  11.324  19.214  0.00  0.00    +0.000 A 
ATOM     26  C   UNL     1      -3.101  12.191  19.516  0.00  0.00    +0.000 A 
ATOM     27  C   UNL     1      -4.293  12.153  18.784  0.00  0.00    +0.000 A 
ATOM     28  C   UNL     1      -4.420  11.257  17.731  0.00  0.00    +0.000 A 
ATOM     29  C   UNL     1      -3.370  10.417  17.386  0.00  0.00    +0.000 A 
ATOM     30  C   UNL     1      -2.181  10.452  18.121  0.00  0.00    +0.000 A 
BRANCH  28  31
ATOM     31  O   UNL     1      -5.572  11.171  17.004  0.00  0.00    +0.000 OA
ATOM     32  H   UNL     1      -5.454  11.672  16.181  0.00  0.00    +0.000 HD
ENDBRANCH  28  31
ENDBRANCH  24  25
ENDBRANCH  21  24
ENDBRANCH   4  18
BRANCH   6  33
ATOM     33  O   UNL     1       2.260   4.096  21.373  0.00  0.00    +0.000 OA
ATOM     34  C   UNL     1       1.285   3.104  21.112  0.00  0.00    +0.000 C 
ENDBRANCH   6  33
TORSDOF 9
ENDMDL
MODEL 2
REMARK VINA RESULT:      -8.1      2.349      2.920
REMARK  Name = 
REMARK  12 active torsions:
REMARK  status: ('A' for Active; 'I' for Inactive)
REMARK    1  A    between atoms: C_1  and  C_2
REMARK    2  A    between atoms: C_2  and  C_3
REMARK    3  A    between atoms: C_3  and  C_4
REMARK    4  A    between atoms: C_4  and  C_5
REMARK    5  A    between atoms: C_7  and  C_8
REMARK    6  A    between atoms: C_11  and  C_12
REMARK    7  A    between atoms: C_15  and  C_16
REMARK    8  A    between atoms: C_16  and  C_17
REMARK    9  A    between atoms: C_20  and  O_21
REMARK   10  A    between atoms: C_26  and  O_27
REMARK   11  A    between atoms: O_27  and  C_28
REMARK   12  A    between atoms: C_30  and  C_31
REMARK                            x       y       z     vdW  Elec       q    Type
REMARK                         _______ _______ _______ _____ _____    ______ ____
ROOT
ATOM      1  C   UNL     1       4.160   4.444  19.338  0.00  0.00    +0.000 C 
ATOM      2  C   UNL     1       3.218   5.318  19.728  0.00  0.00    +0.000 C 
ATOM      3  N   UNL     1       3.033   6.575  19.199  0.00  0.00    +0.000 NA
ATOM      4  C   UNL     1       2.024   7.081  19.848  0.00  0.00    +0.000 C 
ATOM      5  C   UNL     1       1.444   6.194  20.879  0.00  0.00    +0.000 C 
ATOM      6  C   UNL     1       2.224   5.108  20.756  0.00  0.00    +0.000 C 
ENDROOT
BRANCH   1   9
ATOM      7  C   UNL     1       6.368   4.907  16.443  0.00  0.00    +0.000 A 
ATOM      8  C   UNL     1       5.380   4.120  17.107  0.00  0.00    +0.000 A 
ATOM      9  C   UNL     1       5.090   4.725  18.306  0.00  0.00    +0.000 A 
ATOM     10  N   UNL     1       5.916   5.815  18.408  0.00  0.00    +0.000 N 
ATOM     11  C   UNL     1       6.703   5.944  17.295  0.00  0.00    +0.000 A 
ATOM     12  C   UNL     1       7.669   7.062  17.175  0.00  0.00    +0.000 C 
ATOM     13  H   UNL     1       5.899   6.442  19.203  0.00  0.00    +0.000 HD
BRANCH   7  14
ATOM     14  C   UNL     1       6.896   4.649  15.072  0.00  0.00    +0.000 C 
BRANCH  14  15
ATOM     15  C   UNL     1       5.813   4.049  14.171  0.00  0.00    +0.000 C 
BRANCH  15  17
ATOM     16  C   UNL     1       5.248   3.197  11.887  0.00  0.00    +0.000 C 
ATOM     17  C   UNL     1       6.365   3.660  12.806  0.00  0.00    +0.000 C 
ENDBRANCH  15  17
ENDBRANCH  14  15
ENDBRANCH   7  14
ENDBRANCH   1   9
BRANCH   4  18
ATOM     18  C   UNL     1       1.592   8.412  19.512  0.00  0.00    +0.000 A 
ATOM     19  C   UNL     1       1.574   9.101  18.317  0.00  0.00    +0.000 A 
ATOM     20  C   UNL     1       1.007  10.383  18.552  0.00  0.00    +0.000 A 
ATOM     21  C   UNL     1       0.695  10.476  19.894  0.00  0.00    +0.000 A 
ATOM     22  N   UNL     1       1.069   9.284  20.466  0.00  0.00    +0.000 N 
ATOM     23  H   UNL     1       0.968   9.033  21.445  0.00  0.00    +0.000 HD
BRANCH  21  24
ATOM     24  C   UNL     1       0.032  11.588  20.667  0.00  0.00    +0.000 C 
BRANCH  24  25
ATOM     25  C   UNL     1       0.367  12.984  20.183  0.00  0.00    +0.000 A 
ATOM     26  C   UNL     1       1.615  13.566  20.460  0.00  0.00    +0.000 A 
ATOM     27  C   UNL     1       1.930  14.851  20.002  0.00  0.00    +0.000 A 
ATOM     28  C   UNL     1       1.000  15.553  19.247  0.00  0.00    +0.000 A 
ATOM     29  C   UNL     1      -0.225  14.985  18.925  0.00  0.00    +0.000 A 
ATOM     30  C   UNL     1      -0.541  13.703  19.387  0.00  0.00    +0.000 A 
BRANCH  28  31
ATOM     31  O   UNL     1       1.256  16.817  18.799  0.00  0.00    +0.000 OA
ATOM     32  H   UNL     1       0.444  17.172  18.402  0.00  0.00    +0.000 HD
ENDBRANCH  28  31
ENDBRANCH  24  25
ENDBRANCH  21  24
ENDBRANCH   4  18
BRANCH   6  33
ATOM     33  O   UNL     1       2.250   3.906  21.391  0.00  0.00    +0.000 OA
ATOM     34  C   UNL     1       1.281   2.919  21.093  0.00  0.00    +0.000 C 
ENDBRANCH   6  33
TORSDOF 9
ENDMDL
MODEL 3
REMARK VINA RESULT:      -8.0      0.956      1.511
REMARK  Name = 
REMARK  12 active torsions:
REMARK  status: ('A' for Active; 'I' for Inactive)
REMARK    1  A    between atoms: C_1  and  C_2
REMARK    2  A    between atoms: C_2  and  C_3
REMARK    3  A    between atoms: C_3  and  C_4
REMARK    4  A    between atoms: C_4  and  C_5
REMARK    5  A    between atoms: C_7  and  C_8
REMARK    6  A    between atoms: C_11  and  C_12
REMARK    7  A    between atoms: C_15  and  C_16
REMARK    8  A    between atoms: C_16  and  C_17
REMARK    9  A    between atoms: C_20  and  O_21
REMARK   10  A    between atoms: C_26  and  O_27
REMARK   11  A    between atoms: O_27  and  C_28
REMARK   12  A    between atoms: C_30  and  C_31
REMARK                            x       y       z     vdW  Elec       q    Type
REMARK                         _______ _______ _______ _____ _____    ______ ____
ROOT
ATOM      1  C   UNL     1       4.088   3.903  18.941  0.00  0.00    +0.000 C 
ATOM      2  C   UNL     1       3.198   4.637  19.629  0.00  0.00    +0.000 C 
ATOM      3  N   UNL     1       2.997   5.990  19.477  0.00  0.00    +0.000 NA
ATOM      4  C   UNL     1       2.055   6.299  20.320  0.00  0.00    +0.000 C 
ATOM      5  C   UNL     1       1.544   5.165  21.119  0.00  0.00    +0.000 C 
ATOM      6  C   UNL     1       2.288   4.155  20.643  0.00  0.00    +0.000 C 
ENDROOT
BRANCH   1   9
ATOM      7  C   UNL     1       6.080   5.113  16.106  0.00  0.00    +0.000 A 
ATOM      8  C   UNL     1       5.168   4.148  16.629  0.00  0.00    +0.000 A 
ATOM      9  C   UNL     1       4.936   4.455  17.948  0.00  0.00    +0.000 A 
ATOM     10  N   UNL     1       5.726   5.535  18.248  0.00  0.00    +0.000 N 
ATOM     11  C   UNL     1       6.432   5.949  17.149  0.00  0.00    +0.000 A 
ATOM     12  C   UNL     1       7.345   7.114  17.232  0.00  0.00    +0.000 C 
ATOM     13  H   UNL     1       5.738   5.966  19.163  0.00  0.00    +0.000 HD
BRANCH   7  14
ATOM     14  C   UNL     1       6.525   5.195  14.684  0.00  0.00    +0.000 C 
BRANCH  14  15
ATOM     15  C   UNL     1       6.415   3.832  13.996  0.00  0.00    +0.000 C 
BRANCH  15  17
ATOM     16  C   UNL     1       5.330   3.168  11.841  0.00  0.00    +0.000 C 
ATOM     17  C   UNL     1       6.458   3.959  12.479  0.00  0.00    +0.000 C 
ENDBRANCH  15  17
ENDBRANCH  14  15
ENDBRANCH   7  14
ENDBRANCH   1   9
BRANCH   4  18
ATOM     18  C   UNL     1       1.626   7.671  20.393  0.00  0.00    +0.000 A 
ATOM     19  C   UNL     1       1.487   8.537  21.458  0.00  0.00    +0.000 A 
ATOM     20  C   UNL     1       1.057   9.795  20.953  0.00  0.00    +0.000 A 
ATOM     21  C   UNL     1       0.922   9.685  19.583  0.00  0.00    +0.000 A 
ATOM     22  N   UNL     1       1.253   8.392  19.260  0.00  0.00    +0.000 N 
ATOM     23  H   UNL     1       1.258   7.991  18.326  0.00  0.00    +0.000 HD
BRANCH  21  24
ATOM     24  C   UNL     1       0.546  10.721  18.553  0.00  0.00    +0.000 C 
BRANCH  24  25
ATOM     25  C   UNL     1      -0.935  10.791  18.235  0.00  0.00    +0.000 A 
ATOM     26  C   UNL     1      -1.518   9.913  17.307  0.00  0.00    +0.000 A 
ATOM     27  C   UNL     1      -2.888   9.970  17.023  0.00  0.00    +0.000 A 
ATOM     28  C   UNL     1      -3.685  10.896  17.684  0.00  0.00    +0.000 A 
ATOM     29  C   UNL     1      -3.140  11.747  18.635  0.00  0.00    +0.000 A 
ATOM     30  C   UNL     1      -1.771  11.694  18.915  0.00  0.00    +0.000 A 
BRANCH  28  31
ATOM     31  O   UNL     1      -5.020  11.000  17.422  0.00  0.00    +0.000 OA
ATOM     32  H   UNL     1      -5.466  10.216  17.783  0.00  0.00    +0.000 HD
ENDBRANCH  28  31
ENDBRANCH  24  25
ENDBRANCH  21  24
ENDBRANCH   4  18
BRANCH   6  33
ATOM     33  O   UNL     1       2.341   2.826  20.926  0.00  0.00    +0.000 OA
ATOM     34  C   UNL     1       1.653   1.894  20.112  0.00  0.00    +0.000 C 
ENDBRANCH   6  33
TORSDOF 9
ENDMDL
MODEL 4
REMARK VINA RESULT:      -7.9      2.407      2.994
REMARK  Name = 
REMARK  12 active torsions:
REMARK  status: ('A' for Active; 'I' for Inactive)
REMARK    1  A    between atoms: C_1  and  C_2
REMARK    2  A    between atoms: C_2  and  C_3
REMARK    3  A    between atoms: C_3  and  C_4
REMARK    4  A    between atoms: C_4  and  C_5
REMARK    5  A    between atoms: C_7  and  C_8
REMARK    6  A    between atoms: C_11  and  C_12
REMARK    7  A    between atoms: C_15  and  C_16
REMARK    8  A    between atoms: C_16  and  C_17
REMARK    9  A    between atoms: C_20  and  O_21
REMARK   10  A    between atoms: C_26  and  O_27
REMARK   11  A    between atoms: O_27  and  C_28
REMARK   12  A    between atoms: C_30  and  C_31
REMARK                            x       y       z     vdW  Elec       q    Type
REMARK                         _______ _______ _______ _____ _____    ______ ____
ROOT
ATOM      1  C   UNL     1       4.314   3.896  19.014  0.00  0.00    +0.000 C 
ATOM      2  C   UNL     1       3.386   4.669  19.600  0.00  0.00    +0.000 C 
ATOM      3  N   UNL     1       3.168   5.999  19.320  0.00  0.00    +0.000 NA
ATOM      4  C   UNL     1       2.188   6.363  20.096  0.00  0.00    +0.000 C 
ATOM      5  C   UNL     1       1.664   5.294  20.972  0.00  0.00    +0.000 C 
ATOM      6  C   UNL     1       2.444   4.261  20.617  0.00  0.00    +0.000 C 
ENDROOT
BRANCH   1   9
ATOM      7  C   UNL     1       6.400   4.888  16.162  0.00  0.00    +0.000 A 
ATOM      8  C   UNL     1       5.489   3.951  16.737  0.00  0.00    +0.000 A 
ATOM      9  C   UNL     1       5.191   4.375  18.010  0.00  0.00    +0.000 A 
ATOM     10  N   UNL     1       5.941   5.501  18.237  0.00  0.00    +0.000 N 
ATOM     11  C   UNL     1       6.685   5.829  17.134  0.00  0.00    +0.000 A 
ATOM     12  C   UNL     1       7.565   7.021  17.142  0.00  0.00    +0.000 C 
ATOM     13  H   UNL     1       5.902   6.017  19.106  0.00  0.00    +0.000 HD
BRANCH   7  14
ATOM     14  C   UNL     1       6.905   4.847  14.759  0.00  0.00    +0.000 C 
BRANCH  14  15
ATOM     15  C   UNL     1       5.903   4.151  13.835  0.00  0.00    +0.000 C 
BRANCH  15  17
ATOM     16  C   UNL     1       5.788   2.653  11.833  0.00  0.00    +0.000 C 
ATOM     17  C   UNL     1       6.519   3.815  12.483  0.00  0.00    +0.000 C 
ENDBRANCH  15  17
ENDBRANCH  14  15
ENDBRANCH   7  14
ENDBRANCH   1   9
BRANCH   4  18
ATOM     18  C   UNL     1       1.733   7.727  20.030  0.00  0.00    +0.000 A 
ATOM     19  C   UNL     1       1.054   8.517  20.935  0.00  0.00    +0.000 A 
ATOM     20  C   UNL     1       0.890   9.807  20.362  0.00  0.00    +0.000 A 
ATOM     21  C   UNL     1       1.457   9.794  19.102  0.00  0.00    +0.000 A 
ATOM     22  N   UNL     1       1.948   8.526  18.908  0.00  0.00    +0.000 N 
ATOM     23  H   UNL     1       2.429   8.192  18.078  0.00  0.00    +0.000 HD
BRANCH  21  24
ATOM     24  C   UNL     1       1.607  10.900  18.089  0.00  0.00    +0.000 C 
BRANCH  24  25
ATOM     25  C   UNL     1       1.315  12.290  18.618  0.00  0.00    +0.000 A 
ATOM     26  C   UNL     1       2.344  13.106  19.115  0.00  0.00    +0.000 A 
ATOM     27  C   UNL     1       2.076  14.394  19.592  0.00  0.00    +0.000 A 
ATOM     28  C   UNL     1       0.775  14.879  19.557  0.00  0.00    +0.000 A 
ATOM     29  C   UNL     1      -0.254  14.108  19.034  0.00  0.00    +0.000 A 
ATOM     30  C   UNL     1       0.014  12.819  18.562  0.00  0.00    +0.000 A 
BRANCH  28  31
ATOM     31  O   UNL     1       0.465  16.120  20.032  0.00  0.00    +0.000 OA
ATOM     32  H   UNL     1       0.399  16.730  19.279  0.00  0.00    +0.000 HD
ENDBRANCH  28  31
ENDBRANCH  24  25
ENDBRANCH  21  24
ENDBRANCH   4  18
BRANCH   6  33
ATOM     33  O   UNL     1       2.508   2.963  21.019  0.00  0.00    +0.000 OA
ATOM     34  C   UNL     1       1.484   2.415  21.827  0.00  0.00    +0.000 C 
ENDBRANCH   6  33
TORSDOF 9
ENDMDL
MODEL 5
REMARK VINA RESULT:      -7.8      2.606      3.462
REMARK  Name = 
REMARK  12 active torsions:
REMARK  status: ('A' for Active; 'I' for Inactive)
REMARK    1  A    between atoms: C_1  and  C_2
REMARK    2  A    between atoms: C_2  and  C_3
REMARK    3  A    between atoms: C_3  and  C_4
REMARK    4  A    between atoms: C_4  and  C_5
REMARK    5  A    between atoms: C_7  and  C_8
REMARK    6  A    between atoms: C_11  and  C_12
REMARK    7  A    between atoms: C_15  and  C_16
REMARK    8  A    between atoms: C_16  and  C_17
REMARK    9  A    between atoms: C_20  and  O_21
REMARK   10  A    between atoms: C_26  and  O_27
REMARK   11  A    between atoms: O_27  and  C_28
REMARK   12  A    between atoms: C_30  and  C_31
REMARK                            x       y       z     vdW  Elec       q    Type
REMARK                         _______ _______ _______ _____ _____    ______ ____
ROOT
ATOM      1  C   UNL     1       4.140   4.461  19.361  0.00  0.00    +0.000 C 
ATOM      2  C   UNL     1       3.194   5.332  19.745  0.00  0.00    +0.000 C 
ATOM      3  N   UNL     1       2.999   6.583  19.204  0.00  0.00    +0.000 NA
ATOM      4  C   UNL     1       1.989   7.089  19.852  0.00  0.00    +0.000 C 
ATOM      5  C   UNL     1       1.419   6.209  20.894  0.00  0.00    +0.000 C 
ATOM      6  C   UNL     1       2.206   5.128  20.779  0.00  0.00    +0.000 C 
ENDROOT
BRANCH   1   9
ATOM      7  C   UNL     1       6.329   4.914  16.450  0.00  0.00    +0.000 A 
ATOM      8  C   UNL     1       5.339   4.133  17.119  0.00  0.00    +0.000 A 
ATOM      9  C   UNL     1       5.064   4.737  18.323  0.00  0.00    +0.000 A 
ATOM     10  N   UNL     1       5.901   5.818  18.422  0.00  0.00    +0.000 N 
ATOM     11  C   UNL     1       6.681   5.944  17.302  0.00  0.00    +0.000 A 
ATOM     12  C   UNL     1       7.656   7.053  17.179  0.00  0.00    +0.000 C 
ATOM     13  H   UNL     1       5.896   6.442  19.219  0.00  0.00    +0.000 HD
BRANCH   7  14
ATOM     14  C   UNL     1       6.843   4.655  15.074  0.00  0.00    +0.000 C 
BRANCH  14  15
ATOM     15  C   UNL     1       5.742   4.089  14.174  0.00  0.00    +0.000 C 
BRANCH  15  17
ATOM     16  C   UNL     1       5.157   3.216  11.902  0.00  0.00    +0.000 C 
ATOM     17  C   UNL     1       6.286   3.657  12.819  0.00  0.00    +0.000 C 
ENDBRANCH  15  17
ENDBRANCH  14  15
ENDBRANCH   7  14
ENDBRANCH   1   9
BRANCH   4  18
ATOM     18  C   UNL     1       1.548   8.415  19.504  0.00  0.00    +0.000 A 
ATOM     19  C   UNL     1       1.649   9.142  18.336  0.00  0.00    +0.000 A 
ATOM     20  C   UNL     1       1.005  10.394  18.536  0.00  0.00    +0.000 A 
ATOM     21  C   UNL     1       0.528  10.429  19.832  0.00  0.00    +0.000 A 
ATOM     22  N   UNL     1       0.877   9.233  20.410  0.00  0.00    +0.000 N 
ATOM     23  H   UNL     1       0.667   8.946  21.362  0.00  0.00    +0.000 HD
BRANCH  21  24
ATOM     24  C   UNL     1      -0.271  11.489  20.548  0.00  0.00    +0.000 C 
BRANCH  24  25
ATOM     25  C   UNL     1       0.530  12.702  20.981  0.00  0.00    +0.000 A 
ATOM     26  C   UNL     1       1.871  12.858  20.597  0.00  0.00    +0.000 A 
ATOM     27  C   UNL     1       2.606  13.984  20.986  0.00  0.00    +0.000 A 
ATOM     28  C   UNL     1       1.993  14.970  21.747  0.00  0.00    +0.000 A 
ATOM     29  C   UNL     1       0.656  14.860  22.106  0.00  0.00    +0.000 A 
ATOM     30  C   UNL     1      -0.076  13.732  21.721  0.00  0.00    +0.000 A 
BRANCH  28  31
ATOM     31  O   UNL     1       2.677  16.074  22.167  0.00  0.00    +0.000 OA
ATOM     32  H   UNL     1       2.985  15.918  23.074  0.00  0.00    +0.000 HD
ENDBRANCH  28  31
ENDBRANCH  24  25
ENDBRANCH  21  24
ENDBRANCH   4  18
BRANCH   6  33
ATOM     33  O   UNL     1       2.242   3.932  21.427  0.00  0.00    +0.000 OA
ATOM     34  C   UNL     1       1.310   2.917  21.105  0.00  0.00    +0.000 C 
ENDBRANCH   6  33
TORSDOF 9
ENDMDL
MODEL 6
REMARK VINA RESULT:      -7.8      1.373      3.123
REMARK  Name = 
REMARK  12 active torsions:
REMARK  status: ('A' for Active; 'I' for Inactive)
REMARK    1  A    between atoms: C_1  and  C_2
REMARK    2  A    between atoms: C_2  and  C_3
REMARK    3  A    between atoms: C_3  and  C_4
REMARK    4  A    between atoms: C_4  and  C_5
REMARK    5  A    between atoms: C_7  and  C_8
REMARK    6  A    between atoms: C_11  and  C_12
REMARK    7  A    between atoms: C_15  and  C_16
REMARK    8  A    between atoms: C_16  and  C_17
REMARK    9  A    between atoms: C_20  and  O_21
REMARK   10  A    between atoms: C_26  and  O_27
REMARK   11  A    between atoms: O_27  and  C_28
REMARK   12  A    between atoms: C_30  and  C_31
REMARK                            x       y       z     vdW  Elec       q    Type
REMARK                         _______ _______ _______ _____ _____    ______ ____
ROOT
ATOM      1  C   UNL     1       4.285   4.361  18.815  0.00  0.00    +0.000 C 
ATOM      2  C   UNL     1       3.293   4.973  19.482  0.00  0.00    +0.000 C 
ATOM      3  N   UNL     1       3.065   6.330  19.495  0.00  0.00    +0.000 NA
ATOM      4  C   UNL     1       2.017   6.501  20.248  0.00  0.00    +0.000 C 
ATOM      5  C   UNL     1       1.451   5.256  20.809  0.00  0.00    +0.000 C 
ATOM      6  C   UNL     1       2.282   4.337  20.295  0.00  0.00    +0.000 C 
ENDROOT
BRANCH   1   9
ATOM      7  C   UNL     1       6.826   6.377  17.100  0.00  0.00    +0.000 A 
ATOM      8  C   UNL     1       5.983   6.192  18.236  0.00  0.00    +0.000 A 
ATOM      9  C   UNL     1       5.229   5.062  18.025  0.00  0.00    +0.000 A 
ATOM     10  N   UNL     1       5.549   4.601  16.773  0.00  0.00    +0.000 N 
ATOM     11  C   UNL     1       6.511   5.384  16.191  0.00  0.00    +0.000 A 
ATOM     12  C   UNL     1       7.026   5.068  14.837  0.00  0.00    +0.000 C 
ATOM     13  H   UNL     1       5.134   3.769  16.374  0.00  0.00    +0.000 HD
BRANCH   7  14
ATOM     14  C   UNL     1       7.866   7.439  16.964  0.00  0.00    +0.000 C 
BRANCH  14  15
ATOM     15  C   UNL     1       8.048   8.199  18.279  0.00  0.00    +0.000 C 
BRANCH  15  17
ATOM     16  C   UNL     1       9.309  10.147  19.218  0.00  0.00    +0.000 C 
ATOM     17  C   UNL     1       8.489   9.638  18.045  0.00  0.00    +0.000 C 
ENDBRANCH  15  17
ENDBRANCH  14  15
ENDBRANCH   7  14
ENDBRANCH   1   9
BRANCH   4  18
ATOM     18  C   UNL     1       1.534   7.841  20.456  0.00  0.00    +0.000 A 
ATOM     19  C   UNL     1       1.355   8.587  21.602  0.00  0.00    +0.000 A 
ATOM     20  C   UNL     1       0.881   9.873  21.224  0.00  0.00    +0.000 A 
ATOM     21  C   UNL     1       0.759   9.899  19.849  0.00  0.00    +0.000 A 
ATOM     22  N   UNL     1       1.142   8.660  19.398  0.00  0.00    +0.000 N 
ATOM     23  H   UNL     1       1.169   8.358  18.429  0.00  0.00    +0.000 HD
BRANCH  21  24
ATOM     24  C   UNL     1       0.351  11.021  18.927  0.00  0.00    +0.000 C 
BRANCH  24  25
ATOM     25  C   UNL     1      -1.105  10.998  18.507  0.00  0.00    +0.000 A 
ATOM     26  C   UNL     1      -2.022  11.929  19.023  0.00  0.00    +0.000 A 
ATOM     27  C   UNL     1      -3.364  11.916  18.626  0.00  0.00    +0.000 A 
ATOM     28  C   UNL     1      -3.791  10.980  17.693  0.00  0.00    +0.000 A 
ATOM     29  C   UNL     1      -2.897  10.076  17.137  0.00  0.00    +0.000 A 
ATOM     30  C   UNL     1      -1.557  10.086  17.538  0.00  0.00    +0.000 A 
BRANCH  28  31
ATOM     31  O   UNL     1      -5.094  10.918  17.293  0.00  0.00    +0.000 OA
ATOM     32  H   UNL     1      -5.137  10.417  16.462  0.00  0.00    +0.000 HD
ENDBRANCH  28  31
ENDBRANCH  24  25
ENDBRANCH  21  24
ENDBRANCH   4  18
BRANCH   6  33
ATOM     33  O   UNL     1       2.346   2.982  20.395  0.00  0.00    +0.000 OA
ATOM     34  C   UNL     1       2.596   2.368  21.645  0.00  0.00    +0.000 C 
ENDBRANCH   6  33
TORSDOF 9
ENDMDL
MODEL 7
REMARK VINA RESULT:      -7.8      3.252     10.255
REMARK  Name = 
REMARK  12 active torsions:
REMARK  status: ('A' for Active; 'I' for Inactive)
REMARK    1  A    between atoms: C_1  and  C_2
REMARK    2  A    between atoms: C_2  and  C_3
REMARK    3  A    between atoms: C_3  and  C_4
REMARK    4  A    between atoms: C_4  and  C_5
REMARK    5  A    between atoms: C_7  and  C_8
REMARK    6  A    between atoms: C_11  and  C_12
REMARK    7  A    between atoms: C_15  and  C_16
REMARK    8  A    between atoms: C_16  and  C_17
REMARK    9  A    between atoms: C_20  and  O_21
REMARK   10  A    between atoms: C_26  and  O_27
REMARK   11  A    between atoms: O_27  and  C_28
REMARK   12  A    between atoms: C_30  and  C_31
REMARK                            x       y       z     vdW  Elec       q    Type
REMARK                         _______ _______ _______ _____ _____    ______ ____
ROOT
ATOM      1  C   UNL     1      -2.017  12.903  19.789  0.00  0.00    +0.000 C 
ATOM      2  C   UNL     1      -0.886  12.254  20.108  0.00  0.00    +0.000 C 
ATOM      3  N   UNL     1      -0.618  10.936  19.817  0.00  0.00    +0.000 NA
ATOM      4  C   UNL     1       0.573  10.709  20.292  0.00  0.00    +0.000 C 
ATOM      5  C   UNL     1       1.207  11.871  20.950  0.00  0.00    +0.000 C 
ATOM      6  C   UNL     1       0.255  12.805  20.802  0.00  0.00    +0.000 C 
ENDROOT
BRANCH   1   9
ATOM      7  C   UNL     1      -5.023  11.433  18.281  0.00  0.00    +0.000 A 
ATOM      8  C   UNL     1      -4.380  11.974  19.435  0.00  0.00    +0.000 A 
ATOM      9  C   UNL     1      -3.087  12.288  19.092  0.00  0.00    +0.000 A 
ATOM     10  N   UNL     1      -2.917  11.895  17.789  0.00  0.00    +0.000 N 
ATOM     11  C   UNL     1      -4.074  11.370  17.277  0.00  0.00    +0.000 A 
ATOM     12  C   UNL     1      -4.133  10.890  15.876  0.00  0.00    +0.000 C 
ATOM     13  H   UNL     1      -2.046  12.021  17.289  0.00  0.00    +0.000 HD
BRANCH   7  14
ATOM     14  C   UNL     1      -6.462  11.047  18.199  0.00  0.00    +0.000 C 
BRANCH  14  15
ATOM     15  C   UNL     1      -7.211  11.449  19.472  0.00  0.00    +0.000 C 
BRANCH  15  17
ATOM     16  C   UNL     1      -7.069   8.959  19.678  0.00  0.00    +0.000 C 
ATOM     17  C   UNL     1      -7.592  10.237  20.311  0.00  0.00    +0.000 C 
ENDBRANCH  15  17
ENDBRANCH  14  15
ENDBRANCH   7  14
ENDBRANCH   1   9
BRANCH   4  18
ATOM     18  C   UNL     1       1.131   9.391  20.139  0.00  0.00    +0.000 A 
ATOM     19  C   UNL     1       1.187   8.309  20.993  0.00  0.00    +0.000 A 
ATOM     20  C   UNL     1       1.828   7.239  20.312  0.00  0.00    +0.000 A 
ATOM     21  C   UNL     1       2.174   7.679  19.049  0.00  0.00    +0.000 A 
ATOM     22  N   UNL     1       1.762   8.986  18.963  0.00  0.00    +0.000 N 
ATOM     23  H   UNL     1       1.867   9.595  18.157  0.00  0.00    +0.000 HD
BRANCH  21  24
ATOM     24  C   UNL     1       2.825   6.943  17.905  0.00  0.00    +0.000 C 
BRANCH  24  25
ATOM     25  C   UNL     1       2.863   5.436  18.059  0.00  0.00    +0.000 A 
ATOM     26  C   UNL     1       4.020   4.784  18.517  0.00  0.00    +0.000 A 
ATOM     27  C   UNL     1       4.051   3.394  18.671  0.00  0.00    +0.000 A 
ATOM     28  C   UNL     1       2.913   2.649  18.385  0.00  0.00    +0.000 A 
ATOM     29  C   UNL     1       1.745   3.272  17.970  0.00  0.00    +0.000 A 
ATOM     30  C   UNL     1       1.716   4.662  17.811  0.00  0.00    +0.000 A 
BRANCH  28  31
ATOM     31  O   UNL     1       2.906   1.289  18.501  0.00  0.00    +0.000 OA
ATOM     32  H   UNL     1       2.140   0.944  18.014  0.00  0.00    +0.000 HD
ENDBRANCH  28  31
ENDBRANCH  24  25
ENDBRANCH  21  24
ENDBRANCH   4  18
BRANCH   6  33
ATOM     33  O   UNL     1       0.171  14.113  21.167  0.00  0.00    +0.000 OA
ATOM     34  C   UNL     1      -0.190  14.463  22.490  0.00  0.00    +0.000 C 
ENDBRANCH   6  33
TORSDOF 9
ENDMDL
MODEL 8
REMARK VINA RESULT:      -7.7      0.776      1.161
REMARK  Name = 
REMARK  12 active torsions:
REMARK  status: ('A' for Active; 'I' for Inactive)
REMARK    1  A    between atoms: C_1  and  C_2
REMARK    2  A    between atoms: C_2  and  C_3
REMARK    3  A    between atoms: C_3  and  C_4
REMARK    4  A    between atoms: C_4  and  C_5
REMARK    5  A    between atoms: C_7  and  C_8
REMARK    6  A    between atoms: C_11  and  C_12
REMARK    7  A    between atoms: C_15  and  C_16
REMARK    8  A    between atoms: C_16  and  C_17
REMARK    9  A    between atoms: C_20  and  O_21
REMARK   10  A    between atoms: C_26  and  O_27
REMARK   11  A    between atoms: O_27  and  C_28
REMARK   12  A    between atoms: C_30  and  C_31
REMARK                            x       y       z     vdW  Elec       q    Type
REMARK                         _______ _______ _______ _____ _____    ______ ____
ROOT
ATOM      1  C   UNL     1       3.883   4.193  19.445  0.00  0.00    +0.000 C 
ATOM      2  C   UNL     1       3.022   5.166  19.781  0.00  0.00    +0.000 C 
ATOM      3  N   UNL     1       2.934   6.396  19.169  0.00  0.00    +0.000 NA
ATOM      4  C   UNL     1       1.980   7.027  19.789  0.00  0.00    +0.000 C 
ATOM      5  C   UNL     1       1.343   6.264  20.884  0.00  0.00    +0.000 C 
ATOM      6  C   UNL     1       2.029   5.111  20.830  0.00  0.00    +0.000 C 
ENDROOT
BRANCH   1   9
ATOM      7  C   UNL     1       6.001   4.665  16.485  0.00  0.00    +0.000 A 
ATOM      8  C   UNL     1       4.691   4.541  17.037  0.00  0.00    +0.000 A 
ATOM      9  C   UNL     1       4.818   4.324  18.388  0.00  0.00    +0.000 A 
ATOM     10  N   UNL     1       6.162   4.254  18.652  0.00  0.00    +0.000 N 
ATOM     11  C   UNL     1       6.899   4.452  17.514  0.00  0.00    +0.000 A 
ATOM     12  C   UNL     1       8.381   4.434  17.560  0.00  0.00    +0.000 C 
ATOM     13  H   UNL     1       6.529   4.105  19.583  0.00  0.00    +0.000 HD
BRANCH   7  14
ATOM     14  C   UNL     1       6.308   4.995  15.063  0.00  0.00    +0.000 C 
BRANCH  14  15
ATOM     15  C   UNL     1       6.324   3.732  14.198  0.00  0.00    +0.000 C 
BRANCH  15  17
ATOM     16  C   UNL     1       5.751   2.915  11.903  0.00  0.00    +0.000 C 
ATOM     17  C   UNL     1       5.331   3.822  13.048  0.00  0.00    +0.000 C 
ENDBRANCH  15  17
ENDBRANCH  14  15
ENDBRANCH   7  14
ENDBRANCH   1   9
BRANCH   4  18
ATOM     18  C   UNL     1       1.655   8.364  19.366  0.00  0.00    +0.000 A 
ATOM     19  C   UNL     1       2.137   9.147  18.337  0.00  0.00    +0.000 A 
ATOM     20  C   UNL     1       1.434  10.383  18.354  0.00  0.00    +0.000 A 
ATOM     21  C   UNL     1       0.536  10.353  19.403  0.00  0.00    +0.000 A 
ATOM     22  N   UNL     1       0.691   9.133  20.016  0.00  0.00    +0.000 N 
ATOM     23  H   UNL     1       0.172   8.799  20.823  0.00  0.00    +0.000 HD
BRANCH  21  24
ATOM     24  C   UNL     1      -0.486  11.371  19.842  0.00  0.00    +0.000 C 
BRANCH  24  25
ATOM     25  C   UNL     1      -1.823  11.274  19.133  0.00  0.00    +0.000 A 
ATOM     26  C   UNL     1      -2.073  10.258  18.197  0.00  0.00    +0.000 A 
ATOM     27  C   UNL     1      -3.311  10.161  17.551  0.00  0.00    +0.000 A 
ATOM     28  C   UNL     1      -4.313  11.073  17.856  0.00  0.00    +0.000 A 
ATOM     29  C   UNL     1      -4.105  12.062  18.807  0.00  0.00    +0.000 A 
ATOM     30  C   UNL     1      -2.866  12.161  19.448  0.00  0.00    +0.000 A 
BRANCH  28  31
ATOM     31  O   UNL     1      -5.528  11.029  17.235  0.00  0.00    +0.000 OA
ATOM     32  H   UNL     1      -6.200  11.364  17.851  0.00  0.00    +0.000 HD
ENDBRANCH  28  31
ENDBRANCH  24  25
ENDBRANCH  21  24
ENDBRANCH   4  18
BRANCH   6  33
ATOM     33  O   UNL     1       1.965   3.957  21.547  0.00  0.00    +0.000 OA
ATOM     34  C   UNL     1       1.094   2.916  21.147  0.00  0.00    +0.000 C 
ENDBRANCH   6  33
TORSDOF 9
ENDMDL
MODEL 9
REMARK VINA RESULT:      -7.5      2.768     10.405
REMARK  Name = 
REMARK  12 active torsions:
REMARK  status: ('A' for Active; 'I' for Inactive)
REMARK    1  A    between atoms: C_1  and  C_2
REMARK    2  A    between atoms: C_2  and  C_3
REMARK    3  A    between atoms: C_3  and  C_4
REMARK    4  A    between atoms: C_4  and  C_5
REMARK    5  A    between atoms: C_7  and  C_8
REMARK    6  A    between atoms: C_11  and  C_12
REMARK    7  A    between atoms: C_15  and  C_16
REMARK    8  A    between atoms: C_16  and  C_17
REMARK    9  A    between atoms: C_20  and  O_21
REMARK   10  A    between atoms: C_26  and  O_27
REMARK   11  A    between atoms: O_27  and  C_28
REMARK   12  A    between atoms: C_30  and  C_31
REMARK                            x       y       z     vdW  Elec       q    Type
REMARK                         _______ _______ _______ _____ _____    ______ ____
ROOT
ATOM      1  C   UNL     1      -2.091  12.062  20.129  0.00  0.00    +0.000 C 
ATOM      2  C   UNL     1      -0.940  11.385  20.267  0.00  0.00    +0.000 C 
ATOM      3  N   UNL     1      -0.466  10.436  19.390  0.00  0.00    +0.000 NA
ATOM      4  C   UNL     1       0.668  10.036  19.889  0.00  0.00    +0.000 C 
ATOM      5  C   UNL     1       1.050  10.690  21.158  0.00  0.00    +0.000 C 
ATOM      6  C   UNL     1       0.015  11.524  21.343  0.00  0.00    +0.000 C 
ENDROOT
BRANCH   1   9
ATOM      7  C   UNL     1      -4.633  11.772  17.498  0.00  0.00    +0.000 A 
ATOM      8  C   UNL     1      -4.321  12.037  18.865  0.00  0.00    +0.000 A 
ATOM      9  C   UNL     1      -2.966  11.875  19.030  0.00  0.00    +0.000 A 
ATOM     10  N   UNL     1      -2.467  11.462  17.821  0.00  0.00    +0.000 N 
ATOM     11  C   UNL     1      -3.458  11.388  16.878  0.00  0.00    +0.000 A 
ATOM     12  C   UNL     1      -3.150  10.976  15.488  0.00  0.00    +0.000 C 
ATOM     13  H   UNL     1      -1.484  11.276  17.670  0.00  0.00    +0.000 HD
BRANCH   7  14
ATOM     14  C   UNL     1      -5.982  11.922  16.878  0.00  0.00    +0.000 C 
BRANCH  14  15
ATOM     15  C   UNL     1      -7.059  12.109  17.949  0.00  0.00    +0.000 C 
BRANCH  15  17
ATOM     16  C   UNL     1      -7.049  14.354  16.841  0.00  0.00    +0.000 C 
ATOM     17  C   UNL     1      -7.805  13.426  17.777  0.00  0.00    +0.000 C 
ENDBRANCH  15  17
ENDBRANCH  14  15
ENDBRANCH   7  14
ENDBRANCH   1   9
BRANCH   4  18
ATOM     18  C   UNL     1       1.408   9.024  19.181  0.00  0.00    +0.000 A 
ATOM     19  C   UNL     1       1.818   8.933  17.867  0.00  0.00    +0.000 A 
ATOM     20  C   UNL     1       2.553   7.726  17.715  0.00  0.00    +0.000 A 
ATOM     21  C   UNL     1       2.574   7.078  18.935  0.00  0.00    +0.000 A 
ATOM     22  N   UNL     1       1.865   7.866  19.808  0.00  0.00    +0.000 N 
ATOM     23  H   UNL     1       1.698   7.669  20.791  0.00  0.00    +0.000 HD
BRANCH  21  24
ATOM     24  C   UNL     1       3.251   5.795  19.347  0.00  0.00    +0.000 C 
BRANCH  24  25
ATOM     25  C   UNL     1       4.490   5.446  18.545  0.00  0.00    +0.000 A 
ATOM     26  C   UNL     1       5.766   5.492  19.129  0.00  0.00    +0.000 A 
ATOM     27  C   UNL     1       6.908   5.157  18.393  0.00  0.00    +0.000 A 
ATOM     28  C   UNL     1       6.774   4.755  17.070  0.00  0.00    +0.000 A 
ATOM     29  C   UNL     1       5.521   4.662  16.481  0.00  0.00    +0.000 A 
ATOM     30  C   UNL     1       4.380   5.001  17.216  0.00  0.00    +0.000 A 
BRANCH  28  31
ATOM     31  O   UNL     1       7.863   4.440  16.309  0.00  0.00    +0.000 OA
ATOM     32  H   UNL     1       7.846   3.486  16.128  0.00  0.00    +0.000 HD
ENDBRANCH  28  31
ENDBRANCH  24  25
ENDBRANCH  21  24
ENDBRANCH   4  18
BRANCH   6  33
ATOM     33  O   UNL     1      -0.286  12.431  22.311  0.00  0.00    +0.000 OA
ATOM     34  C   UNL     1      -1.381  12.211  23.180  0.00  0.00    +0.000 C 
ENDBRANCH   6  33
TORSDOF 9
ENDMDL
