MODEL 1
REMARK VINA RESULT:      -6.8      0.000      0.000
REMARK  Name = 
REMARK  4 active torsions:
REMARK  status: ('A' for Active; 'I' for Inactive)
REMARK    1  A    between atoms: C_1  and  C_2
REMARK    2  A    between atoms: C_3  and  N_4
REMARK    3  A    between atoms: N_4  and  C_5
REMARK    4  A    between atoms: C_5  and  C_6
REMARK                            x       y       z     vdW  Elec       q    Type
REMARK                         _______ _______ _______ _____ _____    ______ ____
ROOT
ATOM      1  C   UNL     1       2.824   6.959  18.330  0.00  0.00    +0.000 C 
ATOM      2  C   UNL     1       3.474   5.655  18.722  0.00  0.00    +0.000 A 
ATOM      3  C   UNL     1       4.789   5.297  18.311  0.00  0.00    +0.000 A 
ATOM      4  C   UNL     1       5.319   4.069  18.744  0.00  0.00    +0.000 A 
ATOM      5  C   UNL     1       4.611   3.187  19.564  0.00  0.00    +0.000 A 
ATOM      6  C   UNL     1       3.319   3.549  19.950  0.00  0.00    +0.000 A 
ATOM      7  S   UNL     1       2.192   2.682  20.923  0.00  0.00    +0.000 S 
ATOM      8  N   UNL     1       0.985   3.811  20.860  0.00  0.00    +0.000 NA
ATOM      9  C   UNL     1       1.412   4.827  20.118  0.00  0.00    +0.000 A 
ATOM     10  C   UNL     1       2.737   4.753  19.556  0.00  0.00    +0.000 A 
ENDROOT
BRANCH   3  11
ATOM     11  N   UNL     1       5.504   6.083  17.405  0.00  0.00    +0.000 N 
ATOM     12  H   UNL     1       5.481   7.088  17.556  0.00  0.00    +0.000 HD
BRANCH  11  13
ATOM     13  C   UNL     1       6.832   5.682  16.935  0.00  0.00    +0.000 C 
BRANCH  13  14
ATOM     14  C   UNL     1       6.845   5.180  15.505  0.00  0.00    +0.000 A 
ATOM     15  N   UNL     1       7.742   5.526  14.592  0.00  0.00    +0.000 NA
ATOM     16  C   UNL     1       7.458   4.880  13.401  0.00  0.00    +0.000 A 
ATOM     17  C   UNL     1       6.365   4.049  13.440  0.00  0.00    +0.000 A 
ATOM     18 CL   UNL     1       5.725   3.094  12.176  0.00  0.00    +0.000 Cl
ATOM     19  S   UNL     1       5.648   4.057  14.975  0.00  0.00    +0.000 S 
ENDBRANCH  13  14
ENDBRANCH  11  13
ENDBRANCH   3  11
TORSDOF 3
ENDMDL
MODEL 2
REMARK VINA RESULT:      -6.7      2.844      3.376
REMARK  Name = 
REMARK  4 active torsions:
REMARK  status: ('A' for Active; 'I' for Inactive)
REMARK    1  A    between atoms: C_1  and  C_2
REMARK    2  A    between atoms: C_3  and  N_4
REMARK    3  A    between atoms: N_4  and  C_5
REMARK    4  A    between atoms: C_5  and  C_6
REMARK                            x       y       z     vdW  Elec       q    Type
REMARK                         _______ _______ _______ _____ _____    ______ ____
ROOT
ATOM      1  C   UNL     1       3.632   6.306  17.684  0.00  0.00    +0.000 C 
ATOM      2  C   UNL     1       3.444   4.828  17.928  0.00  0.00    +0.000 A 
ATOM      3  C   UNL     1       4.124   3.832  17.172  0.00  0.00    +0.000 A 
ATOM      4  C   UNL     1       3.900   2.480  17.486  0.00  0.00    +0.000 A 
ATOM      5  C   UNL     1       3.043   2.073  18.511  0.00  0.00    +0.000 A 
ATOM      6  C   UNL     1       2.377   3.063  19.236  0.00  0.00    +0.000 A 
ATOM      7  S   UNL     1       1.249   2.892  20.526  0.00  0.00    +0.000 S 
ATOM      8  N   UNL     1       0.992   4.509  20.765  0.00  0.00    +0.000 NA
ATOM      9  C   UNL     1       1.737   5.175  19.890  0.00  0.00    +0.000 A 
ATOM     10  C   UNL     1       2.555   4.421  18.976  0.00  0.00    +0.000 A 
ENDROOT
BRANCH   3  11
ATOM     11  N   UNL     1       4.907   4.170  16.067  0.00  0.00    +0.000 N 
ATOM     12  H   UNL     1       4.627   4.995  15.544  0.00  0.00    +0.000 HD
BRANCH  11  13
ATOM     13  C   UNL     1       6.369   4.089  16.120  0.00  0.00    +0.000 C 
BRANCH  13  14
ATOM     14  C   UNL     1       6.995   5.051  17.111  0.00  0.00    +0.000 A 
ATOM     15  N   UNL     1       7.425   4.717  18.319  0.00  0.00    +0.000 NA
ATOM     16  C   UNL     1       7.942   5.835  18.949  0.00  0.00    +0.000 A 
ATOM     17  C   UNL     1       7.906   6.988  18.202  0.00  0.00    +0.000 A 
ATOM     18 CL   UNL     1       8.454   8.545  18.644  0.00  0.00    +0.000 Cl
ATOM     19  S   UNL     1       7.213   6.708  16.682  0.00  0.00    +0.000 S 
ENDBRANCH  13  14
ENDBRANCH  11  13
ENDBRANCH   3  11
TORSDOF 3
ENDMDL
MODEL 3
REMARK VINA RESULT:      -6.7      1.229      1.986
REMARK  Name = 
REMARK  4 active torsions:
REMARK  status: ('A' for Active; 'I' for Inactive)
REMARK    1  A    between atoms: C_1  and  C_2
REMARK    2  A    between atoms: C_3  and  N_4
REMARK    3  A    between atoms: N_4  and  C_5
REMARK    4  A    between atoms: C_5  and  C_6
REMARK                            x       y       z     vdW  Elec       q    Type
REMARK                         _______ _______ _______ _____ _____    ______ ____
ROOT
ATOM      1  C   UNL     1       4.270   1.736  17.962  0.00  0.00    +0.000 C 
ATOM      2  C   UNL     1       4.049   3.089  18.592  0.00  0.00    +0.000 A 
ATOM      3  C   UNL     1       5.029   4.122  18.559  0.00  0.00    +0.000 A 
ATOM      4  C   UNL     1       4.724   5.358  19.155  0.00  0.00    +0.000 A 
ATOM      5  C   UNL     1       3.499   5.617  19.774  0.00  0.00    +0.000 A 
ATOM      6  C   UNL     1       2.553   4.591  19.805  0.00  0.00    +0.000 A 
ATOM      7  S   UNL     1       0.979   4.585  20.506  0.00  0.00    +0.000 S 
ATOM      8  N   UNL     1       0.595   3.031  20.085  0.00  0.00    +0.000 NA
ATOM      9  C   UNL     1       1.630   2.516  19.430  0.00  0.00    +0.000 A 
ATOM     10  C   UNL     1       2.792   3.343  19.232  0.00  0.00    +0.000 A 
ENDROOT
BRANCH   3  11
ATOM     11  N   UNL     1       6.309   3.890  18.053  0.00  0.00    +0.000 N 
ATOM     12  H   UNL     1       6.478   2.977  17.639  0.00  0.00    +0.000 HD
BRANCH  11  13
ATOM     13  C   UNL     1       7.022   4.918  17.292  0.00  0.00    +0.000 C 
BRANCH  13  14
ATOM     14  C   UNL     1       6.928   4.738  15.790  0.00  0.00    +0.000 A 
ATOM     15  N   UNL     1       7.694   5.360  14.906  0.00  0.00    +0.000 NA
ATOM     16  C   UNL     1       7.342   4.958  13.629  0.00  0.00    +0.000 A 
ATOM     17  C   UNL     1       6.329   4.032  13.573  0.00  0.00    +0.000 A 
ATOM     18 CL   UNL     1       5.641   3.309  12.186  0.00  0.00    +0.000 Cl
ATOM     19  S   UNL     1       5.777   3.638  15.125  0.00  0.00    +0.000 S 
ENDBRANCH  13  14
ENDBRANCH  11  13
ENDBRANCH   3  11
TORSDOF 3
ENDMDL
MODEL 4
REMARK VINA RESULT:      -6.6      1.347      1.368
REMARK  Name = 
REMARK  4 active torsions:
REMARK  status: ('A' for Active; 'I' for Inactive)
REMARK    1  A    between atoms: C_1  and  C_2
REMARK    2  A    between atoms: C_3  and  N_4
REMARK    3  A    between atoms: N_4  and  C_5
REMARK    4  A    between atoms: C_5  and  C_6
REMARK                            x       y       z     vdW  Elec       q    Type
REMARK                         _______ _______ _______ _____ _____    ______ ____
ROOT
ATOM      1  C   UNL     1       3.785   6.312  17.388  0.00  0.00    +0.000 C 
ATOM      2  C   UNL     1       3.938   5.018  18.149  0.00  0.00    +0.000 A 
ATOM      3  C   UNL     1       5.177   4.600  18.714  0.00  0.00    +0.000 A 
ATOM      4  C   UNL     1       5.218   3.388  19.424  0.00  0.00    +0.000 A 
ATOM      5  C   UNL     1       4.094   2.578  19.603  0.00  0.00    +0.000 A 
ATOM      6  C   UNL     1       2.890   2.997  19.035  0.00  0.00    +0.000 A 
ATOM      7  S   UNL     1       1.352   2.222  19.052  0.00  0.00    +0.000 S 
ATOM      8  N   UNL     1       0.552   3.377  18.178  0.00  0.00    +0.000 NA
ATOM      9  C   UNL     1       1.422   4.333  17.870  0.00  0.00    +0.000 A 
ATOM     10  C   UNL     1       2.782   4.189  18.320  0.00  0.00    +0.000 A 
ENDROOT
BRANCH   3  11
ATOM     11  N   UNL     1       6.356   5.309  18.478  0.00  0.00    +0.000 N 
ATOM     12  H   UNL     1       6.753   5.811  19.268  0.00  0.00    +0.000 HD
BRANCH  11  13
ATOM     13  C   UNL     1       7.432   4.742  17.661  0.00  0.00    +0.000 C 
BRANCH  13  14
ATOM     14  C   UNL     1       7.115   4.705  16.179  0.00  0.00    +0.000 A 
ATOM     15  N   UNL     1       7.626   5.532  15.278  0.00  0.00    +0.000 NA
ATOM     16  C   UNL     1       7.127   5.213  14.027  0.00  0.00    +0.000 A 
ATOM     17  C   UNL     1       6.263   4.145  14.004  0.00  0.00    +0.000 A 
ATOM     18 CL   UNL     1       5.464   3.467  12.654  0.00  0.00    +0.000 Cl
ATOM     19  S   UNL     1       6.040   3.508  15.558  0.00  0.00    +0.000 S 
ENDBRANCH  13  14
ENDBRANCH  11  13
ENDBRANCH   3  11
TORSDOF 3
ENDMDL
MODEL 5
REMARK VINA RESULT:      -6.3      5.409      7.840
REMARK  Name = 
REMARK  4 active torsions:
REMARK  status: ('A' for Active; 'I' for Inactive)
REMARK    1  A    between atoms: C_1  and  C_2
REMARK    2  A    between atoms: C_3  and  N_4
REMARK    3  A    between atoms: N_4  and  C_5
REMARK    4  A    between atoms: C_5  and  C_6
REMARK                            x       y       z     vdW  Elec       q    Type
REMARK                         _______ _______ _______ _____ _____    ______ ____
ROOT
ATOM      1  C   UNL     1       3.339   6.833  17.818  0.00  0.00    +0.000 C 
ATOM      2  C   UNL     1       2.628   5.931  18.797  0.00  0.00    +0.000 A 
ATOM      3  C   UNL     1       2.029   6.416  19.994  0.00  0.00    +0.000 A 
ATOM      4  C   UNL     1       1.371   5.502  20.835  0.00  0.00    +0.000 A 
ATOM      5  C   UNL     1       1.277   4.139  20.544  0.00  0.00    +0.000 A 
ATOM      6  C   UNL     1       1.878   3.679  19.371  0.00  0.00    +0.000 A 
ATOM      7  S   UNL     1       1.961   2.074  18.750  0.00  0.00    +0.000 S 
ATOM      8  N   UNL     1       2.818   2.448  17.385  0.00  0.00    +0.000 NA
ATOM      9  C   UNL     1       3.046   3.757  17.390  0.00  0.00    +0.000 A 
ATOM     10  C   UNL     1       2.544   4.533  18.495  0.00  0.00    +0.000 A 
ENDROOT
BRANCH   3  11
ATOM     11  N   UNL     1       2.182   7.745  20.394  0.00  0.00    +0.000 N 
ATOM     12  H   UNL     1       3.132   8.107  20.419  0.00  0.00    +0.000 HD
BRANCH  11  13
ATOM     13  C   UNL     1       1.266   8.788  19.929  0.00  0.00    +0.000 C 
BRANCH  13  14
ATOM     14  C   UNL     1       0.523   9.490  21.049  0.00  0.00    +0.000 A 
ATOM     15  N   UNL     1       0.133   8.909  22.175  0.00  0.00    +0.000 NA
ATOM     16  C   UNL     1      -0.508   9.841  22.973  0.00  0.00    +0.000 A 
ATOM     17  C   UNL     1      -0.578  11.107  22.443  0.00  0.00    +0.000 A 
ATOM     18 CL   UNL     1      -1.283  12.500  23.138  0.00  0.00    +0.000 Cl
ATOM     19  S   UNL     1       0.154  11.170  20.917  0.00  0.00    +0.000 S 
ENDBRANCH  13  14
ENDBRANCH  11  13
ENDBRANCH   3  11
TORSDOF 3
ENDMDL
MODEL 6
REMARK VINA RESULT:      -6.3      2.611      3.442
REMARK  Name = 
REMARK  4 active torsions:
REMARK  status: ('A' for Active; 'I' for Inactive)
REMARK    1  A    between atoms: C_1  and  C_2
REMARK    2  A    between atoms: C_3  and  N_4
REMARK    3  A    between atoms: N_4  and  C_5
REMARK    4  A    between atoms: C_5  and  C_6
REMARK                            x       y       z     vdW  Elec       q    Type
REMARK                         _______ _______ _______ _____ _____    ______ ____
ROOT
ATOM      1  C   UNL     1       2.420   5.193  20.817  0.00  0.00    +0.000 C 
ATOM      2  C   UNL     1       2.543   6.291  19.789  0.00  0.00    +0.000 A 
ATOM      3  C   UNL     1       3.332   6.158  18.612  0.00  0.00    +0.000 A 
ATOM      4  C   UNL     1       3.369   7.228  17.702  0.00  0.00    +0.000 A 
ATOM      5  C   UNL     1       2.661   8.415  17.901  0.00  0.00    +0.000 A 
ATOM      6  C   UNL     1       1.899   8.533  19.065  0.00  0.00    +0.000 A 
ATOM      7  S   UNL     1       0.945   9.860  19.610  0.00  0.00    +0.000 S 
ATOM      8  N   UNL     1       0.427   9.153  21.013  0.00  0.00    +0.000 NA
ATOM      9  C   UNL     1       0.961   7.938  21.081  0.00  0.00    +0.000 A 
ATOM     10  C   UNL     1       1.820   7.509  20.007  0.00  0.00    +0.000 A 
ENDROOT
BRANCH   3  11
ATOM     11  N   UNL     1       4.147   5.043  18.409  0.00  0.00    +0.000 N 
ATOM     12  H   UNL     1       3.795   4.329  17.777  0.00  0.00    +0.000 HD
BRANCH  11  13
ATOM     13  C   UNL     1       5.596   5.182  18.240  0.00  0.00    +0.000 C 
BRANCH  13  14
ATOM     14  C   UNL     1       6.071   4.923  16.824  0.00  0.00    +0.000 A 
ATOM     15  N   UNL     1       7.248   5.297  16.343  0.00  0.00    +0.000 NA
ATOM     16  C   UNL     1       7.353   4.895  15.022  0.00  0.00    +0.000 A 
ATOM     17  C   UNL     1       6.263   4.214  14.536  0.00  0.00    +0.000 A 
ATOM     18 CL   UNL     1       6.040   3.566  12.971  0.00  0.00    +0.000 Cl
ATOM     19  S   UNL     1       5.062   4.062  15.721  0.00  0.00    +0.000 S 
ENDBRANCH  13  14
ENDBRANCH  11  13
ENDBRANCH   3  11
TORSDOF 3
ENDMDL
MODEL 7
REMARK VINA RESULT:      -6.2      4.945      7.186
REMARK  Name = 
REMARK  4 active torsions:
REMARK  status: ('A' for Active; 'I' for Inactive)
REMARK    1  A    between atoms: C_1  and  C_2
REMARK    2  A    between atoms: C_3  and  N_4
REMARK    3  A    between atoms: N_4  and  C_5
REMARK    4  A    between atoms: C_5  and  C_6
REMARK                            x       y       z     vdW  Elec       q    Type
REMARK                         _______ _______ _______ _____ _____    ______ ____
ROOT
ATOM      1  C   UNL     1       3.340   6.911  17.875  0.00  0.00    +0.000 C 
ATOM      2  C   UNL     1       2.625   5.986  18.829  0.00  0.00    +0.000 A 
ATOM      3  C   UNL     1       2.017   6.444  20.032  0.00  0.00    +0.000 A 
ATOM      4  C   UNL     1       1.354   5.511  20.849  0.00  0.00    +0.000 A 
ATOM      5  C   UNL     1       1.264   4.155  20.528  0.00  0.00    +0.000 A 
ATOM      6  C   UNL     1       1.874   3.721  19.349  0.00  0.00    +0.000 A 
ATOM      7  S   UNL     1       1.963   2.131  18.694  0.00  0.00    +0.000 S 
ATOM      8  N   UNL     1       2.829   2.535  17.343  0.00  0.00    +0.000 NA
ATOM      9  C   UNL     1       3.055   3.844  17.378  0.00  0.00    +0.000 A 
ATOM     10  C   UNL     1       2.545   4.595  18.496  0.00  0.00    +0.000 A 
ENDROOT
BRANCH   3  11
ATOM     11  N   UNL     1       2.166   7.764  20.462  0.00  0.00    +0.000 N 
ATOM     12  H   UNL     1       2.512   8.431  19.778  0.00  0.00    +0.000 HD
BRANCH  11  13
ATOM     13  C   UNL     1       1.157   8.404  21.311  0.00  0.00    +0.000 C 
BRANCH  13  14
ATOM     14  C   UNL     1       0.812   9.817  20.884  0.00  0.00    +0.000 A 
ATOM     15  N   UNL     1       0.801  10.868  21.693  0.00  0.00    +0.000 NA
ATOM     16  C   UNL     1       0.449  11.997  20.974  0.00  0.00    +0.000 A 
ATOM     17  C   UNL     1       0.215  11.782  19.637  0.00  0.00    +0.000 A 
ATOM     18 CL   UNL     1      -0.230  12.928  18.450  0.00  0.00    +0.000 Cl
ATOM     19  S   UNL     1       0.422  10.149  19.237  0.00  0.00    +0.000 S 
ENDBRANCH  13  14
ENDBRANCH  11  13
ENDBRANCH   3  11
TORSDOF 3
ENDMDL
MODEL 8
REMARK VINA RESULT:      -6.2      1.017      1.076
REMARK  Name = 
REMARK  4 active torsions:
REMARK  status: ('A' for Active; 'I' for Inactive)
REMARK    1  A    between atoms: C_1  and  C_2
REMARK    2  A    between atoms: C_3  and  N_4
REMARK    3  A    between atoms: N_4  and  C_5
REMARK    4  A    between atoms: C_5  and  C_6
REMARK                            x       y       z     vdW  Elec       q    Type
REMARK                         _______ _______ _______ _____ _____    ______ ____
ROOT
ATOM      1  C   UNL     1       3.426   7.795  17.609  0.00  0.00    +0.000 C 
ATOM      2  C   UNL     1       3.879   6.427  18.057  0.00  0.00    +0.000 A 
ATOM      3  C   UNL     1       5.018   5.775  17.505  0.00  0.00    +0.000 A 
ATOM      4  C   UNL     1       5.375   4.509  18.001  0.00  0.00    +0.000 A 
ATOM      5  C   UNL     1       4.662   3.866  19.015  0.00  0.00    +0.000 A 
ATOM      6  C   UNL     1       3.543   4.515  19.539  0.00  0.00    +0.000 A 
ATOM      7  S   UNL     1       2.452   3.984  20.762  0.00  0.00    +0.000 S 
ATOM      8  N   UNL     1       1.482   5.324  20.740  0.00  0.00    +0.000 NA
ATOM      9  C   UNL     1       1.961   6.162  19.827  0.00  0.00    +0.000 A 
ATOM     10  C   UNL     1       3.136   5.771  19.092  0.00  0.00    +0.000 A 
ENDROOT
BRANCH   3  11
ATOM     11  N   UNL     1       5.705   6.316  16.416  0.00  0.00    +0.000 N 
ATOM     12  H   UNL     1       5.742   7.330  16.358  0.00  0.00    +0.000 HD
BRANCH  11  13
ATOM     13  C   UNL     1       6.977   5.747  15.964  0.00  0.00    +0.000 C 
BRANCH  13  14
ATOM     14  C   UNL     1       6.894   5.073  14.608  0.00  0.00    +0.000 A 
ATOM     15  N   UNL     1       7.657   5.374  13.568  0.00  0.00    +0.000 NA
ATOM     16  C   UNL     1       7.318   4.563  12.499  0.00  0.00    +0.000 A 
ATOM     17  C   UNL     1       6.317   3.658  12.755  0.00  0.00    +0.000 A 
ATOM     18 CL   UNL     1       5.646   2.503  11.689  0.00  0.00    +0.000 Cl
ATOM     19  S   UNL     1       5.761   3.799  14.349  0.00  0.00    +0.000 S 
ENDBRANCH  13  14
ENDBRANCH  11  13
ENDBRANCH   3  11
TORSDOF 3
ENDMDL
MODEL 9
REMARK VINA RESULT:      -6.1      2.937      3.829
REMARK  Name = 
REMARK  4 active torsions:
REMARK  status: ('A' for Active; 'I' for Inactive)
REMARK    1  A    between atoms: C_1  and  C_2
REMARK    2  A    between atoms: C_3  and  N_4
REMARK    3  A    between atoms: N_4  and  C_5
REMARK    4  A    between atoms: C_5  and  C_6
REMARK                            x       y       z     vdW  Elec       q    Type
REMARK                         _______ _______ _______ _____ _____    ______ ____
ROOT
ATOM      1  C   UNL     1       4.751   1.542  19.340  0.00  0.00    +0.000 C 
ATOM      2  C   UNL     1       3.872   2.670  18.859  0.00  0.00    +0.000 A 
ATOM      3  C   UNL     1       4.047   3.294  17.592  0.00  0.00    +0.000 A 
ATOM      4  C   UNL     1       3.166   4.325  17.222  0.00  0.00    +0.000 A 
ATOM      5  C   UNL     1       2.124   4.760  18.043  0.00  0.00    +0.000 A 
ATOM      6  C   UNL     1       1.972   4.144  19.287  0.00  0.00    +0.000 A 
ATOM      7  S   UNL     1       0.819   4.465  20.526  0.00  0.00    +0.000 S 
ATOM      8  N   UNL     1       1.360   3.316  21.586  0.00  0.00    +0.000 NA
ATOM      9  C   UNL     1       2.395   2.698  21.027  0.00  0.00    +0.000 A 
ATOM     10  C   UNL     1       2.812   3.116  19.713  0.00  0.00    +0.000 A 
ENDROOT
BRANCH   3  11
ATOM     11  N   UNL     1       5.134   2.980  16.773  0.00  0.00    +0.000 N 
ATOM     12  H   UNL     1       5.017   2.191  16.143  0.00  0.00    +0.000 HD
BRANCH  11  13
ATOM     13  C   UNL     1       5.915   4.029  16.114  0.00  0.00    +0.000 C 
BRANCH  13  14
ATOM     14  C   UNL     1       6.675   4.918  17.078  0.00  0.00    +0.000 A 
ATOM     15  N   UNL     1       7.203   4.511  18.224  0.00  0.00    +0.000 NA
ATOM     16  C   UNL     1       7.827   5.578  18.847  0.00  0.00    +0.000 A 
ATOM     17  C   UNL     1       7.770   6.765  18.156  0.00  0.00    +0.000 A 
ATOM     18 CL   UNL     1       8.427   8.276  18.608  0.00  0.00    +0.000 Cl
ATOM     19  S   UNL     1       6.924   6.583  16.701  0.00  0.00    +0.000 S 
ENDBRANCH  13  14
ENDBRANCH  11  13
ENDBRANCH   3  11
TORSDOF 3
ENDMDL
