MODEL 1
REMARK VINA RESULT:      -6.0      0.000      0.000
REMARK  Name = 
REMARK  13 active torsions:
REMARK  status: ('A' for Active; 'I' for Inactive)
REMARK    1  A    between atoms: C_1  and  C_2
REMARK    2  A    between atoms: N_4  and  C_5
REMARK    3  A    between atoms: C_6  and  O_7
REMARK    4  A    between atoms: C_9  and  O_10
REMARK    5  A    between atoms: C_9  and  C_18
REMARK    6  A    between atoms: O_10  and  C_11
REMARK    7  A    between atoms: C_11  and  C_12
REMARK    8  A    between atoms: C_22  and  C_23
REMARK    9  A    between atoms: C_23  and  O_24
REMARK   10  A    between atoms: C_23  and  C_25
REMARK   11  A    between atoms: C_25  and  O_26
REMARK   12  A    between atoms: C_25  and  C_27
REMARK   13  A    between atoms: C_27  and  O_28
REMARK                            x       y       z     vdW  Elec       q    Type
REMARK                         _______ _______ _______ _____ _____    ______ ____
ROOT
ATOM      1  C   UNL     1       6.870   7.242  18.030  0.00  0.00    +0.000 C 
ATOM      2  C   UNL     1       7.645   5.917  18.073  0.00  0.00    +0.000 C 
ATOM      3  C   UNL     1       7.404   4.967  16.861  0.00  0.00    +0.000 C 
ATOM      4  C   UNL     1       6.091   5.083  15.998  0.00  0.00    +0.000 C 
ATOM      5  O   UNL     1       5.639   6.471  16.077  0.00  0.00    +0.000 OA
ATOM      6  C   UNL     1       5.475   6.975  17.428  0.00  0.00    +0.000 C 
ENDROOT
BRANCH   1  10
ATOM      7  C   UNL     1       9.435  10.048  17.431  0.00  0.00    +0.000 C 
ATOM      8  C   UNL     1       8.459   9.157  18.169  0.00  0.00    +0.000 C 
ATOM      9  O   UNL     1       8.395   9.179  19.396  0.00  0.00    +0.000 OA
ATOM     10  N   UNL     1       7.681   8.314  17.384  0.00  0.00    +0.000 N 
ATOM     11  H   UNL     1       7.943   8.193  16.411  0.00  0.00    +0.000 HD
ENDBRANCH   1  10
BRANCH   4  12
ATOM     12  C   UNL     1       6.573   4.805  14.477  0.00  0.00    +0.000 C 
ATOM     13  O   UNL     1       5.818   4.127  13.711  0.00  0.00    +0.000 OA
ATOM     14  O   UNL     1       7.636   5.441  14.130  0.00  0.00    +0.000 OA
ENDBRANCH   4  12
BRANCH   2  15
ATOM     15  O   UNL     1       7.346   5.243  19.307  0.00  0.00    +0.000 OA
ATOM     16  H   UNL     1       8.183   5.192  19.819  0.00  0.00    +0.000 HD
ENDBRANCH   2  15
BRANCH   4  17
ATOM     17  O   UNL     1       4.884   4.280  16.222  0.00  0.00    +0.000 OA
BRANCH  17  18
ATOM     18  C   UNL     1       4.941   3.032  16.921  0.00  0.00    +0.000 C 
BRANCH  18  19
ATOM     19  C   UNL     1       3.818   2.802  17.974  0.00  0.00    +0.000 A 
ATOM     20  C   UNL     1       4.025   2.624  19.352  0.00  0.00    +0.000 A 
ATOM     21  C   UNL     1       2.937   2.509  20.253  0.00  0.00    +0.000 A 
ATOM     22  C   UNL     1       1.627   2.562  19.802  0.00  0.00    +0.000 A 
ATOM     23  C   UNL     1       1.385   2.717  18.430  0.00  0.00    +0.000 A 
ATOM     24  C   UNL     1       2.469   2.827  17.543  0.00  0.00    +0.000 A 
ENDBRANCH  18  19
ENDBRANCH  17  18
ENDBRANCH   4  17
BRANCH   6  25
ATOM     25  C   UNL     1       4.469   6.104  18.303  0.00  0.00    +0.000 C 
BRANCH  25  26
ATOM     26  O   UNL     1       4.780   5.973  19.701  0.00  0.00    +0.000 OA
ATOM     27  H   UNL     1       3.984   6.139  20.236  0.00  0.00    +0.000 HD
ENDBRANCH  25  26
BRANCH  25  28
ATOM     28  C   UNL     1       2.988   6.515  18.226  0.00  0.00    +0.000 C 
BRANCH  28  29
ATOM     29  O   UNL     1       2.865   7.916  17.946  0.00  0.00    +0.000 OA
ATOM     30  H   UNL     1       3.192   8.379  18.745  0.00  0.00    +0.000 HD
ENDBRANCH  28  29
BRANCH  28  31
ATOM     31  C   UNL     1       2.256   6.236  19.557  0.00  0.00    +0.000 C 
BRANCH  31  32
ATOM     32  O   UNL     1       2.289   7.422  20.360  0.00  0.00    +0.000 OA
ATOM     33  H   UNL     1       2.273   8.181  19.754  0.00  0.00    +0.000 HD
ENDBRANCH  31  32
ENDBRANCH  28  31
ENDBRANCH  25  28
ENDBRANCH   6  25
TORSDOF 12
ENDMDL
MODEL 2
REMARK VINA RESULT:      -6.0      1.842      4.186
REMARK  Name = 
REMARK  13 active torsions:
REMARK  status: ('A' for Active; 'I' for Inactive)
REMARK    1  A    between atoms: C_1  and  C_2
REMARK    2  A    between atoms: N_4  and  C_5
REMARK    3  A    between atoms: C_6  and  O_7
REMARK    4  A    between atoms: C_9  and  O_10
REMARK    5  A    between atoms: C_9  and  C_18
REMARK    6  A    between atoms: O_10  and  C_11
REMARK    7  A    between atoms: C_11  and  C_12
REMARK    8  A    between atoms: C_22  and  C_23
REMARK    9  A    between atoms: C_23  and  O_24
REMARK   10  A    between atoms: C_23  and  C_25
REMARK   11  A    between atoms: C_25  and  O_26
REMARK   12  A    between atoms: C_25  and  C_27
REMARK   13  A    between atoms: C_27  and  O_28
REMARK                            x       y       z     vdW  Elec       q    Type
REMARK                         _______ _______ _______ _____ _____    ______ ____
ROOT
ATOM      1  C   UNL     1       6.341   5.827  17.758  0.00  0.00    +0.000 C 
ATOM      2  C   UNL     1       5.749   6.425  16.474  0.00  0.00    +0.000 C 
ATOM      3  C   UNL     1       4.317   7.025  16.619  0.00  0.00    +0.000 C 
ATOM      4  C   UNL     1       3.362   6.552  17.780  0.00  0.00    +0.000 C 
ATOM      5  O   UNL     1       4.208   6.126  18.893  0.00  0.00    +0.000 OA
ATOM      6  C   UNL     1       5.208   5.134  18.543  0.00  0.00    +0.000 C 
ENDROOT
BRANCH   1  10
ATOM      7  C   UNL     1       8.550   8.866  18.590  0.00  0.00    +0.000 C 
ATOM      8  C   UNL     1       7.966   7.716  17.799  0.00  0.00    +0.000 C 
ATOM      9  O   UNL     1       8.203   7.596  16.600  0.00  0.00    +0.000 OA
ATOM     10  N   UNL     1       7.142   6.843  18.500  0.00  0.00    +0.000 N 
ATOM     11  H   UNL     1       6.819   7.126  19.419  0.00  0.00    +0.000 HD
ENDBRANCH   1  10
BRANCH   4  12
ATOM     12  C   UNL     1       2.579   7.893  18.239  0.00  0.00    +0.000 C 
ATOM     13  O   UNL     1       2.310   8.052  19.472  0.00  0.00    +0.000 OA
ATOM     14  O   UNL     1       2.431   8.769  17.309  0.00  0.00    +0.000 OA
ENDBRANCH   4  12
BRANCH   2  15
ATOM     15  O   UNL     1       5.772   5.426  15.440  0.00  0.00    +0.000 OA
ATOM     16  H   UNL     1       4.974   5.565  14.885  0.00  0.00    +0.000 HD
ENDBRANCH   2  15
BRANCH   4  17
ATOM     17  O   UNL     1       2.358   5.492  17.642  0.00  0.00    +0.000 OA
BRANCH  17  18
ATOM     18  C   UNL     1       1.224   5.424  18.514  0.00  0.00    +0.000 C 
BRANCH  18  19
ATOM     19  C   UNL     1       1.333   4.392  19.674  0.00  0.00    +0.000 A 
ATOM     20  C   UNL     1       0.801   3.093  19.653  0.00  0.00    +0.000 A 
ATOM     21  C   UNL     1       1.023   2.186  20.719  0.00  0.00    +0.000 A 
ATOM     22  C   UNL     1       1.770   2.556  21.827  0.00  0.00    +0.000 A 
ATOM     23  C   UNL     1       2.297   3.853  21.890  0.00  0.00    +0.000 A 
ATOM     24  C   UNL     1       2.070   4.747  20.830  0.00  0.00    +0.000 A 
ENDBRANCH  18  19
ENDBRANCH  17  18
ENDBRANCH   4  17
BRANCH   6  25
ATOM     25  C   UNL     1       4.585   3.819  17.897  0.00  0.00    +0.000 C 
BRANCH  25  26
ATOM     26  O   UNL     1       5.367   3.170  16.879  0.00  0.00    +0.000 OA
ATOM     27  H   UNL     1       5.179   3.567  16.010  0.00  0.00    +0.000 HD
ENDBRANCH  25  26
BRANCH  25  28
ATOM     28  C   UNL     1       4.170   2.718  18.890  0.00  0.00    +0.000 C 
BRANCH  28  29
ATOM     29  O   UNL     1       5.266   2.371  19.748  0.00  0.00    +0.000 OA
ATOM     30  H   UNL     1       5.052   1.488  20.113  0.00  0.00    +0.000 HD
ENDBRANCH  28  29
BRANCH  28  31
ATOM     31  C   UNL     1       3.726   1.434  18.155  0.00  0.00    +0.000 C 
BRANCH  31  32
ATOM     32  O   UNL     1       4.511   0.334  18.629  0.00  0.00    +0.000 OA
ATOM     33  H   UNL     1       5.236   0.705  19.161  0.00  0.00    +0.000 HD
ENDBRANCH  31  32
ENDBRANCH  28  31
ENDBRANCH  25  28
ENDBRANCH   6  25
TORSDOF 12
ENDMDL
MODEL 3
REMARK VINA RESULT:      -6.0      0.111      1.097
REMARK  Name = 
REMARK  13 active torsions:
REMARK  status: ('A' for Active; 'I' for Inactive)
REMARK    1  A    between atoms: C_1  and  C_2
REMARK    2  A    between atoms: N_4  and  C_5
REMARK    3  A    between atoms: C_6  and  O_7
REMARK    4  A    between atoms: C_9  and  O_10
REMARK    5  A    between atoms: C_9  and  C_18
REMARK    6  A    between atoms: O_10  and  C_11
REMARK    7  A    between atoms: C_11  and  C_12
REMARK    8  A    between atoms: C_22  and  C_23
REMARK    9  A    between atoms: C_23  and  O_24
REMARK   10  A    between atoms: C_23  and  C_25
REMARK   11  A    between atoms: C_25  and  O_26
REMARK   12  A    between atoms: C_25  and  C_27
REMARK   13  A    between atoms: C_27  and  O_28
REMARK                            x       y       z     vdW  Elec       q    Type
REMARK                         _______ _______ _______ _____ _____    ______ ____
ROOT
ATOM      1  C   UNL     1       6.866   7.296  17.994  0.00  0.00    +0.000 C 
ATOM      2  C   UNL     1       7.639   5.970  18.033  0.00  0.00    +0.000 C 
ATOM      3  C   UNL     1       7.417   5.035  16.805  0.00  0.00    +0.000 C 
ATOM      4  C   UNL     1       6.117   5.162  15.923  0.00  0.00    +0.000 C 
ATOM      5  O   UNL     1       5.665   6.549  16.012  0.00  0.00    +0.000 OA
ATOM      6  C   UNL     1       5.480   7.037  17.367  0.00  0.00    +0.000 C 
ENDROOT
BRANCH   1  10
ATOM      7  C   UNL     1       9.457  10.090  17.464  0.00  0.00    +0.000 C 
ATOM      8  C   UNL     1       8.473   9.191  18.180  0.00  0.00    +0.000 C 
ATOM      9  O   UNL     1       8.409   9.184  19.406  0.00  0.00    +0.000 OA
ATOM     10  N   UNL     1       7.687   8.375  17.375  0.00  0.00    +0.000 N 
ATOM     11  H   UNL     1       7.947   8.275  16.398  0.00  0.00    +0.000 HD
ENDBRANCH   1  10
BRANCH   4  12
ATOM     12  C   UNL     1       6.623   4.903  14.407  0.00  0.00    +0.000 C 
ATOM     13  O   UNL     1       7.717   5.430  14.029  0.00  0.00    +0.000 OA
ATOM     14  O   UNL     1       5.928   4.041  13.753  0.00  0.00    +0.000 OA
ENDBRANCH   4  12
BRANCH   2  15
ATOM     15  O   UNL     1       7.320   5.280  19.254  0.00  0.00    +0.000 OA
ATOM     16  H   UNL     1       7.712   5.799  19.990  0.00  0.00    +0.000 HD
ENDBRANCH   2  15
BRANCH   4  17
ATOM     17  O   UNL     1       4.906   4.358  16.119  0.00  0.00    +0.000 OA
BRANCH  17  18
ATOM     18  C   UNL     1       4.936   3.144  16.877  0.00  0.00    +0.000 C 
BRANCH  18  19
ATOM     19  C   UNL     1       3.751   2.944  17.866  0.00  0.00    +0.000 A 
ATOM     20  C   UNL     1       2.393   2.930  17.509  0.00  0.00    +0.000 A 
ATOM     21  C   UNL     1       1.381   2.653  18.461  0.00  0.00    +0.000 A 
ATOM     22  C   UNL     1       1.699   2.391  19.785  0.00  0.00    +0.000 A 
ATOM     23  C   UNL     1       3.044   2.417  20.181  0.00  0.00    +0.000 A 
ATOM     24  C   UNL     1       4.040   2.696  19.231  0.00  0.00    +0.000 A 
ENDBRANCH  18  19
ENDBRANCH  17  18
ENDBRANCH   4  17
BRANCH   6  25
ATOM     25  C   UNL     1       4.460   6.155  18.215  0.00  0.00    +0.000 C 
BRANCH  25  26
ATOM     26  O   UNL     1       4.757   5.994  19.613  0.00  0.00    +0.000 OA
ATOM     27  H   UNL     1       3.947   6.103  20.141  0.00  0.00    +0.000 HD
ENDBRANCH  25  26
BRANCH  25  28
ATOM     28  C   UNL     1       2.983   6.579  18.133  0.00  0.00    +0.000 C 
BRANCH  28  29
ATOM     29  O   UNL     1       2.872   7.995  17.928  0.00  0.00    +0.000 OA
ATOM     30  H   UNL     1       2.124   8.118  17.309  0.00  0.00    +0.000 HD
ENDBRANCH  28  29
BRANCH  28  31
ATOM     31  C   UNL     1       2.224   6.233  19.433  0.00  0.00    +0.000 C 
BRANCH  31  32
ATOM     32  O   UNL     1       2.289   7.356  20.320  0.00  0.00    +0.000 OA
ATOM     33  H   UNL     1       2.597   7.027  21.181  0.00  0.00    +0.000 HD
ENDBRANCH  31  32
ENDBRANCH  28  31
ENDBRANCH  25  28
ENDBRANCH   6  25
TORSDOF 12
ENDMDL
MODEL 4
REMARK VINA RESULT:      -5.9      2.367      5.494
REMARK  Name = 
REMARK  13 active torsions:
REMARK  status: ('A' for Active; 'I' for Inactive)
REMARK    1  A    between atoms: C_1  and  C_2
REMARK    2  A    between atoms: N_4  and  C_5
REMARK    3  A    between atoms: C_6  and  O_7
REMARK    4  A    between atoms: C_9  and  O_10
REMARK    5  A    between atoms: C_9  and  C_18
REMARK    6  A    between atoms: O_10  and  C_11
REMARK    7  A    between atoms: C_11  and  C_12
REMARK    8  A    between atoms: C_22  and  C_23
REMARK    9  A    between atoms: C_23  and  O_24
REMARK   10  A    between atoms: C_23  and  C_25
REMARK   11  A    between atoms: C_25  and  O_26
REMARK   12  A    between atoms: C_25  and  C_27
REMARK   13  A    between atoms: C_27  and  O_28
REMARK                            x       y       z     vdW  Elec       q    Type
REMARK                         _______ _______ _______ _____ _____    ______ ____
ROOT
ATOM      1  C   UNL     1       5.825   4.778  15.808  0.00  0.00    +0.000 C 
ATOM      2  C   UNL     1       5.985   3.718  16.908  0.00  0.00    +0.000 C 
ATOM      3  C   UNL     1       4.763   3.563  17.864  0.00  0.00    +0.000 C 
ATOM      4  C   UNL     1       3.736   4.744  18.053  0.00  0.00    +0.000 C 
ATOM      5  O   UNL     1       3.739   5.524  16.817  0.00  0.00    +0.000 OA
ATOM      6  C   UNL     1       5.051   5.977  16.394  0.00  0.00    +0.000 C 
ENDROOT
BRANCH   1  10
ATOM      7  C   UNL     1       5.538   3.242  12.292  0.00  0.00    +0.000 C 
ATOM      8  C   UNL     1       6.078   4.082  13.429  0.00  0.00    +0.000 C 
ATOM      9  O   UNL     1       7.179   4.621  13.342  0.00  0.00    +0.000 OA
ATOM     10  N   UNL     1       5.276   4.175  14.560  0.00  0.00    +0.000 N 
ATOM     11  H   UNL     1       4.495   3.532  14.645  0.00  0.00    +0.000 HD
ENDBRANCH   1  10
BRANCH   4  12
ATOM     12  C   UNL     1       2.294   4.017  18.176  0.00  0.00    +0.000 C 
ATOM     13  O   UNL     1       1.366   4.360  17.377  0.00  0.00    +0.000 OA
ATOM     14  O   UNL     1       2.265   3.026  18.996  0.00  0.00    +0.000 OA
ENDBRANCH   4  12
BRANCH   2  15
ATOM     15  O   UNL     1       7.178   4.001  17.658  0.00  0.00    +0.000 OA
ATOM     16  H   UNL     1       7.674   4.689  17.163  0.00  0.00    +0.000 HD
ENDBRANCH   2  15
BRANCH   4  17
ATOM     17  O   UNL     1       3.812   5.739  19.127  0.00  0.00    +0.000 OA
BRANCH  17  18
ATOM     18  C   UNL     1       2.637   6.177  19.819  0.00  0.00    +0.000 C 
BRANCH  18  19
ATOM     19  C   UNL     1       2.125   7.596  19.437  0.00  0.00    +0.000 A 
ATOM     20  C   UNL     1       2.243   8.183  18.167  0.00  0.00    +0.000 A 
ATOM     21  C   UNL     1       1.669   9.447  17.882  0.00  0.00    +0.000 A 
ATOM     22  C   UNL     1       0.975  10.152  18.853  0.00  0.00    +0.000 A 
ATOM     23  C   UNL     1       0.857   9.604  20.138  0.00  0.00    +0.000 A 
ATOM     24  C   UNL     1       1.432   8.352  20.414  0.00  0.00    +0.000 A 
ENDBRANCH  18  19
ENDBRANCH  17  18
ENDBRANCH   4  17
BRANCH   6  25
ATOM     25  C   UNL     1       5.799   6.847  17.499  0.00  0.00    +0.000 C 
BRANCH  25  26
ATOM     26  O   UNL     1       6.212   6.155  18.690  0.00  0.00    +0.000 OA
ATOM     27  H   UNL     1       5.474   5.626  19.042  0.00  0.00    +0.000 HD
ENDBRANCH  25  26
BRANCH  25  28
ATOM     28  C   UNL     1       7.026   7.636  17.010  0.00  0.00    +0.000 C 
BRANCH  28  29
ATOM     29  O   UNL     1       7.989   6.757  16.412  0.00  0.00    +0.000 OA
ATOM     30  H   UNL     1       8.771   6.774  17.001  0.00  0.00    +0.000 HD
ENDBRANCH  28  29
BRANCH  28  31
ATOM     31  C   UNL     1       7.724   8.371  18.176  0.00  0.00    +0.000 C 
BRANCH  31  32
ATOM     32  O   UNL     1       8.576   7.447  18.863  0.00  0.00    +0.000 OA
ATOM     33  H   UNL     1       8.789   7.838  19.727  0.00  0.00    +0.000 HD
ENDBRANCH  31  32
ENDBRANCH  28  31
ENDBRANCH  25  28
ENDBRANCH   6  25
TORSDOF 12
ENDMDL
MODEL 5
REMARK VINA RESULT:      -5.8      2.307      5.436
REMARK  Name = 
REMARK  13 active torsions:
REMARK  status: ('A' for Active; 'I' for Inactive)
REMARK    1  A    between atoms: C_1  and  C_2
REMARK    2  A    between atoms: N_4  and  C_5
REMARK    3  A    between atoms: C_6  and  O_7
REMARK    4  A    between atoms: C_9  and  O_10
REMARK    5  A    between atoms: C_9  and  C_18
REMARK    6  A    between atoms: O_10  and  C_11
REMARK    7  A    between atoms: C_11  and  C_12
REMARK    8  A    between atoms: C_22  and  C_23
REMARK    9  A    between atoms: C_23  and  O_24
REMARK   10  A    between atoms: C_23  and  C_25
REMARK   11  A    between atoms: C_25  and  O_26
REMARK   12  A    between atoms: C_25  and  C_27
REMARK   13  A    between atoms: C_27  and  O_28
REMARK                            x       y       z     vdW  Elec       q    Type
REMARK                         _______ _______ _______ _____ _____    ______ ____
ROOT
ATOM      1  C   UNL     1       3.426   5.334  19.238  0.00  0.00    +0.000 C 
ATOM      2  C   UNL     1       4.705   4.883  19.958  0.00  0.00    +0.000 C 
ATOM      3  C   UNL     1       6.039   5.343  19.293  0.00  0.00    +0.000 C 
ATOM      4  C   UNL     1       6.087   5.716  17.763  0.00  0.00    +0.000 C 
ATOM      5  O   UNL     1       4.757   6.193  17.389  0.00  0.00    +0.000 OA
ATOM      6  C   UNL     1       3.676   5.282  17.716  0.00  0.00    +0.000 C 
ENDROOT
BRANCH   1  10
ATOM      7  C   UNL     1       1.486   7.950  21.289  0.00  0.00    +0.000 C 
ATOM      8  C   UNL     1       1.782   6.652  20.569  0.00  0.00    +0.000 C 
ATOM      9  O   UNL     1       1.044   5.679  20.704  0.00  0.00    +0.000 OA
ATOM     10  N   UNL     1       2.932   6.629  19.788  0.00  0.00    +0.000 N 
ATOM     11  H   UNL     1       3.599   7.386  19.901  0.00  0.00    +0.000 HD
ENDBRANCH   1  10
BRANCH   4  12
ATOM     12  C   UNL     1       7.106   6.971  17.679  0.00  0.00    +0.000 C 
ATOM     13  O   UNL     1       8.136   6.974  18.424  0.00  0.00    +0.000 OA
ATOM     14  O   UNL     1       6.850   7.803  16.731  0.00  0.00    +0.000 OA
ENDBRANCH   4  12
BRANCH   2  15
ATOM     15  O   UNL     1       4.680   3.453  20.099  0.00  0.00    +0.000 OA
ATOM     16  H   UNL     1       4.132   3.249  20.887  0.00  0.00    +0.000 HD
ENDBRANCH   2  15
BRANCH   4  17
ATOM     17  O   UNL     1       6.464   4.780  16.698  0.00  0.00    +0.000 OA
BRANCH  17  18
ATOM     18  C   UNL     1       7.384   5.159  15.669  0.00  0.00    +0.000 C 
BRANCH  18  19
ATOM     19  C   UNL     1       7.002   4.706  14.229  0.00  0.00    +0.000 A 
ATOM     20  C   UNL     1       7.714   5.031  13.063  0.00  0.00    +0.000 A 
ATOM     21  C   UNL     1       7.346   4.502  11.801  0.00  0.00    +0.000 A 
ATOM     22  C   UNL     1       6.263   3.646  11.675  0.00  0.00    +0.000 A 
ATOM     23  C   UNL     1       5.517   3.317  12.816  0.00  0.00    +0.000 A 
ATOM     24  C   UNL     1       5.887   3.849  14.062  0.00  0.00    +0.000 A 
ENDBRANCH  18  19
ENDBRANCH  17  18
ENDBRANCH   4  17
BRANCH   6  25
ATOM     25  C   UNL     1       3.856   3.839  17.066  0.00  0.00    +0.000 C 
BRANCH  25  26
ATOM     26  O   UNL     1       4.834   2.977  17.674  0.00  0.00    +0.000 OA
ATOM     27  H   UNL     1       5.718   3.379  17.610  0.00  0.00    +0.000 HD
ENDBRANCH  25  26
BRANCH  25  28
ATOM     28  C   UNL     1       2.571   3.004  16.927  0.00  0.00    +0.000 C 
BRANCH  28  29
ATOM     29  O   UNL     1       1.416   3.795  17.243  0.00  0.00    +0.000 OA
ATOM     30  H   UNL     1       0.859   3.790  16.438  0.00  0.00    +0.000 HD
ENDBRANCH  28  29
BRANCH  28  31
ATOM     31  C   UNL     1       2.582   1.789  17.880  0.00  0.00    +0.000 C 
BRANCH  31  32
ATOM     32  O   UNL     1       2.255   2.235  19.202  0.00  0.00    +0.000 OA
ATOM     33  H   UNL     1       2.815   3.006  19.393  0.00  0.00    +0.000 HD
ENDBRANCH  31  32
ENDBRANCH  28  31
ENDBRANCH  25  28
ENDBRANCH   6  25
TORSDOF 12
ENDMDL
MODEL 6
REMARK VINA RESULT:      -5.8      7.472     10.905
REMARK  Name = 
REMARK  13 active torsions:
REMARK  status: ('A' for Active; 'I' for Inactive)
REMARK    1  A    between atoms: C_1  and  C_2
REMARK    2  A    between atoms: N_4  and  C_5
REMARK    3  A    between atoms: C_6  and  O_7
REMARK    4  A    between atoms: C_9  and  O_10
REMARK    5  A    between atoms: C_9  and  C_18
REMARK    6  A    between atoms: O_10  and  C_11
REMARK    7  A    between atoms: C_11  and  C_12
REMARK    8  A    between atoms: C_22  and  C_23
REMARK    9  A    between atoms: C_23  and  O_24
REMARK   10  A    between atoms: C_23  and  C_25
REMARK   11  A    between atoms: C_25  and  O_26
REMARK   12  A    between atoms: C_25  and  C_27
REMARK   13  A    between atoms: C_27  and  O_28
REMARK                            x       y       z     vdW  Elec       q    Type
REMARK                         _______ _______ _______ _____ _____    ______ ____
ROOT
ATOM      1  C   UNL     1       0.530  10.621  18.825  0.00  0.00    +0.000 C 
ATOM      2  C   UNL     1       1.223  11.692  19.681  0.00  0.00    +0.000 C 
ATOM      3  C   UNL     1       0.548  11.984  21.055  0.00  0.00    +0.000 C 
ATOM      4  C   UNL     1      -0.976  11.657  21.287  0.00  0.00    +0.000 C 
ATOM      5  O   UNL     1      -1.322  10.545  20.404  0.00  0.00    +0.000 OA
ATOM      6  C   UNL     1      -0.996  10.762  19.007  0.00  0.00    +0.000 C 
ENDROOT
BRANCH   1  10
ATOM      7  C   UNL     1       2.738   7.476  18.628  0.00  0.00    +0.000 C 
ATOM      8  C   UNL     1       2.010   8.724  18.178  0.00  0.00    +0.000 C 
ATOM      9  O   UNL     1       2.237   9.219  17.077  0.00  0.00    +0.000 OA
ATOM     10  N   UNL     1       1.111   9.273  19.085  0.00  0.00    +0.000 N 
ATOM     11  H   UNL     1       1.140   8.942  20.044  0.00  0.00    +0.000 HD
ENDBRANCH   1  10
BRANCH   4  12
ATOM     12  C   UNL     1      -1.053  11.119  22.813  0.00  0.00    +0.000 C 
ATOM     13  O   UNL     1      -2.135  11.274  23.462  0.00  0.00    +0.000 OA
ATOM     14  O   UNL     1      -0.033  10.432  23.188  0.00  0.00    +0.000 OA
ENDBRANCH   4  12
BRANCH   2  15
ATOM     15  O   UNL     1       1.338  12.901  18.910  0.00  0.00    +0.000 OA
ATOM     16  H   UNL     1       1.831  12.676  18.092  0.00  0.00    +0.000 HD
ENDBRANCH   2  15
BRANCH   4  17
ATOM     17  O   UNL     1      -2.063  12.626  21.116  0.00  0.00    +0.000 OA
BRANCH  17  18
ATOM     18  C   UNL     1      -1.832  14.033  21.251  0.00  0.00    +0.000 C 
BRANCH  18  19
ATOM     19  C   UNL     1      -2.158  14.633  22.650  0.00  0.00    +0.000 A 
ATOM     20  C   UNL     1      -3.434  15.028  23.083  0.00  0.00    +0.000 A 
ATOM     21  C   UNL     1      -3.658  15.482  24.406  0.00  0.00    +0.000 A 
ATOM     22  C   UNL     1      -2.617  15.559  25.320  0.00  0.00    +0.000 A 
ATOM     23  C   UNL     1      -1.326  15.193  24.915  0.00  0.00    +0.000 A 
ATOM     24  C   UNL     1      -1.113  14.746  23.600  0.00  0.00    +0.000 A 
ENDBRANCH  18  19
ENDBRANCH  17  18
ENDBRANCH   4  17
BRANCH   6  25
ATOM     25  C   UNL     1      -1.675  12.069  18.402  0.00  0.00    +0.000 C 
BRANCH  25  26
ATOM     26  O   UNL     1      -0.985  12.707  17.312  0.00  0.00    +0.000 OA
ATOM     27  H   UNL     1      -1.175  13.661  17.310  0.00  0.00    +0.000 HD
ENDBRANCH  25  26
BRANCH  25  28
ATOM     28  C   UNL     1      -3.140  11.916  17.956  0.00  0.00    +0.000 C 
BRANCH  28  29
ATOM     29  O   UNL     1      -3.972  11.554  19.067  0.00  0.00    +0.000 OA
ATOM     30  H   UNL     1      -3.364  11.235  19.765  0.00  0.00    +0.000 HD
ENDBRANCH  28  29
BRANCH  28  31
ATOM     31  C   UNL     1      -3.290  10.818  16.881  0.00  0.00    +0.000 C 
BRANCH  31  32
ATOM     32  O   UNL     1      -2.846  11.339  15.622  0.00  0.00    +0.000 OA
ATOM     33  H   UNL     1      -3.637  11.615  15.129  0.00  0.00    +0.000 HD
ENDBRANCH  31  32
ENDBRANCH  28  31
ENDBRANCH  25  28
ENDBRANCH   6  25
TORSDOF 12
ENDMDL
MODEL 7
REMARK VINA RESULT:      -5.8      2.336      5.428
REMARK  Name = 
REMARK  13 active torsions:
REMARK  status: ('A' for Active; 'I' for Inactive)
REMARK    1  A    between atoms: C_1  and  C_2
REMARK    2  A    between atoms: N_4  and  C_5
REMARK    3  A    between atoms: C_6  and  O_7
REMARK    4  A    between atoms: C_9  and  O_10
REMARK    5  A    between atoms: C_9  and  C_18
REMARK    6  A    between atoms: O_10  and  C_11
REMARK    7  A    between atoms: C_11  and  C_12
REMARK    8  A    between atoms: C_22  and  C_23
REMARK    9  A    between atoms: C_23  and  O_24
REMARK   10  A    between atoms: C_23  and  C_25
REMARK   11  A    between atoms: C_25  and  O_26
REMARK   12  A    between atoms: C_25  and  C_27
REMARK   13  A    between atoms: C_27  and  O_28
REMARK                            x       y       z     vdW  Elec       q    Type
REMARK                         _______ _______ _______ _____ _____    ______ ____
ROOT
ATOM      1  C   UNL     1       3.347   5.378  19.097  0.00  0.00    +0.000 C 
ATOM      2  C   UNL     1       4.569   4.888  19.888  0.00  0.00    +0.000 C 
ATOM      3  C   UNL     1       5.952   5.308  19.303  0.00  0.00    +0.000 C 
ATOM      4  C   UNL     1       6.098   5.682  17.778  0.00  0.00    +0.000 C 
ATOM      5  O   UNL     1       4.807   6.199  17.331  0.00  0.00    +0.000 OA
ATOM      6  C   UNL     1       3.682   5.320  17.593  0.00  0.00    +0.000 C 
ENDROOT
BRANCH   1  10
ATOM      7  C   UNL     1       1.530   8.045  21.193  0.00  0.00    +0.000 C 
ATOM      8  C   UNL     1       1.801   6.716  20.522  0.00  0.00    +0.000 C 
ATOM      9  O   UNL     1       1.124   5.728  20.793  0.00  0.00    +0.000 OA
ATOM     10  N   UNL     1       2.861   6.685  19.623  0.00  0.00    +0.000 N 
ATOM     11  H   UNL     1       3.504   7.471  19.617  0.00  0.00    +0.000 HD
ENDBRANCH   1  10
BRANCH   4  12
ATOM     12  C   UNL     1       7.157   6.907  17.756  0.00  0.00    +0.000 C 
ATOM     13  O   UNL     1       6.889   7.934  17.055  0.00  0.00    +0.000 OA
ATOM     14  O   UNL     1       8.128   6.788  18.591  0.00  0.00    +0.000 OA
ENDBRANCH   4  12
BRANCH   2  15
ATOM     15  O   UNL     1       4.494   3.458  20.023  0.00  0.00    +0.000 OA
ATOM     16  H   UNL     1       5.274   3.176  20.549  0.00  0.00    +0.000 HD
ENDBRANCH   2  15
BRANCH   4  17
ATOM     17  O   UNL     1       6.508   4.737  16.734  0.00  0.00    +0.000 OA
BRANCH  17  18
ATOM     18  C   UNL     1       7.221   5.177  15.573  0.00  0.00    +0.000 C 
BRANCH  18  19
ATOM     19  C   UNL     1       6.764   4.544  14.227  0.00  0.00    +0.000 A 
ATOM     20  C   UNL     1       5.548   3.870  14.022  0.00  0.00    +0.000 A 
ATOM     21  C   UNL     1       5.171   3.401  12.739  0.00  0.00    +0.000 A 
ATOM     22  C   UNL     1       5.996   3.586  11.640  0.00  0.00    +0.000 A 
ATOM     23  C   UNL     1       7.227   4.236  11.813  0.00  0.00    +0.000 A 
ATOM     24  C   UNL     1       7.594   4.695  13.089  0.00  0.00    +0.000 A 
ENDBRANCH  18  19
ENDBRANCH  17  18
ENDBRANCH   4  17
BRANCH   6  25
ATOM     25  C   UNL     1       3.856   3.873  16.949  0.00  0.00    +0.000 C 
BRANCH  25  26
ATOM     26  O   UNL     1       4.882   3.038  17.513  0.00  0.00    +0.000 OA
ATOM     27  H   UNL     1       5.708   3.136  17.008  0.00  0.00    +0.000 HD
ENDBRANCH  25  26
BRANCH  25  28
ATOM     28  C   UNL     1       2.583   3.012  16.888  0.00  0.00    +0.000 C 
BRANCH  28  29
ATOM     29  O   UNL     1       1.424   3.797  17.200  0.00  0.00    +0.000 OA
ATOM     30  H   UNL     1       1.494   4.012  18.153  0.00  0.00    +0.000 HD
ENDBRANCH  28  29
BRANCH  28  31
ATOM     31  C   UNL     1       2.643   1.844  17.897  0.00  0.00    +0.000 C 
BRANCH  31  32
ATOM     32  O   UNL     1       1.400   1.781  18.607  0.00  0.00    +0.000 OA
ATOM     33  H   UNL     1       1.307   0.874  18.945  0.00  0.00    +0.000 HD
ENDBRANCH  31  32
ENDBRANCH  28  31
ENDBRANCH  25  28
ENDBRANCH   6  25
TORSDOF 12
ENDMDL
MODEL 8
REMARK VINA RESULT:      -5.8      2.492      5.501
REMARK  Name = 
REMARK  13 active torsions:
REMARK  status: ('A' for Active; 'I' for Inactive)
REMARK    1  A    between atoms: C_1  and  C_2
REMARK    2  A    between atoms: N_4  and  C_5
REMARK    3  A    between atoms: C_6  and  O_7
REMARK    4  A    between atoms: C_9  and  O_10
REMARK    5  A    between atoms: C_9  and  C_18
REMARK    6  A    between atoms: O_10  and  C_11
REMARK    7  A    between atoms: C_11  and  C_12
REMARK    8  A    between atoms: C_22  and  C_23
REMARK    9  A    between atoms: C_23  and  O_24
REMARK   10  A    between atoms: C_23  and  C_25
REMARK   11  A    between atoms: C_25  and  O_26
REMARK   12  A    between atoms: C_25  and  C_27
REMARK   13  A    between atoms: C_27  and  O_28
REMARK                            x       y       z     vdW  Elec       q    Type
REMARK                         _______ _______ _______ _____ _____    ______ ____
ROOT
ATOM      1  C   UNL     1       3.319   5.262  19.564  0.00  0.00    +0.000 C 
ATOM      2  C   UNL     1       4.842   5.077  19.633  0.00  0.00    +0.000 C 
ATOM      3  C   UNL     1       5.617   5.457  18.335  0.00  0.00    +0.000 C 
ATOM      4  C   UNL     1       4.888   5.466  16.937  0.00  0.00    +0.000 C 
ATOM      5  O   UNL     1       3.477   5.754  17.185  0.00  0.00    +0.000 OA
ATOM      6  C   UNL     1       2.843   4.874  18.149  0.00  0.00    +0.000 C 
ENDROOT
BRANCH   1  10
ATOM      7  C   UNL     1       1.457   8.122  21.342  0.00  0.00    +0.000 C 
ATOM      8  C   UNL     1       1.683   6.793  20.655  0.00  0.00    +0.000 C 
ATOM      9  O   UNL     1       0.812   5.927  20.664  0.00  0.00    +0.000 OA
ATOM     10  N   UNL     1       2.923   6.614  20.054  0.00  0.00    +0.000 N 
ATOM     11  H   UNL     1       3.660   7.276  20.276  0.00  0.00    +0.000 HD
ENDBRANCH   1  10
BRANCH   4  12
ATOM     12  C   UNL     1       5.521   6.732  16.152  0.00  0.00    +0.000 C 
ATOM     13  O   UNL     1       4.949   7.143  15.093  0.00  0.00    +0.000 OA
ATOM     14  O   UNL     1       6.487   7.315  16.771  0.00  0.00    +0.000 OA
ENDBRANCH   4  12
BRANCH   2  15
ATOM     15  O   UNL     1       5.130   3.720  20.011  0.00  0.00    +0.000 OA
ATOM     16  H   UNL     1       4.397   3.421  20.593  0.00  0.00    +0.000 HD
ENDBRANCH   2  15
BRANCH   4  17
ATOM     17  O   UNL     1       4.884   4.335  16.003  0.00  0.00    +0.000 OA
BRANCH  17  18
ATOM     18  C   UNL     1       6.102   3.699  15.601  0.00  0.00    +0.000 C 
BRANCH  18  19
ATOM     19  C   UNL     1       6.547   3.971  14.135  0.00  0.00    +0.000 A 
ATOM     20  C   UNL     1       6.023   3.333  12.999  0.00  0.00    +0.000 A 
ATOM     21  C   UNL     1       6.424   3.705  11.692  0.00  0.00    +0.000 A 
ATOM     22  C   UNL     1       7.356   4.711  11.490  0.00  0.00    +0.000 A 
ATOM     23  C   UNL     1       7.916   5.354  12.603  0.00  0.00    +0.000 A 
ATOM     24  C   UNL     1       7.515   4.977  13.896  0.00  0.00    +0.000 A 
ENDBRANCH  18  19
ENDBRANCH  17  18
ENDBRANCH   4  17
BRANCH   6  25
ATOM     25  C   UNL     1       2.944   3.335  17.753  0.00  0.00    +0.000 C 
BRANCH  25  26
ATOM     26  O   UNL     1       4.167   2.661  18.099  0.00  0.00    +0.000 OA
ATOM     27  H   UNL     1       3.999   1.712  18.233  0.00  0.00    +0.000 HD
ENDBRANCH  25  26
BRANCH  25  28
ATOM     28  C   UNL     1       1.799   2.438  18.257  0.00  0.00    +0.000 C 
BRANCH  28  29
ATOM     29  O   UNL     1       0.699   3.233  18.721  0.00  0.00    +0.000 OA
ATOM     30  H   UNL     1      -0.008   3.130  18.051  0.00  0.00    +0.000 HD
ENDBRANCH  28  29
BRANCH  28  31
ATOM     31  C   UNL     1       2.258   1.544  19.430  0.00  0.00    +0.000 C 
BRANCH  31  32
ATOM     32  O   UNL     1       2.482   2.368  20.580  0.00  0.00    +0.000 OA
ATOM     33  H   UNL     1       1.724   2.973  20.653  0.00  0.00    +0.000 HD
ENDBRANCH  31  32
ENDBRANCH  28  31
ENDBRANCH  25  28
ENDBRANCH   6  25
TORSDOF 12
ENDMDL
MODEL 9
REMARK VINA RESULT:      -5.8      2.192      4.605
REMARK  Name = 
REMARK  13 active torsions:
REMARK  status: ('A' for Active; 'I' for Inactive)
REMARK    1  A    between atoms: C_1  and  C_2
REMARK    2  A    between atoms: N_4  and  C_5
REMARK    3  A    between atoms: C_6  and  O_7
REMARK    4  A    between atoms: C_9  and  O_10
REMARK    5  A    between atoms: C_9  and  C_18
REMARK    6  A    between atoms: O_10  and  C_11
REMARK    7  A    between atoms: C_11  and  C_12
REMARK    8  A    between atoms: C_22  and  C_23
REMARK    9  A    between atoms: C_23  and  O_24
REMARK   10  A    between atoms: C_23  and  C_25
REMARK   11  A    between atoms: C_25  and  O_26
REMARK   12  A    between atoms: C_25  and  C_27
REMARK   13  A    between atoms: C_27  and  O_28
REMARK                            x       y       z     vdW  Elec       q    Type
REMARK                         _______ _______ _______ _____ _____    ______ ____
ROOT
ATOM      1  C   UNL     1       5.477   5.130  15.551  0.00  0.00    +0.000 C 
ATOM      2  C   UNL     1       5.201   6.494  16.199  0.00  0.00    +0.000 C 
ATOM      3  C   UNL     1       5.815   6.694  17.618  0.00  0.00    +0.000 C 
ATOM      4  C   UNL     1       6.169   5.452  18.521  0.00  0.00    +0.000 C 
ATOM      5  O   UNL     1       6.471   4.336  17.627  0.00  0.00    +0.000 OA
ATOM      6  C   UNL     1       5.435   4.049  16.651  0.00  0.00    +0.000 C 
ENDROOT
BRANCH   1  10
ATOM      7  C   UNL     1       7.912   4.810  12.589  0.00  0.00    +0.000 C 
ATOM      8  C   UNL     1       6.732   4.513  13.489  0.00  0.00    +0.000 C 
ATOM      9  O   UNL     1       5.847   3.742  13.127  0.00  0.00    +0.000 OA
ATOM     10  N   UNL     1       6.707   5.178  14.709  0.00  0.00    +0.000 N 
ATOM     11  H   UNL     1       7.346   5.954  14.843  0.00  0.00    +0.000 HD
ENDBRANCH   1  10
BRANCH   4  12
ATOM     12  C   UNL     1       7.542   5.869  19.272  0.00  0.00    +0.000 C 
ATOM     13  O   UNL     1       8.225   6.835  18.805  0.00  0.00    +0.000 OA
ATOM     14  O   UNL     1       7.744   5.265  20.389  0.00  0.00    +0.000 OA
ENDBRANCH   4  12
BRANCH   2  15
ATOM     15  O   UNL     1       3.780   6.716  16.230  0.00  0.00    +0.000 OA
ATOM     16  H   UNL     1       3.560   7.287  15.462  0.00  0.00    +0.000 HD
ENDBRANCH   2  15
BRANCH   4  17
ATOM     17  O   UNL     1       5.274   4.889  19.538  0.00  0.00    +0.000 OA
BRANCH  17  18
ATOM     18  C   UNL     1       4.096   5.587  19.957  0.00  0.00    +0.000 C 
BRANCH  18  19
ATOM     19  C   UNL     1       2.890   4.686  20.353  0.00  0.00    +0.000 A 
ATOM     20  C   UNL     1       1.677   4.604  19.650  0.00  0.00    +0.000 A 
ATOM     21  C   UNL     1       0.663   3.689  20.031  0.00  0.00    +0.000 A 
ATOM     22  C   UNL     1       0.834   2.846  21.118  0.00  0.00    +0.000 A 
ATOM     23  C   UNL     1       2.024   2.917  21.855  0.00  0.00    +0.000 A 
ATOM     24  C   UNL     1       3.023   3.828  21.472  0.00  0.00    +0.000 A 
ENDBRANCH  18  19
ENDBRANCH  17  18
ENDBRANCH   4  17
BRANCH   6  25
ATOM     25  C   UNL     1       4.018   3.750  17.313  0.00  0.00    +0.000 C 
BRANCH  25  26
ATOM     26  O   UNL     1       2.878   4.382  16.704  0.00  0.00    +0.000 OA
ATOM     27  H   UNL     1       2.057   4.036  17.095  0.00  0.00    +0.000 HD
ENDBRANCH  25  26
BRANCH  25  28
ATOM     28  C   UNL     1       3.654   2.263  17.472  0.00  0.00    +0.000 C 
BRANCH  28  29
ATOM     29  O   UNL     1       2.281   2.037  17.123  0.00  0.00    +0.000 OA
ATOM     30  H   UNL     1       1.871   1.617  17.907  0.00  0.00    +0.000 HD
ENDBRANCH  28  29
BRANCH  28  31
ATOM     31  C   UNL     1       3.852   1.787  18.928  0.00  0.00    +0.000 C 
BRANCH  31  32
ATOM     32  O   UNL     1       5.151   2.194  19.375  0.00  0.00    +0.000 OA
ATOM     33  H   UNL     1       5.149   2.148  20.346  0.00  0.00    +0.000 HD
ENDBRANCH  31  32
ENDBRANCH  28  31
ENDBRANCH  25  28
ENDBRANCH   6  25
TORSDOF 12
ENDMDL
