MODEL 1
REMARK VINA RESULT:      -6.1      0.000      0.000
REMARK  Name = 
REMARK  8 active torsions:
REMARK  status: ('A' for Active; 'I' for Inactive)
REMARK    1  A    between atoms: C_1  and  O_2
REMARK    2  A    between atoms: O_2  and  C_3
REMARK    3  A    between atoms: C_7  and  C_8
REMARK    4  A    between atoms: C_8  and  C_9
REMARK    5  A    between atoms: C_9  and  C_10
REMARK    6  A    between atoms: C_9  and  N_11
REMARK    7  A    between atoms: C_13  and  O_14
REMARK    8  A    between atoms: O_14  and  C_15
REMARK                            x       y       z     vdW  Elec       q    Type
REMARK                         _______ _______ _______ _____ _____    ______ ____
ROOT
ATOM      1  C   UNL     1       5.830   5.902  16.872  0.00  0.00    +0.000 A 
ATOM      2  C   UNL     1       4.876   6.516  17.697  0.00  0.00    +0.000 A 
ATOM      3  C   UNL     1       3.673   5.876  18.028  0.00  0.00    +0.000 A 
ATOM      4 BR   UNL     1       2.505   6.820  19.193  0.00  0.00    +0.000 Br
ATOM      5  C   UNL     1       3.370   4.609  17.512  0.00  0.00    +0.000 A 
ATOM      6  C   UNL     1       4.340   4.003  16.690  0.00  0.00    +0.000 A 
ATOM      7  C   UNL     1       5.563   4.619  16.376  0.00  0.00    +0.000 A 
ENDROOT
BRANCH   1   9
ATOM      8  C   UNL     1       7.552   7.468  17.390  0.00  0.00    +0.000 C 
ATOM      9  O   UNL     1       6.979   6.536  16.483  0.00  0.00    +0.000 OA
ENDBRANCH   1   9
BRANCH   7  10
ATOM     10  O   UNL     1       6.354   3.825  15.585  0.00  0.00    +0.000 OA
ATOM     11  C   UNL     1       6.230   3.918  14.174  0.00  0.00    +0.000 C 
ENDBRANCH   7  10
BRANCH   5  12
ATOM     12  C   UNL     1       2.047   3.903  17.722  0.00  0.00    +0.000 C 
BRANCH  12  13
ATOM     13  C   UNL     1       1.981   2.972  18.953  0.00  0.00    +0.000 C 
ATOM     14  C   UNL     1       0.877   3.364  19.935  0.00  0.00    +0.000 C 
BRANCH  13  15
ATOM     15  N   UNL     1       1.756   1.589  18.505  0.00  0.00    +0.000 NA
ATOM     16  H   UNL     1       2.398   0.960  18.990  0.00  0.00    +0.000 HD
ATOM     17  H   UNL     1       1.987   1.509  17.516  0.00  0.00    +0.000 HD
ENDBRANCH  13  15
ENDBRANCH  12  13
ENDBRANCH   5  12
TORSDOF 5
ENDMDL
MODEL 2
REMARK VINA RESULT:      -5.9      3.422      5.245
REMARK  Name = 
REMARK  8 active torsions:
REMARK  status: ('A' for Active; 'I' for Inactive)
REMARK    1  A    between atoms: C_1  and  O_2
REMARK    2  A    between atoms: O_2  and  C_3
REMARK    3  A    between atoms: C_7  and  C_8
REMARK    4  A    between atoms: C_8  and  C_9
REMARK    5  A    between atoms: C_9  and  C_10
REMARK    6  A    between atoms: C_9  and  N_11
REMARK    7  A    between atoms: C_13  and  O_14
REMARK    8  A    between atoms: O_14  and  C_15
REMARK                            x       y       z     vdW  Elec       q    Type
REMARK                         _______ _______ _______ _____ _____    ______ ____
ROOT
ATOM      1  C   UNL     1       4.433   3.728  19.055  0.00  0.00    +0.000 A 
ATOM      2  C   UNL     1       5.495   4.640  18.971  0.00  0.00    +0.000 A 
ATOM      3  C   UNL     1       5.860   5.231  17.753  0.00  0.00    +0.000 A 
ATOM      4 BR   UNL     1       7.290   6.481  17.813  0.00  0.00    +0.000 Br
ATOM      5  C   UNL     1       5.190   4.900  16.568  0.00  0.00    +0.000 A 
ATOM      6  C   UNL     1       4.121   3.988  16.668  0.00  0.00    +0.000 A 
ATOM      7  C   UNL     1       3.725   3.412  17.887  0.00  0.00    +0.000 A 
ENDROOT
BRANCH   1   9
ATOM      8  C   UNL     1       4.687   1.813  20.452  0.00  0.00    +0.000 C 
ATOM      9  O   UNL     1       4.105   3.089  20.220  0.00  0.00    +0.000 OA
ENDBRANCH   1   9
BRANCH   7  10
ATOM     10  O   UNL     1       2.646   2.578  17.738  0.00  0.00    +0.000 OA
ATOM     11  C   UNL     1       1.395   2.968  18.285  0.00  0.00    +0.000 C 
ENDBRANCH   7  10
BRANCH   5  12
ATOM     12  C   UNL     1       5.595   5.400  15.197  0.00  0.00    +0.000 C 
BRANCH  12  13
ATOM     13  C   UNL     1       6.696   4.579  14.491  0.00  0.00    +0.000 C 
ATOM     14  C   UNL     1       6.168   3.776  13.303  0.00  0.00    +0.000 C 
BRANCH  13  15
ATOM     15  N   UNL     1       7.756   5.486  14.024  0.00  0.00    +0.000 NA
ATOM     16  H   UNL     1       8.425   5.653  14.777  0.00  0.00    +0.000 HD
ATOM     17  H   UNL     1       7.353   6.396  13.805  0.00  0.00    +0.000 HD
ENDBRANCH  13  15
ENDBRANCH  12  13
ENDBRANCH   5  12
TORSDOF 5
ENDMDL
MODEL 3
REMARK VINA RESULT:      -5.8      3.188      5.044
REMARK  Name = 
REMARK  8 active torsions:
REMARK  status: ('A' for Active; 'I' for Inactive)
REMARK    1  A    between atoms: C_1  and  O_2
REMARK    2  A    between atoms: O_2  and  C_3
REMARK    3  A    between atoms: C_7  and  C_8
REMARK    4  A    between atoms: C_8  and  C_9
REMARK    5  A    between atoms: C_9  and  C_10
REMARK    6  A    between atoms: C_9  and  N_11
REMARK    7  A    between atoms: C_13  and  O_14
REMARK    8  A    between atoms: O_14  and  C_15
REMARK                            x       y       z     vdW  Elec       q    Type
REMARK                         _______ _______ _______ _____ _____    ______ ____
ROOT
ATOM      1  C   UNL     1       2.855   4.515  19.972  0.00  0.00    +0.000 A 
ATOM      2  C   UNL     1       2.576   5.820  19.541  0.00  0.00    +0.000 A 
ATOM      3  C   UNL     1       3.182   6.360  18.398  0.00  0.00    +0.000 A 
ATOM      4 BR   UNL     1       2.664   8.126  17.920  0.00  0.00    +0.000 Br
ATOM      5  C   UNL     1       4.116   5.618  17.664  0.00  0.00    +0.000 A 
ATOM      6  C   UNL     1       4.382   4.307  18.104  0.00  0.00    +0.000 A 
ATOM      7  C   UNL     1       3.760   3.742  19.230  0.00  0.00    +0.000 A 
ENDROOT
BRANCH   1   9
ATOM      8  C   UNL     1       1.190   3.150  20.996  0.00  0.00    +0.000 C 
ATOM      9  O   UNL     1       2.328   3.993  21.122  0.00  0.00    +0.000 OA
ENDBRANCH   1   9
BRANCH   7  10
ATOM     10  O   UNL     1       4.156   2.447  19.445  0.00  0.00    +0.000 OA
ATOM     11  C   UNL     1       3.640   1.421  18.610  0.00  0.00    +0.000 C 
ENDBRANCH   7  10
BRANCH   5  12
ATOM     12  C   UNL     1       4.902   6.167  16.491  0.00  0.00    +0.000 C 
BRANCH  12  13
ATOM     13  C   UNL     1       6.039   5.259  15.972  0.00  0.00    +0.000 C 
ATOM     14  C   UNL     1       5.739   4.659  14.599  0.00  0.00    +0.000 C 
BRANCH  13  15
ATOM     15  N   UNL     1       7.285   6.036  15.895  0.00  0.00    +0.000 NA
ATOM     16  H   UNL     1       8.065   5.474  16.237  0.00  0.00    +0.000 HD
ATOM     17  H   UNL     1       7.226   6.837  16.523  0.00  0.00    +0.000 HD
ENDBRANCH  13  15
ENDBRANCH  12  13
ENDBRANCH   5  12
TORSDOF 5
ENDMDL
MODEL 4
REMARK VINA RESULT:      -5.7      2.184      3.327
REMARK  Name = 
REMARK  8 active torsions:
REMARK  status: ('A' for Active; 'I' for Inactive)
REMARK    1  A    between atoms: C_1  and  O_2
REMARK    2  A    between atoms: O_2  and  C_3
REMARK    3  A    between atoms: C_7  and  C_8
REMARK    4  A    between atoms: C_8  and  C_9
REMARK    5  A    between atoms: C_9  and  C_10
REMARK    6  A    between atoms: C_9  and  N_11
REMARK    7  A    between atoms: C_13  and  O_14
REMARK    8  A    between atoms: O_14  and  C_15
REMARK                            x       y       z     vdW  Elec       q    Type
REMARK                         _______ _______ _______ _____ _____    ______ ____
ROOT
ATOM      1  C   UNL     1       5.731   4.948  16.000  0.00  0.00    +0.000 A 
ATOM      2  C   UNL     1       4.937   3.850  16.363  0.00  0.00    +0.000 A 
ATOM      3  C   UNL     1       4.208   3.837  17.561  0.00  0.00    +0.000 A 
ATOM      4 BR   UNL     1       3.145   2.296  17.888  0.00  0.00    +0.000 Br
ATOM      5  C   UNL     1       4.278   4.915  18.453  0.00  0.00    +0.000 A 
ATOM      6  C   UNL     1       5.074   6.013  18.072  0.00  0.00    +0.000 A 
ATOM      7  C   UNL     1       5.785   6.053  16.861  0.00  0.00    +0.000 A 
ENDROOT
BRANCH   1   9
ATOM      8  C   UNL     1       6.231   3.962  13.887  0.00  0.00    +0.000 C 
ATOM      9  O   UNL     1       6.503   4.953  14.870  0.00  0.00    +0.000 OA
ENDBRANCH   1   9
BRANCH   7  10
ATOM     10  O   UNL     1       6.464   7.233  16.698  0.00  0.00    +0.000 OA
ATOM     11  C   UNL     1       7.581   7.505  17.530  0.00  0.00    +0.000 C 
ENDBRANCH   7  10
BRANCH   5  12
ATOM     12  C   UNL     1       3.619   4.931  19.817  0.00  0.00    +0.000 C 
BRANCH  12  13
ATOM     13  C   UNL     1       2.161   5.439  19.843  0.00  0.00    +0.000 C 
ATOM     14  C   UNL     1       1.201   4.455  20.510  0.00  0.00    +0.000 C 
BRANCH  13  15
ATOM     15  N   UNL     1       2.106   6.723  20.558  0.00  0.00    +0.000 NA
ATOM     16  H   UNL     1       2.088   6.558  21.565  0.00  0.00    +0.000 HD
ATOM     17  H   UNL     1       1.231   7.197  20.340  0.00  0.00    +0.000 HD
ENDBRANCH  13  15
ENDBRANCH  12  13
ENDBRANCH   5  12
TORSDOF 5
ENDMDL
MODEL 5
REMARK VINA RESULT:      -5.7      3.054      5.073
REMARK  Name = 
REMARK  8 active torsions:
REMARK  status: ('A' for Active; 'I' for Inactive)
REMARK    1  A    between atoms: C_1  and  O_2
REMARK    2  A    between atoms: O_2  and  C_3
REMARK    3  A    between atoms: C_7  and  C_8
REMARK    4  A    between atoms: C_8  and  C_9
REMARK    5  A    between atoms: C_9  and  C_10
REMARK    6  A    between atoms: C_9  and  N_11
REMARK    7  A    between atoms: C_13  and  O_14
REMARK    8  A    between atoms: O_14  and  C_15
REMARK                            x       y       z     vdW  Elec       q    Type
REMARK                         _______ _______ _______ _____ _____    ______ ____
ROOT
ATOM      1  C   UNL     1       1.911   3.915  18.741  0.00  0.00    +0.000 A 
ATOM      2  C   UNL     1       1.942   5.317  18.727  0.00  0.00    +0.000 A 
ATOM      3  C   UNL     1       2.883   6.022  17.962  0.00  0.00    +0.000 A 
ATOM      4 BR   UNL     1       2.764   7.918  18.012  0.00  0.00    +0.000 Br
ATOM      5  C   UNL     1       3.848   5.341  17.209  0.00  0.00    +0.000 A 
ATOM      6  C   UNL     1       3.802   3.934  17.228  0.00  0.00    +0.000 A 
ATOM      7  C   UNL     1       2.846   3.215  17.966  0.00  0.00    +0.000 A 
ENDROOT
BRANCH   1   9
ATOM      8  C   UNL     1       1.382   3.072  20.908  0.00  0.00    +0.000 C 
ATOM      9  O   UNL     1       1.047   3.208  19.533  0.00  0.00    +0.000 OA
ENDBRANCH   1   9
BRANCH   7  10
ATOM     10  O   UNL     1       2.982   1.859  17.806  0.00  0.00    +0.000 OA
ATOM     11  C   UNL     1       3.884   1.154  18.645  0.00  0.00    +0.000 C 
ENDBRANCH   7  10
BRANCH   5  12
ATOM     12  C   UNL     1       4.969   6.023  16.453  0.00  0.00    +0.000 C 
BRANCH  12  13
ATOM     13  C   UNL     1       6.110   5.096  15.980  0.00  0.00    +0.000 C 
ATOM     14  C   UNL     1       5.956   4.660  14.524  0.00  0.00    +0.000 C 
BRANCH  13  15
ATOM     15  N   UNL     1       7.398   5.788  16.141  0.00  0.00    +0.000 NA
ATOM     16  H   UNL     1       8.083   5.399  15.492  0.00  0.00    +0.000 HD
ATOM     17  H   UNL     1       7.767   5.608  17.074  0.00  0.00    +0.000 HD
ENDBRANCH  13  15
ENDBRANCH  12  13
ENDBRANCH   5  12
TORSDOF 5
ENDMDL
MODEL 6
REMARK VINA RESULT:      -5.7      1.386      1.491
REMARK  Name = 
REMARK  8 active torsions:
REMARK  status: ('A' for Active; 'I' for Inactive)
REMARK    1  A    between atoms: C_1  and  O_2
REMARK    2  A    between atoms: O_2  and  C_3
REMARK    3  A    between atoms: C_7  and  C_8
REMARK    4  A    between atoms: C_8  and  C_9
REMARK    5  A    between atoms: C_9  and  C_10
REMARK    6  A    between atoms: C_9  and  N_11
REMARK    7  A    between atoms: C_13  and  O_14
REMARK    8  A    between atoms: O_14  and  C_15
REMARK                            x       y       z     vdW  Elec       q    Type
REMARK                         _______ _______ _______ _____ _____    ______ ____
ROOT
ATOM      1  C   UNL     1       6.353   5.454  18.002  0.00  0.00    +0.000 A 
ATOM      2  C   UNL     1       5.342   5.490  18.973  0.00  0.00    +0.000 A 
ATOM      3  C   UNL     1       4.120   4.828  18.783  0.00  0.00    +0.000 A 
ATOM      4 BR   UNL     1       2.870   4.933  20.211  0.00  0.00    +0.000 Br
ATOM      5  C   UNL     1       3.859   4.133  17.595  0.00  0.00    +0.000 A 
ATOM      6  C   UNL     1       4.886   4.101  16.631  0.00  0.00    +0.000 A 
ATOM      7  C   UNL     1       6.126   4.734  16.821  0.00  0.00    +0.000 A 
ENDROOT
BRANCH   1   9
ATOM      8  C   UNL     1       7.567   7.470  17.612  0.00  0.00    +0.000 C 
ATOM      9  O   UNL     1       7.524   6.149  18.137  0.00  0.00    +0.000 OA
ENDBRANCH   1   9
BRANCH   7  10
ATOM     10  O   UNL     1       6.973   4.540  15.760  0.00  0.00    +0.000 OA
ATOM     11  C   UNL     1       6.445   4.041  14.540  0.00  0.00    +0.000 C 
ENDBRANCH   7  10
BRANCH   5  12
ATOM     12  C   UNL     1       2.527   3.494  17.262  0.00  0.00    +0.000 C 
BRANCH  12  13
ATOM     13  C   UNL     1       2.346   2.042  17.757  0.00  0.00    +0.000 C 
ATOM     14  C   UNL     1       3.582   1.502  18.476  0.00  0.00    +0.000 C 
BRANCH  13  15
ATOM     15  N   UNL     1       1.194   1.979  18.669  0.00  0.00    +0.000 NA
ATOM     16  H   UNL     1       0.884   2.923  18.901  0.00  0.00    +0.000 HD
ATOM     17  H   UNL     1       1.481   1.558  19.552  0.00  0.00    +0.000 HD
ENDBRANCH  13  15
ENDBRANCH  12  13
ENDBRANCH   5  12
TORSDOF 5
ENDMDL
MODEL 7
REMARK VINA RESULT:      -5.6      3.150      5.094
REMARK  Name = 
REMARK  8 active torsions:
REMARK  status: ('A' for Active; 'I' for Inactive)
REMARK    1  A    between atoms: C_1  and  O_2
REMARK    2  A    between atoms: O_2  and  C_3
REMARK    3  A    between atoms: C_7  and  C_8
REMARK    4  A    between atoms: C_8  and  C_9
REMARK    5  A    between atoms: C_9  and  C_10
REMARK    6  A    between atoms: C_9  and  N_11
REMARK    7  A    between atoms: C_13  and  O_14
REMARK    8  A    between atoms: O_14  and  C_15
REMARK                            x       y       z     vdW  Elec       q    Type
REMARK                         _______ _______ _______ _____ _____    ______ ____
ROOT
ATOM      1  C   UNL     1       2.010   4.003  18.430  0.00  0.00    +0.000 A 
ATOM      2  C   UNL     1       2.048   5.404  18.433  0.00  0.00    +0.000 A 
ATOM      3  C   UNL     1       3.082   6.111  17.802  0.00  0.00    +0.000 A 
ATOM      4 BR   UNL     1       2.965   8.008  17.855  0.00  0.00    +0.000 Br
ATOM      5  C   UNL     1       4.133   5.433  17.173  0.00  0.00    +0.000 A 
ATOM      6  C   UNL     1       4.080   4.025  17.173  0.00  0.00    +0.000 A 
ATOM      7  C   UNL     1       3.034   3.304  17.774  0.00  0.00    +0.000 A 
ENDROOT
BRANCH   1   9
ATOM      8  C   UNL     1       1.032   3.386  20.515  0.00  0.00    +0.000 C 
ATOM      9  O   UNL     1       1.049   3.293  19.097  0.00  0.00    +0.000 OA
ENDBRANCH   1   9
BRANCH   7  10
ATOM     10  O   UNL     1       3.185   1.950  17.620  0.00  0.00    +0.000 OA
ATOM     11  C   UNL     1       3.817   1.206  18.651  0.00  0.00    +0.000 C 
ENDBRANCH   7  10
BRANCH   5  12
ATOM     12  C   UNL     1       5.345   6.116  16.574  0.00  0.00    +0.000 C 
BRANCH  12  13
ATOM     13  C   UNL     1       6.489   6.426  17.565  0.00  0.00    +0.000 C 
ATOM     14  C   UNL     1       7.443   5.248  17.757  0.00  0.00    +0.000 C 
BRANCH  13  15
ATOM     15  N   UNL     1       7.251   7.587  17.081  0.00  0.00    +0.000 NA
ATOM     16  H   UNL     1       7.863   7.932  17.821  0.00  0.00    +0.000 HD
ATOM     17  H   UNL     1       6.610   8.352  16.873  0.00  0.00    +0.000 HD
ENDBRANCH  13  15
ENDBRANCH  12  13
ENDBRANCH   5  12
TORSDOF 5
ENDMDL
MODEL 8
REMARK VINA RESULT:      -5.6      2.330      3.591
REMARK  Name = 
REMARK  8 active torsions:
REMARK  status: ('A' for Active; 'I' for Inactive)
REMARK    1  A    between atoms: C_1  and  O_2
REMARK    2  A    between atoms: O_2  and  C_3
REMARK    3  A    between atoms: C_7  and  C_8
REMARK    4  A    between atoms: C_8  and  C_9
REMARK    5  A    between atoms: C_9  and  C_10
REMARK    6  A    between atoms: C_9  and  N_11
REMARK    7  A    between atoms: C_13  and  O_14
REMARK    8  A    between atoms: O_14  and  C_15
REMARK                            x       y       z     vdW  Elec       q    Type
REMARK                         _______ _______ _______ _____ _____    ______ ____
ROOT
ATOM      1  C   UNL     1       6.083   4.626  15.924  0.00  0.00    +0.000 A 
ATOM      2  C   UNL     1       4.922   3.898  16.224  0.00  0.00    +0.000 A 
ATOM      3  C   UNL     1       4.112   4.228  17.320  0.00  0.00    +0.000 A 
ATOM      4 BR   UNL     1       2.550   3.174  17.565  0.00  0.00    +0.000 Br
ATOM      5  C   UNL     1       4.459   5.283  18.174  0.00  0.00    +0.000 A 
ATOM      6  C   UNL     1       5.623   6.009  17.858  0.00  0.00    +0.000 A 
ATOM      7  C   UNL     1       6.427   5.709  16.745  0.00  0.00    +0.000 A 
ENDROOT
BRANCH   1   9
ATOM      8  C   UNL     1       6.332   3.970  13.645  0.00  0.00    +0.000 C 
ATOM      9  O   UNL     1       6.923   4.278  14.901  0.00  0.00    +0.000 OA
ENDBRANCH   1   9
BRANCH   7  10
ATOM     10  O   UNL     1       7.489   6.569  16.626  0.00  0.00    +0.000 OA
ATOM     11  C   UNL     1       7.638   7.613  17.577  0.00  0.00    +0.000 C 
ENDBRANCH   7  10
BRANCH   5  12
ATOM     12  C   UNL     1       3.707   5.628  19.442  0.00  0.00    +0.000 C 
BRANCH  12  13
ATOM     13  C   UNL     1       2.933   6.964  19.411  0.00  0.00    +0.000 C 
ATOM     14  C   UNL     1       2.200   7.195  18.091  0.00  0.00    +0.000 C 
BRANCH  13  15
ATOM     15  N   UNL     1       1.958   6.988  20.512  0.00  0.00    +0.000 NA
ATOM     16  H   UNL     1       1.497   7.898  20.546  0.00  0.00    +0.000 HD
ATOM     17  H   UNL     1       2.446   6.893  21.402  0.00  0.00    +0.000 HD
ENDBRANCH  13  15
ENDBRANCH  12  13
ENDBRANCH   5  12
TORSDOF 5
ENDMDL
MODEL 9
REMARK VINA RESULT:      -5.5      2.383      3.377
REMARK  Name = 
REMARK  8 active torsions:
REMARK  status: ('A' for Active; 'I' for Inactive)
REMARK    1  A    between atoms: C_1  and  O_2
REMARK    2  A    between atoms: O_2  and  C_3
REMARK    3  A    between atoms: C_7  and  C_8
REMARK    4  A    between atoms: C_8  and  C_9
REMARK    5  A    between atoms: C_9  and  C_10
REMARK    6  A    between atoms: C_9  and  N_11
REMARK    7  A    between atoms: C_13  and  O_14
REMARK    8  A    between atoms: O_14  and  C_15
REMARK                            x       y       z     vdW  Elec       q    Type
REMARK                         _______ _______ _______ _____ _____    ______ ____
ROOT
ATOM      1  C   UNL     1       4.671   5.562  17.219  0.00  0.00    +0.000 A 
ATOM      2  C   UNL     1       4.572   4.180  17.441  0.00  0.00    +0.000 A 
ATOM      3  C   UNL     1       3.453   3.617  18.072  0.00  0.00    +0.000 A 
ATOM      4 BR   UNL     1       3.449   1.726  18.256  0.00  0.00    +0.000 Br
ATOM      5  C   UNL     1       2.408   4.428  18.532  0.00  0.00    +0.000 A 
ATOM      6  C   UNL     1       2.518   5.812  18.298  0.00  0.00    +0.000 A 
ATOM      7  C   UNL     1       3.619   6.387  17.640  0.00  0.00    +0.000 A 
ENDROOT
BRANCH   1   9
ATOM      8  C   UNL     1       6.944   6.233  17.484  0.00  0.00    +0.000 C 
ATOM      9  O   UNL     1       5.783   6.138  16.668  0.00  0.00    +0.000 OA
ENDBRANCH   1   9
BRANCH   7  10
ATOM     10  O   UNL     1       3.488   7.745  17.503  0.00  0.00    +0.000 OA
ATOM     11  C   UNL     1       2.275   8.364  17.904  0.00  0.00    +0.000 C 
ENDBRANCH   7  10
BRANCH   5  12
ATOM     12  C   UNL     1       1.224   3.915  19.326  0.00  0.00    +0.000 C 
BRANCH  12  13
ATOM     13  C   UNL     1       1.365   4.008  20.861  0.00  0.00    +0.000 C 
ATOM     14  C   UNL     1       1.718   2.669  21.507  0.00  0.00    +0.000 C 
BRANCH  13  15
ATOM     15  N   UNL     1       2.406   4.992  21.195  0.00  0.00    +0.000 NA
ATOM     16  H   UNL     1       3.148   4.541  21.732  0.00  0.00    +0.000 HD
ATOM     17  H   UNL     1       2.016   5.705  21.809  0.00  0.00    +0.000 HD
ENDBRANCH  13  15
ENDBRANCH  12  13
ENDBRANCH   5  12
TORSDOF 5
ENDMDL
