MODEL 1
REMARK VINA RESULT:      -8.6      0.000      0.000
REMARK  Name = 
REMARK  2 active torsions:
REMARK  status: ('A' for Active; 'I' for Inactive)
REMARK    1  A    between atoms: C_4  and  C_5
REMARK    2  A    between atoms: C_13  and  C_14
REMARK                            x       y       z     vdW  Elec       q    Type
REMARK                         _______ _______ _______ _____ _____    ______ ____
ROOT
ATOM      1  C   UNL     1       6.690   4.360  16.043  0.00  0.00    +0.000 A 
ATOM      2  N   UNL     1       7.832   4.009  16.647  0.00  0.00    +0.000 NA
ATOM      3  N   UNL     1       8.020   4.825  17.727  0.00  0.00    +0.000 NA
ATOM      4  C   UNL     1       6.930   5.542  17.802  0.00  0.00    +0.000 A 
ATOM      5  N   UNL     1       5.904   4.917  17.089  0.00  0.00    +0.000 N 
ATOM      6  C   UNL     1       4.600   5.516  17.281  0.00  0.00    +0.000 A 
ATOM      7  C   UNL     1       3.834   5.083  18.392  0.00  0.00    +0.000 A 
ATOM      8  C   UNL     1       2.911   5.948  19.080  0.00  0.00    +0.000 A 
ATOM      9  C   UNL     1       2.663   7.263  18.650  0.00  0.00    +0.000 A 
ATOM     10  C   UNL     1       3.478   7.713  17.602  0.00  0.00    +0.000 A 
ATOM     11  C   UNL     1       4.537   6.912  17.092  0.00  0.00    +0.000 A 
ATOM     12  C   UNL     1       5.897   7.615  16.997  0.00  0.00    +0.000 C 
ATOM     13  C   UNL     1       6.763   6.988  18.134  0.00  0.00    +0.000 C 
ENDROOT
BRANCH   1  17
ATOM     14  C   UNL     1       6.907   4.256  11.708  0.00  0.00    +0.000 A 
ATOM     15  C   UNL     1       5.947   3.489  12.363  0.00  0.00    +0.000 A 
ATOM     16  C   UNL     1       5.800   3.518  13.780  0.00  0.00    +0.000 A 
ATOM     17  C   UNL     1       6.633   4.316  14.552  0.00  0.00    +0.000 A 
ATOM     18  C   UNL     1       7.586   5.108  13.848  0.00  0.00    +0.000 A 
ATOM     19  C   UNL     1       7.728   5.082  12.450  0.00  0.00    +0.000 A 
ENDBRANCH   1  17
BRANCH   9  20
ATOM     20  C   UNL     1       1.719   8.212  19.313  0.00  0.00    +0.000 A 
ATOM     21  C   UNL     1       1.389   8.190  20.678  0.00  0.00    +0.000 A 
ATOM     22  C   UNL     1       0.542   9.175  21.230  0.00  0.00    +0.000 A 
ATOM     23  C   UNL     1       0.045  10.167  20.410  0.00  0.00    +0.000 A 
ATOM     24  N   UNL     1       0.337  10.244  19.101  0.00  0.00    +0.000 NA
ATOM     25  C   UNL     1       1.154   9.277  18.603  0.00  0.00    +0.000 A 
ENDBRANCH   9  20
TORSDOF 2
ENDMDL
MODEL 2
REMARK VINA RESULT:      -8.2      0.587      1.383
REMARK  Name = 
REMARK  2 active torsions:
REMARK  status: ('A' for Active; 'I' for Inactive)
REMARK    1  A    between atoms: C_4  and  C_5
REMARK    2  A    between atoms: C_13  and  C_14
REMARK                            x       y       z     vdW  Elec       q    Type
REMARK                         _______ _______ _______ _____ _____    ______ ____
ROOT
ATOM      1  C   UNL     1       6.815   4.372  16.079  0.00  0.00    +0.000 A 
ATOM      2  N   UNL     1       7.848   3.926  16.805  0.00  0.00    +0.000 NA
ATOM      3  N   UNL     1       7.950   4.694  17.931  0.00  0.00    +0.000 NA
ATOM      4  C   UNL     1       6.908   5.482  17.898  0.00  0.00    +0.000 A 
ATOM      5  N   UNL     1       5.942   4.949  17.041  0.00  0.00    +0.000 N 
ATOM      6  C   UNL     1       4.664   5.630  17.092  0.00  0.00    +0.000 A 
ATOM      7  C   UNL     1       3.739   5.218  18.084  0.00  0.00    +0.000 A 
ATOM      8  C   UNL     1       2.795   6.123  18.685  0.00  0.00    +0.000 A 
ATOM      9  C   UNL     1       2.687   7.464  18.278  0.00  0.00    +0.000 A 
ATOM     10  C   UNL     1       3.655   7.888  17.356  0.00  0.00    +0.000 A 
ATOM     11  C   UNL     1       4.716   7.032  16.951  0.00  0.00    +0.000 A 
ATOM     12  C   UNL     1       6.119   7.644  17.050  0.00  0.00    +0.000 C 
ATOM     13  C   UNL     1       6.794   6.925  18.261  0.00  0.00    +0.000 C 
ENDROOT
BRANCH   1  17
ATOM     14  C   UNL     1       6.808   4.329  11.737  0.00  0.00    +0.000 A 
ATOM     15  C   UNL     1       7.679   5.182  12.412  0.00  0.00    +0.000 A 
ATOM     16  C   UNL     1       7.756   5.206  13.834  0.00  0.00    +0.000 A 
ATOM     17  C   UNL     1       6.943   4.375  14.592  0.00  0.00    +0.000 A 
ATOM     18  C   UNL     1       6.084   3.497  13.870  0.00  0.00    +0.000 A 
ATOM     19  C   UNL     1       6.010   3.470  12.467  0.00  0.00    +0.000 A 
ENDBRANCH   1  17
BRANCH   9  20
ATOM     20  C   UNL     1       1.730   8.456  18.855  0.00  0.00    +0.000 A 
ATOM     21  C   UNL     1       1.049   9.435  18.114  0.00  0.00    +0.000 A 
ATOM     22  C   UNL     1       0.108  10.283  18.736  0.00  0.00    +0.000 A 
ATOM     23  C   UNL     1      -0.140  10.134  20.085  0.00  0.00    +0.000 A 
ATOM     24  N   UNL     1       0.473   9.206  20.840  0.00  0.00    +0.000 NA
ATOM     25  C   UNL     1       1.375   8.408  20.207  0.00  0.00    +0.000 A 
ENDBRANCH   9  20
TORSDOF 2
ENDMDL
MODEL 3
REMARK VINA RESULT:      -8.1      2.825      4.492
REMARK  Name = 
REMARK  2 active torsions:
REMARK  status: ('A' for Active; 'I' for Inactive)
REMARK    1  A    between atoms: C_4  and  C_5
REMARK    2  A    between atoms: C_13  and  C_14
REMARK                            x       y       z     vdW  Elec       q    Type
REMARK                         _______ _______ _______ _____ _____    ______ ____
ROOT
ATOM      1  C   UNL     1       3.723   5.021  17.553  0.00  0.00    +0.000 A 
ATOM      2  N   UNL     1       3.114   4.005  16.930  0.00  0.00    +0.000 NA
ATOM      3  N   UNL     1       1.853   3.878  17.440  0.00  0.00    +0.000 NA
ATOM      4  C   UNL     1       1.712   4.894  18.250  0.00  0.00    +0.000 A 
ATOM      5  N   UNL     1       2.656   5.876  17.942  0.00  0.00    +0.000 N 
ATOM      6  C   UNL     1       2.454   7.130  18.638  0.00  0.00    +0.000 A 
ATOM      7  C   UNL     1       1.567   8.069  18.056  0.00  0.00    +0.000 A 
ATOM      8  C   UNL     1       0.782   8.984  18.844  0.00  0.00    +0.000 A 
ATOM      9  C   UNL     1       0.896   9.047  20.244  0.00  0.00    +0.000 A 
ATOM     10  C   UNL     1       1.713   8.065  20.821  0.00  0.00    +0.000 A 
ATOM     11  C   UNL     1       2.297   7.032  20.036  0.00  0.00    +0.000 A 
ATOM     12  C   UNL     1       2.079   5.609  20.567  0.00  0.00    +0.000 C 
ATOM     13  C   UNL     1       1.051   4.960  19.587  0.00  0.00    +0.000 C 
ENDROOT
BRANCH   1  17
ATOM     14  C   UNL     1       8.023   4.777  18.111  0.00  0.00    +0.000 A 
ATOM     15  C   UNL     1       7.214   5.151  19.182  0.00  0.00    +0.000 A 
ATOM     16  C   UNL     1       5.795   5.206  19.069  0.00  0.00    +0.000 A 
ATOM     17  C   UNL     1       5.177   4.892  17.866  0.00  0.00    +0.000 A 
ATOM     18  C   UNL     1       6.032   4.487  16.800  0.00  0.00    +0.000 A 
ATOM     19  C   UNL     1       7.432   4.430  16.913  0.00  0.00    +0.000 A 
ENDBRANCH   1  17
BRANCH   9  20
ATOM     20  C   UNL     1       0.117   9.970  21.122  0.00  0.00    +0.000 A 
ATOM     21  C   UNL     1      -0.606  11.086  20.669  0.00  0.00    +0.000 A 
ATOM     22  C   UNL     1      -1.373  11.860  21.565  0.00  0.00    +0.000 A 
ATOM     23  C   UNL     1      -1.409  11.502  22.897  0.00  0.00    +0.000 A 
ATOM     24  N   UNL     1      -0.747  10.439  23.384  0.00  0.00    +0.000 NA
ATOM     25  C   UNL     1      -0.017   9.717  22.491  0.00  0.00    +0.000 A 
ENDBRANCH   9  20
TORSDOF 2
ENDMDL
MODEL 4
REMARK VINA RESULT:      -8.1      2.729      4.351
REMARK  Name = 
REMARK  2 active torsions:
REMARK  status: ('A' for Active; 'I' for Inactive)
REMARK    1  A    between atoms: C_4  and  C_5
REMARK    2  A    between atoms: C_13  and  C_14
REMARK                            x       y       z     vdW  Elec       q    Type
REMARK                         _______ _______ _______ _____ _____    ______ ____
ROOT
ATOM      1  C   UNL     1       3.940   5.149  17.415  0.00  0.00    +0.000 A 
ATOM      2  N   UNL     1       3.396   4.103  16.781  0.00  0.00    +0.000 NA
ATOM      3  N   UNL     1       2.145   3.893  17.288  0.00  0.00    +0.000 NA
ATOM      4  C   UNL     1       1.941   4.889  18.109  0.00  0.00    +0.000 A 
ATOM      5  N   UNL     1       2.822   5.931  17.813  0.00  0.00    +0.000 N 
ATOM      6  C   UNL     1       2.541   7.163  18.522  0.00  0.00    +0.000 A 
ATOM      7  C   UNL     1       1.597   8.051  17.949  0.00  0.00    +0.000 A 
ATOM      8  C   UNL     1       0.757   8.906  18.746  0.00  0.00    +0.000 A 
ATOM      9  C   UNL     1       0.866   8.961  20.146  0.00  0.00    +0.000 A 
ATOM     10  C   UNL     1       1.743   8.026  20.714  0.00  0.00    +0.000 A 
ATOM     11  C   UNL     1       2.390   7.040  19.918  0.00  0.00    +0.000 A 
ATOM     12  C   UNL     1       2.262   5.601  20.434  0.00  0.00    +0.000 C 
ATOM     13  C   UNL     1       1.277   4.899  19.446  0.00  0.00    +0.000 C 
ENDROOT
BRANCH   1  17
ATOM     14  C   UNL     1       8.087   4.945  18.687  0.00  0.00    +0.000 A 
ATOM     15  C   UNL     1       7.737   4.486  17.419  0.00  0.00    +0.000 A 
ATOM     16  C   UNL     1       6.401   4.569  16.932  0.00  0.00    +0.000 A 
ATOM     17  C   UNL     1       5.399   5.108  17.728  0.00  0.00    +0.000 A 
ATOM     18  C   UNL     1       5.796   5.592  19.008  0.00  0.00    +0.000 A 
ATOM     19  C   UNL     1       7.116   5.513  19.487  0.00  0.00    +0.000 A 
ENDBRANCH   1  17
BRANCH   9  20
ATOM     20  C   UNL     1       0.030   9.824  21.034  0.00  0.00    +0.000 A 
ATOM     21  C   UNL     1      -0.215   9.574  22.394  0.00  0.00    +0.000 A 
ATOM     22  C   UNL     1      -0.959  10.487  23.171  0.00  0.00    +0.000 A 
ATOM     23  C   UNL     1      -1.440  11.636  22.577  0.00  0.00    +0.000 A 
ATOM     24  N   UNL     1      -1.226  11.932  21.284  0.00  0.00    +0.000 NA
ATOM     25  C   UNL     1      -0.506  11.029  20.565  0.00  0.00    +0.000 A 
ENDBRANCH   9  20
TORSDOF 2
ENDMDL
MODEL 5
REMARK VINA RESULT:      -7.9      3.099      4.615
REMARK  Name = 
REMARK  2 active torsions:
REMARK  status: ('A' for Active; 'I' for Inactive)
REMARK    1  A    between atoms: C_4  and  C_5
REMARK    2  A    between atoms: C_13  and  C_14
REMARK                            x       y       z     vdW  Elec       q    Type
REMARK                         _______ _______ _______ _____ _____    ______ ____
ROOT
ATOM      1  C   UNL     1       4.038   5.843  17.713  0.00  0.00    +0.000 A 
ATOM      2  N   UNL     1       3.612   4.712  17.138  0.00  0.00    +0.000 NA
ATOM      3  N   UNL     1       2.356   4.437  17.601  0.00  0.00    +0.000 NA
ATOM      4  C   UNL     1       2.032   5.471  18.332  0.00  0.00    +0.000 A 
ATOM      5  N   UNL     1       2.843   6.557  17.996  0.00  0.00    +0.000 N 
ATOM      6  C   UNL     1       2.430   7.811  18.593  0.00  0.00    +0.000 A 
ATOM      7  C   UNL     1       1.450   8.573  17.910  0.00  0.00    +0.000 A 
ATOM      8  C   UNL     1       0.504   9.413  18.599  0.00  0.00    +0.000 A 
ATOM      9  C   UNL     1       0.536   9.580  19.994  0.00  0.00    +0.000 A 
ATOM     10  C   UNL     1       1.453   8.765  20.672  0.00  0.00    +0.000 A 
ATOM     11  C   UNL     1       2.216   7.780  19.987  0.00  0.00    +0.000 A 
ATOM     12  C   UNL     1       2.174   6.377  20.606  0.00  0.00    +0.000 C 
ATOM     13  C   UNL     1       1.300   5.525  19.632  0.00  0.00    +0.000 C 
ENDROOT
BRANCH   1  17
ATOM     14  C   UNL     1       8.201   6.515  18.750  0.00  0.00    +0.000 A 
ATOM     15  C   UNL     1       7.458   5.584  19.472  0.00  0.00    +0.000 A 
ATOM     16  C   UNL     1       6.102   5.291  19.148  0.00  0.00    +0.000 A 
ATOM     17  C   UNL     1       5.477   5.945  18.095  0.00  0.00    +0.000 A 
ATOM     18  C   UNL     1       6.275   6.870  17.361  0.00  0.00    +0.000 A 
ATOM     19  C   UNL     1       7.614   7.157  17.678  0.00  0.00    +0.000 A 
ENDBRANCH   1  17
BRANCH   9  20
ATOM     20  C   UNL     1      -0.411  10.435  20.772  0.00  0.00    +0.000 A 
ATOM     21  C   UNL     1      -0.501  10.459  22.173  0.00  0.00    +0.000 A 
ATOM     22  C   UNL     1      -1.377  11.354  22.823  0.00  0.00    +0.000 A 
ATOM     23  C   UNL     1      -2.142  12.214  22.062  0.00  0.00    +0.000 A 
ATOM     24  N   UNL     1      -2.088  12.243  20.719  0.00  0.00    +0.000 NA
ATOM     25  C   UNL     1      -1.234  11.364  20.127  0.00  0.00    +0.000 A 
ENDBRANCH   9  20
TORSDOF 2
ENDMDL
MODEL 6
REMARK VINA RESULT:      -7.8      4.473      8.890
REMARK  Name = 
REMARK  2 active torsions:
REMARK  status: ('A' for Active; 'I' for Inactive)
REMARK    1  A    between atoms: C_4  and  C_5
REMARK    2  A    between atoms: C_13  and  C_14
REMARK                            x       y       z     vdW  Elec       q    Type
REMARK                         _______ _______ _______ _____ _____    ______ ____
ROOT
ATOM      1  C   UNL     1       0.135  12.660  19.310  0.00  0.00    +0.000 A 
ATOM      2  N   UNL     1      -1.154  13.001  19.192  0.00  0.00    +0.000 NA
ATOM      3  N   UNL     1      -1.869  11.884  18.862  0.00  0.00    +0.000 NA
ATOM      4  C   UNL     1      -1.008  10.903  18.919  0.00  0.00    +0.000 A 
ATOM      5  N   UNL     1       0.097  11.289  19.682  0.00  0.00    +0.000 N 
ATOM      6  C   UNL     1       1.013  10.209  19.985  0.00  0.00    +0.000 A 
ATOM      7  C   UNL     1       0.740   9.416  21.127  0.00  0.00    +0.000 A 
ATOM      8  C   UNL     1       1.096   8.023  21.206  0.00  0.00    +0.000 A 
ATOM      9  C   UNL     1       1.798   7.376  20.174  0.00  0.00    +0.000 A 
ATOM     10  C   UNL     1       1.996   8.139  19.016  0.00  0.00    +0.000 A 
ATOM     11  C   UNL     1       1.434   9.439  18.881  0.00  0.00    +0.000 A 
ATOM     12  C   UNL     1       0.646   9.676  17.586  0.00  0.00    +0.000 C 
ATOM     13  C   UNL     1      -0.853   9.720  18.022  0.00  0.00    +0.000 C 
ENDROOT
BRANCH   1  17
ATOM     14  C   UNL     1       3.029  15.700  18.195  0.00  0.00    +0.000 A 
ATOM     15  C   UNL     1       3.377  14.355  18.096  0.00  0.00    +0.000 A 
ATOM     16  C   UNL     1       2.454  13.315  18.406  0.00  0.00    +0.000 A 
ATOM     17  C   UNL     1       1.169  13.624  18.831  0.00  0.00    +0.000 A 
ATOM     18  C   UNL     1       0.838  15.008  18.895  0.00  0.00    +0.000 A 
ATOM     19  C   UNL     1       1.747  16.035  18.586  0.00  0.00    +0.000 A 
ENDBRANCH   1  17
BRANCH   9  20
ATOM     20  C   UNL     1       2.200   5.937  20.190  0.00  0.00    +0.000 A 
ATOM     21  C   UNL     1       1.398   4.886  20.664  0.00  0.00    +0.000 A 
ATOM     22  C   UNL     1       1.836   3.548  20.571  0.00  0.00    +0.000 A 
ATOM     23  C   UNL     1       3.064   3.283  20.002  0.00  0.00    +0.000 A 
ATOM     24  N   UNL     1       3.867   4.247  19.521  0.00  0.00    +0.000 NA
ATOM     25  C   UNL     1       3.414   5.525  19.629  0.00  0.00    +0.000 A 
ENDBRANCH   9  20
TORSDOF 2
ENDMDL
MODEL 7
REMARK VINA RESULT:      -7.6      3.912      8.643
REMARK  Name = 
REMARK  2 active torsions:
REMARK  status: ('A' for Active; 'I' for Inactive)
REMARK    1  A    between atoms: C_4  and  C_5
REMARK    2  A    between atoms: C_13  and  C_14
REMARK                            x       y       z     vdW  Elec       q    Type
REMARK                         _______ _______ _______ _____ _____    ______ ____
ROOT
ATOM      1  C   UNL     1       0.821  11.824  20.197  0.00  0.00    +0.000 A 
ATOM      2  N   UNL     1      -0.454  12.231  20.236  0.00  0.00    +0.000 NA
ATOM      3  N   UNL     1      -1.226  11.297  19.605  0.00  0.00    +0.000 NA
ATOM      4  C   UNL     1      -0.410  10.315  19.328  0.00  0.00    +0.000 A 
ATOM      5  N   UNL     1       0.728  10.407  20.133  0.00  0.00    +0.000 N 
ATOM      6  C   UNL     1       1.600   9.253  20.058  0.00  0.00    +0.000 A 
ATOM      7  C   UNL     1       1.316   8.158  20.912  0.00  0.00    +0.000 A 
ATOM      8  C   UNL     1       1.610   6.796  20.547  0.00  0.00    +0.000 A 
ATOM      9  C   UNL     1       2.258   6.472  19.343  0.00  0.00    +0.000 A 
ATOM     10  C   UNL     1       2.465   7.547  18.468  0.00  0.00    +0.000 A 
ATOM     11  C   UNL     1       1.960   8.845  18.757  0.00  0.00    +0.000 A 
ATOM     12  C   UNL     1       1.156   9.498  17.626  0.00  0.00    +0.000 C 
ATOM     13  C   UNL     1      -0.330   9.460  18.106  0.00  0.00    +0.000 C 
ENDROOT
BRANCH   1  17
ATOM     14  C   UNL     1       3.763  14.885  19.285  0.00  0.00    +0.000 A 
ATOM     15  C   UNL     1       3.319  14.731  20.597  0.00  0.00    +0.000 A 
ATOM     16  C   UNL     1       2.389  13.716  20.961  0.00  0.00    +0.000 A 
ATOM     17  C   UNL     1       1.887  12.849  20.000  0.00  0.00    +0.000 A 
ATOM     18  C   UNL     1       2.382  13.016  18.674  0.00  0.00    +0.000 A 
ATOM     19  C   UNL     1       3.303  14.016  18.315  0.00  0.00    +0.000 A 
ENDBRANCH   1  17
BRANCH   9  20
ATOM     20  C   UNL     1       2.594   5.085  18.903  0.00  0.00    +0.000 A 
ATOM     21  C   UNL     1       1.940   4.391  17.871  0.00  0.00    +0.000 A 
ATOM     22  C   UNL     1       2.377   3.109  17.477  0.00  0.00    +0.000 A 
ATOM     23  C   UNL     1       3.461   2.544  18.115  0.00  0.00    +0.000 A 
ATOM     24  N   UNL     1       4.132   3.166  19.100  0.00  0.00    +0.000 NA
ATOM     25  C   UNL     1       3.682   4.400  19.455  0.00  0.00    +0.000 A 
ENDBRANCH   9  20
TORSDOF 2
ENDMDL
MODEL 8
REMARK VINA RESULT:      -7.6      4.699      8.628
REMARK  Name = 
REMARK  2 active torsions:
REMARK  status: ('A' for Active; 'I' for Inactive)
REMARK    1  A    between atoms: C_4  and  C_5
REMARK    2  A    between atoms: C_13  and  C_14
REMARK                            x       y       z     vdW  Elec       q    Type
REMARK                         _______ _______ _______ _____ _____    ______ ____
ROOT
ATOM      1  C   UNL     1       0.756  12.240  19.780  0.00  0.00    +0.000 A 
ATOM      2  N   UNL     1      -0.434  12.736  19.420  0.00  0.00    +0.000 NA
ATOM      3  N   UNL     1      -1.147  11.747  18.803  0.00  0.00    +0.000 NA
ATOM      4  C   UNL     1      -0.414  10.673  18.929  0.00  0.00    +0.000 A 
ATOM      5  N   UNL     1       0.510  10.851  19.961  0.00  0.00    +0.000 N 
ATOM      6  C   UNL     1       1.230   9.649  20.326  0.00  0.00    +0.000 A 
ATOM      7  C   UNL     1       0.626   8.782  21.271  0.00  0.00    +0.000 A 
ATOM      8  C   UNL     1       0.829   7.357  21.254  0.00  0.00    +0.000 A 
ATOM      9  C   UNL     1       1.694   6.740  20.333  0.00  0.00    +0.000 A 
ATOM     10  C   UNL     1       2.226   7.588  19.352  0.00  0.00    +0.000 A 
ATOM     11  C   UNL     1       1.829   8.950  19.257  0.00  0.00    +0.000 A 
ATOM     12  C   UNL     1       1.392   9.405  17.858  0.00  0.00    +0.000 C 
ATOM     13  C   UNL     1      -0.158   9.576  17.949  0.00  0.00    +0.000 C 
ENDROOT
BRANCH   1  17
ATOM     14  C   UNL     1       4.085  14.953  19.138  0.00  0.00    +0.000 A 
ATOM     15  C   UNL     1       3.670  14.675  20.438  0.00  0.00    +0.000 A 
ATOM     16  C   UNL     1       2.613  13.759  20.710  0.00  0.00    +0.000 A 
ATOM     17  C   UNL     1       1.955  13.121  19.668  0.00  0.00    +0.000 A 
ATOM     18  C   UNL     1       2.422  13.408  18.352  0.00  0.00    +0.000 A 
ATOM     19  C   UNL     1       3.467  14.309  18.084  0.00  0.00    +0.000 A 
ENDBRANCH   1  17
BRANCH   9  20
ATOM     20  C   UNL     1       1.953   5.270  20.260  0.00  0.00    +0.000 A 
ATOM     21  C   UNL     1       0.986   4.275  20.477  0.00  0.00    +0.000 A 
ATOM     22  C   UNL     1       1.307   2.911  20.315  0.00  0.00    +0.000 A 
ATOM     23  C   UNL     1       2.587   2.565  19.933  0.00  0.00    +0.000 A 
ATOM     24  N   UNL     1       3.549   3.475  19.700  0.00  0.00    +0.000 NA
ATOM     25  C   UNL     1       3.204   4.780  19.868  0.00  0.00    +0.000 A 
ENDBRANCH   9  20
TORSDOF 2
ENDMDL
MODEL 9
REMARK VINA RESULT:      -7.4      4.446      9.156
REMARK  Name = 
REMARK  2 active torsions:
REMARK  status: ('A' for Active; 'I' for Inactive)
REMARK    1  A    between atoms: C_4  and  C_5
REMARK    2  A    between atoms: C_13  and  C_14
REMARK                            x       y       z     vdW  Elec       q    Type
REMARK                         _______ _______ _______ _____ _____    ______ ____
ROOT
ATOM      1  C   UNL     1      -0.020  12.854  19.692  0.00  0.00    +0.000 A 
ATOM      2  N   UNL     1      -1.315  13.170  19.817  0.00  0.00    +0.000 NA
ATOM      3  N   UNL     1      -2.060  12.050  19.575  0.00  0.00    +0.000 NA
ATOM      4  C   UNL     1      -1.187  11.087  19.441  0.00  0.00    +0.000 A 
ATOM      5  N   UNL     1       0.029  11.469  20.011  0.00  0.00    +0.000 N 
ATOM      6  C   UNL     1       1.001  10.400  20.106  0.00  0.00    +0.000 A 
ATOM      7  C   UNL     1       0.946   9.561  21.247  0.00  0.00    +0.000 A 
ATOM      8  C   UNL     1       1.331   8.174  21.208  0.00  0.00    +0.000 A 
ATOM      9  C   UNL     1       1.849   7.579  20.044  0.00  0.00    +0.000 A 
ATOM     10  C   UNL     1       1.827   8.388  18.899  0.00  0.00    +0.000 A 
ATOM     11  C   UNL     1       1.231   9.679  18.916  0.00  0.00    +0.000 A 
ATOM     12  C   UNL     1       0.222   9.945  17.791  0.00  0.00    +0.000 C 
ATOM     13  C   UNL     1      -1.176   9.940  18.485  0.00  0.00    +0.000 C 
ENDROOT
BRANCH   1  17
ATOM     14  C   UNL     1       2.570  16.000  18.194  0.00  0.00    +0.000 A 
ATOM     15  C   UNL     1       2.948  14.669  18.035  0.00  0.00    +0.000 A 
ATOM     16  C   UNL     1       2.118  13.595  18.466  0.00  0.00    +0.000 A 
ATOM     17  C   UNL     1       0.898  13.856  19.076  0.00  0.00    +0.000 A 
ATOM     18  C   UNL     1       0.530  15.227  19.199  0.00  0.00    +0.000 A 
ATOM     19  C   UNL     1       1.348  16.287  18.770  0.00  0.00    +0.000 A 
ENDBRANCH   1  17
BRANCH   9  20
ATOM     20  C   UNL     1       2.269   6.150  19.933  0.00  0.00    +0.000 A 
ATOM     21  C   UNL     1       3.204   5.660  19.006  0.00  0.00    +0.000 A 
ATOM     22  C   UNL     1       3.594   4.304  19.024  0.00  0.00    +0.000 A 
ATOM     23  C   UNL     1       3.047   3.463  19.970  0.00  0.00    +0.000 A 
ATOM     24  N   UNL     1       2.157   3.878  20.888  0.00  0.00    +0.000 NA
ATOM     25  C   UNL     1       1.804   5.191  20.839  0.00  0.00    +0.000 A 
ENDBRANCH   9  20
TORSDOF 2
ENDMDL
