MODEL 1
REMARK VINA RESULT:      -8.7      0.000      0.000
REMARK  Name = 
REMARK  1 active torsions:
REMARK  status: ('A' for Active; 'I' for Inactive)
REMARK    1  A    between atoms: C_6  and  C_7
REMARK                            x       y       z     vdW  Elec       q    Type
REMARK                         _______ _______ _______ _____ _____    ______ ____
ROOT
ATOM      1  C   UNL     1       2.417   7.920  18.314  0.00  0.00    +0.000 A 
ATOM      2  C   UNL     1       1.803   9.170  18.154  0.00  0.00    +0.000 A 
ATOM      3  C   UNL     1       1.044   9.665  19.217  0.00  0.00    +0.000 A 
ATOM      4  C   UNL     1       0.911   8.954  20.423  0.00  0.00    +0.000 A 
ATOM      5  C   UNL     1       1.523   7.682  20.540  0.00  0.00    +0.000 A 
ATOM      6  C   UNL     1       2.270   7.147  19.480  0.00  0.00    +0.000 A 
ATOM      7  C   UNL     1       0.115   9.755  21.299  0.00  0.00    +0.000 A 
ATOM      8  C   UNL     1      -0.138  10.932  20.636  0.00  0.00    +0.000 A 
ATOM      9  N   UNL     1       0.301  10.813  19.352  0.00  0.00    +0.000 N 
ATOM     10  C   UNL     1      -0.117  11.760  18.334  0.00  0.00    +0.000 C 
ATOM     11  C   UNL     1      -0.540  13.090  18.985  0.00  0.00    +0.000 C 
ATOM     12  N   UNL     1      -1.474  12.903  20.119  0.00  0.00    +0.000 NA
ATOM     13  C   UNL     1      -0.802  12.143  21.180  0.00  0.00    +0.000 C 
ATOM     14  C   UNL     1      -1.750  11.685  22.313  0.00  0.00    +0.000 C 
ATOM     15  C   UNL     1      -0.992  10.778  23.312  0.00  0.00    +0.000 C 
ATOM     16  C   UNL     1      -0.413   9.493  22.667  0.00  0.00    +0.000 C 
ATOM     17  H   UNL     1      -2.283  12.370  19.805  0.00  0.00    +0.000 HD
ENDROOT
BRANCH   6  18
ATOM     18  C   UNL     1       2.891   5.750  19.501  0.00  0.00    +0.000 C 
ATOM     19  C   UNL     1       2.358   4.877  20.651  0.00  0.00    +0.000 C 
ATOM     20  C   UNL     1       1.036   4.198  20.312  0.00  0.00    +0.000 C 
ATOM     21  C   UNL     1       1.196   3.313  19.083  0.00  0.00    +0.000 C 
ATOM     22  C   UNL     1       1.675   4.108  17.879  0.00  0.00    +0.000 C 
ATOM     23  C   UNL     1       2.910   4.964  18.170  0.00  0.00    +0.000 C 
ENDBRANCH   6  18
TORSDOF 1
ENDMDL
MODEL 2
REMARK VINA RESULT:      -8.3      1.197      1.667
REMARK  Name = 
REMARK  1 active torsions:
REMARK  status: ('A' for Active; 'I' for Inactive)
REMARK    1  A    between atoms: C_6  and  C_7
REMARK                            x       y       z     vdW  Elec       q    Type
REMARK                         _______ _______ _______ _____ _____    ______ ____
ROOT
ATOM      1  C   UNL     1       2.784   6.208  19.019  0.00  0.00    +0.000 A 
ATOM      2  C   UNL     1       2.569   7.548  18.672  0.00  0.00    +0.000 A 
ATOM      3  C   UNL     1       1.779   8.324  19.525  0.00  0.00    +0.000 A 
ATOM      4  C   UNL     1       1.232   7.796  20.707  0.00  0.00    +0.000 A 
ATOM      5  C   UNL     1       1.447   6.430  21.012  0.00  0.00    +0.000 A 
ATOM      6  C   UNL     1       2.214   5.619  20.162  0.00  0.00    +0.000 A 
ATOM      7  C   UNL     1       0.525   8.856  21.354  0.00  0.00    +0.000 A 
ATOM      8  C   UNL     1       0.727   9.984  20.597  0.00  0.00    +0.000 A 
ATOM      9  N   UNL     1       1.357   9.629  19.444  0.00  0.00    +0.000 N 
ATOM     10  C   UNL     1       1.412  10.543  18.316  0.00  0.00    +0.000 C 
ATOM     11  C   UNL     1       1.241  11.995  18.798  0.00  0.00    +0.000 C 
ATOM     12  N   UNL     1       0.091  12.165  19.714  0.00  0.00    +0.000 NA
ATOM     13  C   UNL     1       0.318  11.373  20.929  0.00  0.00    +0.000 C 
ATOM     14  C   UNL     1      -0.918  11.285  21.855  0.00  0.00    +0.000 C 
ATOM     15  C   UNL     1      -0.637  10.323  23.035  0.00  0.00    +0.000 C 
ATOM     16  C   UNL     1      -0.308   8.876  22.589  0.00  0.00    +0.000 C 
ATOM     17  H   UNL     1      -0.754  11.823  19.262  0.00  0.00    +0.000 HD
ENDROOT
BRANCH   6  18
ATOM     18  C   UNL     1       2.424   4.120  20.381  0.00  0.00    +0.000 C 
ATOM     19  C   UNL     1       1.153   3.295  20.113  0.00  0.00    +0.000 C 
ATOM     20  C   UNL     1       0.961   2.972  18.635  0.00  0.00    +0.000 C 
ATOM     21  C   UNL     1       2.153   2.187  18.106  0.00  0.00    +0.000 C 
ATOM     22  C   UNL     1       3.454   2.954  18.287  0.00  0.00    +0.000 C 
ATOM     23  C   UNL     1       3.658   3.473  19.713  0.00  0.00    +0.000 C 
ENDBRANCH   6  18
TORSDOF 1
ENDMDL
MODEL 3
REMARK VINA RESULT:      -8.0      3.023      7.700
REMARK  Name = 
REMARK  1 active torsions:
REMARK  status: ('A' for Active; 'I' for Inactive)
REMARK    1  A    between atoms: C_6  and  C_7
REMARK                            x       y       z     vdW  Elec       q    Type
REMARK                         _______ _______ _______ _____ _____    ______ ____
ROOT
ATOM      1  C   UNL     1       1.459   8.369  19.824  0.00  0.00    +0.000 A 
ATOM      2  C   UNL     1       1.948   7.080  20.078  0.00  0.00    +0.000 A 
ATOM      3  C   UNL     1       2.827   6.521  19.147  0.00  0.00    +0.000 A 
ATOM      4  C   UNL     1       3.234   7.225  18.001  0.00  0.00    +0.000 A 
ATOM      5  C   UNL     1       2.698   8.514  17.762  0.00  0.00    +0.000 A 
ATOM      6  C   UNL     1       1.794   9.092  18.665  0.00  0.00    +0.000 A 
ATOM      7  C   UNL     1       4.155   6.389  17.297  0.00  0.00    +0.000 A 
ATOM      8  C   UNL     1       4.329   5.262  18.064  0.00  0.00    +0.000 A 
ATOM      9  N   UNL     1       3.435   5.289  19.090  0.00  0.00    +0.000 N 
ATOM     10  C   UNL     1       3.161   4.095  19.868  0.00  0.00    +0.000 C 
ATOM     11  C   UNL     1       4.348   3.117  19.780  0.00  0.00    +0.000 C 
ATOM     12  N   UNL     1       4.807   2.895  18.390  0.00  0.00    +0.000 NA
ATOM     13  C   UNL     1       5.298   4.161  17.833  0.00  0.00    +0.000 C 
ATOM     14  C   UNL     1       5.584   4.103  16.314  0.00  0.00    +0.000 C 
ATOM     15  C   UNL     1       5.962   5.508  15.786  0.00  0.00    +0.000 C 
ATOM     16  C   UNL     1       4.850   6.568  15.992  0.00  0.00    +0.000 C 
ATOM     17  H   UNL     1       4.023   2.578  17.822  0.00  0.00    +0.000 HD
ENDROOT
BRANCH   6  18
ATOM     18  C   UNL     1       1.112  10.441  18.437  0.00  0.00    +0.000 C 
ATOM     19  C   UNL     1      -0.401  10.310  18.185  0.00  0.00    +0.000 C 
ATOM     20  C   UNL     1      -1.207  10.211  19.475  0.00  0.00    +0.000 C 
ATOM     21  C   UNL     1      -0.978  11.444  20.337  0.00  0.00    +0.000 C 
ATOM     22  C   UNL     1       0.494  11.625  20.678  0.00  0.00    +0.000 C 
ATOM     23  C   UNL     1       1.410  11.567  19.452  0.00  0.00    +0.000 C 
ENDBRANCH   6  18
TORSDOF 1
ENDMDL
MODEL 4
REMARK VINA RESULT:      -7.9      2.768      7.105
REMARK  Name = 
REMARK  1 active torsions:
REMARK  status: ('A' for Active; 'I' for Inactive)
REMARK    1  A    between atoms: C_6  and  C_7
REMARK                            x       y       z     vdW  Elec       q    Type
REMARK                         _______ _______ _______ _____ _____    ______ ____
ROOT
ATOM      1  C   UNL     1       1.900   9.174  18.325  0.00  0.00    +0.000 A 
ATOM      2  C   UNL     1       2.659   8.183  17.690  0.00  0.00    +0.000 A 
ATOM      3  C   UNL     1       2.811   6.957  18.344  0.00  0.00    +0.000 A 
ATOM      4  C   UNL     1       2.207   6.705  19.588  0.00  0.00    +0.000 A 
ATOM      5  C   UNL     1       1.469   7.739  20.214  0.00  0.00    +0.000 A 
ATOM      6  C   UNL     1       1.320   8.989  19.594  0.00  0.00    +0.000 A 
ATOM      7  C   UNL     1       2.525   5.359  19.946  0.00  0.00    +0.000 A 
ATOM      8  C   UNL     1       3.232   4.828  18.894  0.00  0.00    +0.000 A 
ATOM      9  N   UNL     1       3.513   5.824  18.010  0.00  0.00    +0.000 N 
ATOM     10  C   UNL     1       4.514   5.638  16.975  0.00  0.00    +0.000 C 
ATOM     11  C   UNL     1       4.702   4.138  16.679  0.00  0.00    +0.000 C 
ATOM     12  N   UNL     1       4.878   3.328  17.905  0.00  0.00    +0.000 NA
ATOM     13  C   UNL     1       3.663   3.417  18.724  0.00  0.00    +0.000 C 
ATOM     14  C   UNL     1       3.818   2.804  20.136  0.00  0.00    +0.000 C 
ATOM     15  C   UNL     1       2.544   3.064  20.976  0.00  0.00    +0.000 C 
ATOM     16  C   UNL     1       2.228   4.568  21.173  0.00  0.00    +0.000 C 
ATOM     17  H   UNL     1       5.657   3.699  18.445  0.00  0.00    +0.000 HD
ENDROOT
BRANCH   6  18
ATOM     18  C   UNL     1       0.609  10.178  20.241  0.00  0.00    +0.000 C 
ATOM     19  C   UNL     1       1.404  11.490  20.113  0.00  0.00    +0.000 C 
ATOM     20  C   UNL     1       1.180  12.186  18.775  0.00  0.00    +0.000 C 
ATOM     21  C   UNL     1      -0.296  12.508  18.587  0.00  0.00    +0.000 C 
ATOM     22  C   UNL     1      -1.156  11.255  18.650  0.00  0.00    +0.000 C 
ATOM     23  C   UNL     1      -0.879  10.392  19.885  0.00  0.00    +0.000 C 
ENDBRANCH   6  18
TORSDOF 1
ENDMDL
MODEL 5
REMARK VINA RESULT:      -7.7      2.746      7.489
REMARK  Name = 
REMARK  1 active torsions:
REMARK  status: ('A' for Active; 'I' for Inactive)
REMARK    1  A    between atoms: C_6  and  C_7
REMARK                            x       y       z     vdW  Elec       q    Type
REMARK                         _______ _______ _______ _____ _____    ______ ____
ROOT
ATOM      1  C   UNL     1       1.102   8.487  20.546  0.00  0.00    +0.000 A 
ATOM      2  C   UNL     1       1.337   7.174  20.976  0.00  0.00    +0.000 A 
ATOM      3  C   UNL     1       2.080   6.337  20.140  0.00  0.00    +0.000 A 
ATOM      4  C   UNL     1       2.601   6.790  18.916  0.00  0.00    +0.000 A 
ATOM      5  C   UNL     1       2.321   8.115  18.500  0.00  0.00    +0.000 A 
ATOM      6  C   UNL     1       1.556   8.972  19.305  0.00  0.00    +0.000 A 
ATOM      7  C   UNL     1       3.335   5.706  18.343  0.00  0.00    +0.000 A 
ATOM      8  C   UNL     1       3.298   4.680  19.256  0.00  0.00    +0.000 A 
ATOM      9  N   UNL     1       2.438   5.015  20.256  0.00  0.00    +0.000 N 
ATOM     10  C   UNL     1       1.949   4.010  21.183  0.00  0.00    +0.000 C 
ATOM     11  C   UNL     1       2.924   2.820  21.242  0.00  0.00    +0.000 C 
ATOM     12  N   UNL     1       3.314   2.330  19.901  0.00  0.00    +0.000 NA
ATOM     13  C   UNL     1       4.034   3.392  19.187  0.00  0.00    +0.000 C 
ATOM     14  C   UNL     1       4.285   3.078  17.694  0.00  0.00    +0.000 C 
ATOM     15  C   UNL     1       4.921   4.301  16.988  0.00  0.00    +0.000 C 
ATOM     16  C   UNL     1       4.037   5.573  17.036  0.00  0.00    +0.000 C 
ATOM     17  H   UNL     1       2.478   2.097  19.370  0.00  0.00    +0.000 HD
ENDROOT
BRANCH   6  18
ATOM     18  C   UNL     1       1.144  10.384  18.890  0.00  0.00    +0.000 C 
ATOM     19  C   UNL     1      -0.111  10.401  17.999  0.00  0.00    +0.000 C 
ATOM     20  C   UNL     1      -1.405  10.347  18.803  0.00  0.00    +0.000 C 
ATOM     21  C   UNL     1      -1.486  11.531  19.756  0.00  0.00    +0.000 C 
ATOM     22  C   UNL     1      -0.304  11.564  20.711  0.00  0.00    +0.000 C 
ATOM     23  C   UNL     1       1.050  11.451  20.004  0.00  0.00    +0.000 C 
ENDBRANCH   6  18
TORSDOF 1
ENDMDL
MODEL 6
REMARK VINA RESULT:      -7.6      1.913      3.678
REMARK  Name = 
REMARK  1 active torsions:
REMARK  status: ('A' for Active; 'I' for Inactive)
REMARK    1  A    between atoms: C_6  and  C_7
REMARK                            x       y       z     vdW  Elec       q    Type
REMARK                         _______ _______ _______ _____ _____    ______ ____
ROOT
ATOM      1  C   UNL     1       2.474   6.069  19.619  0.00  0.00    +0.000 A 
ATOM      2  C   UNL     1       1.786   6.779  20.612  0.00  0.00    +0.000 A 
ATOM      3  C   UNL     1       1.486   8.121  20.365  0.00  0.00    +0.000 A 
ATOM      4  C   UNL     1       1.836   8.745  19.155  0.00  0.00    +0.000 A 
ATOM      5  C   UNL     1       2.554   8.004  18.185  0.00  0.00    +0.000 A 
ATOM      6  C   UNL     1       2.893   6.663  18.414  0.00  0.00    +0.000 A 
ATOM      7  C   UNL     1       1.348  10.087  19.216  0.00  0.00    +0.000 A 
ATOM      8  C   UNL     1       0.668  10.205  20.403  0.00  0.00    +0.000 A 
ATOM      9  N   UNL     1       0.872   9.078  21.138  0.00  0.00    +0.000 N 
ATOM     10  C   UNL     1       0.553   9.046  22.554  0.00  0.00    +0.000 C 
ATOM     11  C   UNL     1      -0.502  10.117  22.888  0.00  0.00    +0.000 C 
ATOM     12  N   UNL     1      -0.168  11.446  22.327  0.00  0.00    +0.000 NA
ATOM     13  C   UNL     1      -0.142  11.363  20.862  0.00  0.00    +0.000 C 
ATOM     14  C   UNL     1       0.424  12.628  20.176  0.00  0.00    +0.000 C 
ATOM     15  C   UNL     1       0.545  12.402  18.649  0.00  0.00    +0.000 C 
ATOM     16  C   UNL     1       1.482  11.229  18.269  0.00  0.00    +0.000 C 
ATOM     17  H   UNL     1       0.757  11.725  22.649  0.00  0.00    +0.000 HD
ENDROOT
BRANCH   6  18
ATOM     18  C   UNL     1       3.735   5.823  17.453  0.00  0.00    +0.000 C 
ATOM     19  C   UNL     1       4.713   6.672  16.621  0.00  0.00    +0.000 C 
ATOM     20  C   UNL     1       6.009   6.976  17.364  0.00  0.00    +0.000 C 
ATOM     21  C   UNL     1       6.715   5.683  17.748  0.00  0.00    +0.000 C 
ATOM     22  C   UNL     1       5.833   4.801  18.618  0.00  0.00    +0.000 C 
ATOM     23  C   UNL     1       4.437   4.574  18.032  0.00  0.00    +0.000 C 
ENDBRANCH   6  18
TORSDOF 1
ENDMDL
MODEL 7
REMARK VINA RESULT:      -7.6      1.526      3.201
REMARK  Name = 
REMARK  1 active torsions:
REMARK  status: ('A' for Active; 'I' for Inactive)
REMARK    1  A    between atoms: C_6  and  C_7
REMARK                            x       y       z     vdW  Elec       q    Type
REMARK                         _______ _______ _______ _____ _____    ______ ____
ROOT
ATOM      1  C   UNL     1       2.153   6.312  19.859  0.00  0.00    +0.000 A 
ATOM      2  C   UNL     1       1.489   7.025  20.866  0.00  0.00    +0.000 A 
ATOM      3  C   UNL     1       1.195   8.370  20.628  0.00  0.00    +0.000 A 
ATOM      4  C   UNL     1       1.528   8.994  19.413  0.00  0.00    +0.000 A 
ATOM      5  C   UNL     1       2.222   8.251  18.428  0.00  0.00    +0.000 A 
ATOM      6  C   UNL     1       2.555   6.906  18.648  0.00  0.00    +0.000 A 
ATOM      7  C   UNL     1       1.051  10.340  19.487  0.00  0.00    +0.000 A 
ATOM      8  C   UNL     1       0.394  10.460  20.687  0.00  0.00    +0.000 A 
ATOM      9  N   UNL     1       0.602   9.329  21.415  0.00  0.00    +0.000 N 
ATOM     10  C   UNL     1       0.309   9.295  22.836  0.00  0.00    +0.000 C 
ATOM     11  C   UNL     1      -0.731  10.374  23.192  0.00  0.00    +0.000 C 
ATOM     12  N   UNL     1      -0.396  11.702  22.629  0.00  0.00    +0.000 NA
ATOM     13  C   UNL     1      -0.399  11.622  21.163  0.00  0.00    +0.000 C 
ATOM     14  C   UNL     1       0.165  12.885  20.471  0.00  0.00    +0.000 C 
ATOM     15  C   UNL     1       0.256  12.662  18.941  0.00  0.00    +0.000 C 
ATOM     16  C   UNL     1       1.178  11.483  18.540  0.00  0.00    +0.000 C 
ATOM     17  H   UNL     1       0.536  11.973  22.934  0.00  0.00    +0.000 HD
ENDROOT
BRANCH   6  18
ATOM     18  C   UNL     1       3.373   6.063  17.670  0.00  0.00    +0.000 C 
ATOM     19  C   UNL     1       4.886   6.324  17.778  0.00  0.00    +0.000 C 
ATOM     20  C   UNL     1       5.543   5.521  18.895  0.00  0.00    +0.000 C 
ATOM     21  C   UNL     1       5.337   4.030  18.667  0.00  0.00    +0.000 C 
ATOM     22  C   UNL     1       3.860   3.673  18.596  0.00  0.00    +0.000 C 
ATOM     23  C   UNL     1       3.072   4.548  17.616  0.00  0.00    +0.000 C 
ENDBRANCH   6  18
TORSDOF 1
ENDMDL
MODEL 8
REMARK VINA RESULT:      -7.6      1.068      1.631
REMARK  Name = 
REMARK  1 active torsions:
REMARK  status: ('A' for Active; 'I' for Inactive)
REMARK    1  A    between atoms: C_6  and  C_7
REMARK                            x       y       z     vdW  Elec       q    Type
REMARK                         _______ _______ _______ _____ _____    ______ ____
ROOT
ATOM      1  C   UNL     1       2.558   8.425  17.503  0.00  0.00    +0.000 A 
ATOM      2  C   UNL     1       2.093   9.713  17.799  0.00  0.00    +0.000 A 
ATOM      3  C   UNL     1       1.414   9.900  19.005  0.00  0.00    +0.000 A 
ATOM      4  C   UNL     1       1.217   8.845  19.913  0.00  0.00    +0.000 A 
ATOM      5  C   UNL     1       1.677   7.550  19.569  0.00  0.00    +0.000 A 
ATOM      6  C   UNL     1       2.339   7.325  18.353  0.00  0.00    +0.000 A 
ATOM      7  C   UNL     1       0.534   9.385  21.046  0.00  0.00    +0.000 A 
ATOM      8  C   UNL     1       0.411  10.735  20.825  0.00  0.00    +0.000 A 
ATOM      9  N   UNL     1       0.813  11.008  19.553  0.00  0.00    +0.000 N 
ATOM     10  C   UNL     1       0.494  12.281  18.930  0.00  0.00    +0.000 C 
ATOM     11  C   UNL     1       0.239  13.352  20.006  0.00  0.00    +0.000 C 
ATOM     12  N   UNL     1      -0.692  12.896  21.062  0.00  0.00    +0.000 NA
ATOM     13  C   UNL     1      -0.098  11.758  21.774  0.00  0.00    +0.000 C 
ATOM     14  C   UNL     1      -1.076  11.049  22.741  0.00  0.00    +0.000 C 
ATOM     15  C   UNL     1      -0.415   9.784  23.341  0.00  0.00    +0.000 C 
ATOM     16  C   UNL     1      -0.000   8.737  22.276  0.00  0.00    +0.000 C 
ATOM     17  H   UNL     1      -1.563  12.587  20.634  0.00  0.00    +0.000 HD
ENDROOT
BRANCH   6  18
ATOM     18  C   UNL     1       2.792   5.945  17.876  0.00  0.00    +0.000 C 
ATOM     19  C   UNL     1       4.313   5.744  17.989  0.00  0.00    +0.000 C 
ATOM     20  C   UNL     1       4.748   5.316  19.386  0.00  0.00    +0.000 C 
ATOM     21  C   UNL     1       4.069   4.009  19.774  0.00  0.00    +0.000 C 
ATOM     22  C   UNL     1       2.554   4.132  19.737  0.00  0.00    +0.000 C 
ATOM     23  C   UNL     1       2.027   4.720  18.425  0.00  0.00    +0.000 C 
ENDBRANCH   6  18
TORSDOF 1
ENDMDL
MODEL 9
REMARK VINA RESULT:      -7.5      1.420      2.329
REMARK  Name = 
REMARK  1 active torsions:
REMARK  status: ('A' for Active; 'I' for Inactive)
REMARK    1  A    between atoms: C_6  and  C_7
REMARK                            x       y       z     vdW  Elec       q    Type
REMARK                         _______ _______ _______ _____ _____    ______ ____
ROOT
ATOM      1  C   UNL     1       2.790   7.878  17.701  0.00  0.00    +0.000 A 
ATOM      2  C   UNL     1       2.156   9.123  17.810  0.00  0.00    +0.000 A 
ATOM      3  C   UNL     1       1.484   9.410  19.001  0.00  0.00    +0.000 A 
ATOM      4  C   UNL     1       1.458   8.500  20.071  0.00  0.00    +0.000 A 
ATOM      5  C   UNL     1       2.087   7.240  19.916  0.00  0.00    +0.000 A 
ATOM      6  C   UNL     1       2.747   6.912  18.723  0.00  0.00    +0.000 A 
ATOM      7  C   UNL     1       0.731   9.120  21.135  0.00  0.00    +0.000 A 
ATOM      8  C   UNL     1       0.415  10.388  20.708  0.00  0.00    +0.000 A 
ATOM      9  N   UNL     1       0.746  10.502  19.393  0.00  0.00    +0.000 N 
ATOM     10  C   UNL     1       0.238  11.601  18.592  0.00  0.00    +0.000 C 
ATOM     11  C   UNL     1      -0.140  12.789  19.495  0.00  0.00    +0.000 C 
ATOM     12  N   UNL     1      -0.974  12.389  20.651  0.00  0.00    +0.000 NA
ATOM     13  C   UNL     1      -0.210  11.473  21.507  0.00  0.00    +0.000 C 
ATOM     14  C   UNL     1      -1.057  10.805  22.615  0.00  0.00    +0.000 C 
ATOM     15  C   UNL     1      -0.212   9.756  23.377  0.00  0.00    +0.000 C 
ATOM     16  C   UNL     1       0.321   8.615  22.474  0.00  0.00    +0.000 C 
ATOM     17  H   UNL     1      -1.802  11.901  20.316  0.00  0.00    +0.000 HD
ENDROOT
BRANCH   6  18
ATOM     18  C   UNL     1       3.377   5.546  18.450  0.00  0.00    +0.000 C 
ATOM     19  C   UNL     1       3.951   5.428  17.027  0.00  0.00    +0.000 C 
ATOM     20  C   UNL     1       5.355   6.011  16.908  0.00  0.00    +0.000 C 
ATOM     21  C   UNL     1       6.306   5.300  17.861  0.00  0.00    +0.000 C 
ATOM     22  C   UNL     1       5.838   5.409  19.304  0.00  0.00    +0.000 C 
ATOM     23  C   UNL     1       4.375   5.004  19.499  0.00  0.00    +0.000 C 
ENDBRANCH   6  18
TORSDOF 1
ENDMDL
