MODEL 1
REMARK VINA RESULT:      -7.7      0.000      0.000
REMARK  Name = 
REMARK  10 active torsions:
REMARK  status: ('A' for Active; 'I' for Inactive)
REMARK    1  A    between atoms: C_1  and  S_2
REMARK    2  A    between atoms: S_2  and  C_3
REMARK    3  A    between atoms: C_6  and  C_7
REMARK    4  A    between atoms: C_8  and  C_9
REMARK    5  A    between atoms: N_12  and  C_13
REMARK    6  A    between atoms: C_13  and  C_14
REMARK    7  A    between atoms: C_14  and  C_15
REMARK    8  A    between atoms: C_15  and  N_16
REMARK    9  A    between atoms: N_16  and  C_17
REMARK   10  A    between atoms: N_16  and  C_18
REMARK                            x       y       z     vdW  Elec       q    Type
REMARK                         _______ _______ _______ _____ _____    ______ ____
ROOT
ATOM      1  C   UNL     1       2.856   7.122  18.331  0.00  0.00    +0.000 A 
ATOM      2  N   UNL     1       2.305   5.917  18.178  0.00  0.00    +0.000 NA
ATOM      3  C   UNL     1       3.026   4.969  17.570  0.00  0.00    +0.000 A 
ATOM      4  N   UNL     1       2.532   3.642  17.581  0.00  0.00    +0.000 N 
ATOM      5  C   UNL     1       4.293   5.212  17.063  0.00  0.00    +0.000 A 
ATOM      6  C   UNL     1       5.024   4.258  16.309  0.00  0.00    +0.000 A 
ATOM      7  C   UNL     1       6.317   4.523  15.895  0.00  0.00    +0.000 A 
ATOM      8  C   UNL     1       6.899   5.731  16.263  0.00  0.00    +0.000 A 
ATOM      9  C   UNL     1       6.149   6.689  16.967  0.00  0.00    +0.000 A 
ATOM     10  C   UNL     1       4.819   6.476  17.348  0.00  0.00    +0.000 A 
ATOM     11  N   UNL     1       4.104   7.446  17.966  0.00  0.00    +0.000 NA
ATOM     12  H   UNL     1       3.091   3.141  18.274  0.00  0.00    +0.000 HD
ENDROOT
BRANCH   1  14
ATOM     13  C   UNL     1       1.737   8.110  20.379  0.00  0.00    +0.000 C 
ATOM     14  C   UNL     1       1.982   8.051  19.060  0.00  0.00    +0.000 C 
BRANCH  13  18
ATOM     15  C   UNL     1      -0.775  11.112  22.228  0.00  0.00    +0.000 A 
ATOM     16  C   UNL     1      -0.545   9.902  22.886  0.00  0.00    +0.000 A 
ATOM     17  C   UNL     1       0.257   8.910  22.297  0.00  0.00    +0.000 A 
ATOM     18  C   UNL     1       0.838   9.094  21.031  0.00  0.00    +0.000 A 
ATOM     19  C   UNL     1       0.571  10.302  20.369  0.00  0.00    +0.000 A 
ATOM     20  C   UNL     1      -0.225  11.297  20.959  0.00  0.00    +0.000 A 
BRANCH  15  22
ATOM     21  C   UNL     1      -0.806  13.832  22.758  0.00  0.00    +0.000 C 
ATOM     22  S   UNL     1      -1.809  12.341  23.004  0.00  0.00    +0.000 S 
ENDBRANCH  15  22
ENDBRANCH  13  18
ENDBRANCH   1  14
BRANCH   4  23
ATOM     23  C   UNL     1       1.110   3.592  17.888  0.00  0.00    +0.000 C 
BRANCH  23  24
ATOM     24  C   UNL     1       0.842   2.583  18.993  0.00  0.00    +0.000 C 
BRANCH  24  25
ATOM     25  C   UNL     1       2.179   1.944  19.368  0.00  0.00    +0.000 C 
BRANCH  25  26
ATOM     26  N   UNL     1       2.984   2.736  20.302  0.00  0.00    +0.000 NA
ATOM     27  C   UNL     1       2.444   2.687  21.662  0.00  0.00    +0.000 C 
ATOM     28  C   UNL     1       4.356   2.225  20.292  0.00  0.00    +0.000 C 
ENDBRANCH  25  26
ENDBRANCH  24  25
ENDBRANCH  23  24
ENDBRANCH   4  23
TORSDOF 7
ENDMDL
MODEL 2
REMARK VINA RESULT:      -7.7      0.357      1.163
REMARK  Name = 
REMARK  10 active torsions:
REMARK  status: ('A' for Active; 'I' for Inactive)
REMARK    1  A    between atoms: C_1  and  S_2
REMARK    2  A    between atoms: S_2  and  C_3
REMARK    3  A    between atoms: C_6  and  C_7
REMARK    4  A    between atoms: C_8  and  C_9
REMARK    5  A    between atoms: N_12  and  C_13
REMARK    6  A    between atoms: C_13  and  C_14
REMARK    7  A    between atoms: C_14  and  C_15
REMARK    8  A    between atoms: C_15  and  N_16
REMARK    9  A    between atoms: N_16  and  C_17
REMARK   10  A    between atoms: N_16  and  C_18
REMARK                            x       y       z     vdW  Elec       q    Type
REMARK                         _______ _______ _______ _____ _____    ______ ____
ROOT
ATOM      1  C   UNL     1       2.962   7.014  18.259  0.00  0.00    +0.000 A 
ATOM      2  N   UNL     1       2.360   5.826  18.186  0.00  0.00    +0.000 NA
ATOM      3  C   UNL     1       3.021   4.822  17.599  0.00  0.00    +0.000 A 
ATOM      4  N   UNL     1       2.477   3.519  17.694  0.00  0.00    +0.000 N 
ATOM      5  C   UNL     1       4.276   4.991  17.035  0.00  0.00    +0.000 A 
ATOM      6  C   UNL     1       4.940   3.973  16.303  0.00  0.00    +0.000 A 
ATOM      7  C   UNL     1       6.225   4.166  15.829  0.00  0.00    +0.000 A 
ATOM      8  C   UNL     1       6.867   5.366  16.115  0.00  0.00    +0.000 A 
ATOM      9  C   UNL     1       6.181   6.386  16.799  0.00  0.00    +0.000 A 
ATOM     10  C   UNL     1       4.860   6.245  17.238  0.00  0.00    +0.000 A 
ATOM     11  N   UNL     1       4.206   7.270  17.834  0.00  0.00    +0.000 NA
ATOM     12  H   UNL     1       3.044   3.029  18.390  0.00  0.00    +0.000 HD
ENDROOT
BRANCH   1  14
ATOM     13  C   UNL     1       1.705   7.976  20.239  0.00  0.00    +0.000 C 
ATOM     14  C   UNL     1       2.153   8.012  18.973  0.00  0.00    +0.000 C 
BRANCH  13  18
ATOM     15  C   UNL     1      -0.748  10.952  22.205  0.00  0.00    +0.000 A 
ATOM     16  C   UNL     1      -0.471  11.075  20.841  0.00  0.00    +0.000 A 
ATOM     17  C   UNL     1       0.334  10.127  20.188  0.00  0.00    +0.000 A 
ATOM     18  C   UNL     1       0.893   9.040  20.880  0.00  0.00    +0.000 A 
ATOM     19  C   UNL     1       0.632   8.948  22.255  0.00  0.00    +0.000 A 
ATOM     20  C   UNL     1      -0.177   9.891  22.909  0.00  0.00    +0.000 A 
BRANCH  15  22
ATOM     21  C   UNL     1      -0.790  13.682  22.682  0.00  0.00    +0.000 C 
ATOM     22  S   UNL     1      -1.764  12.184  23.000  0.00  0.00    +0.000 S 
ENDBRANCH  15  22
ENDBRANCH  13  18
ENDBRANCH   1  14
BRANCH   4  23
ATOM     23  C   UNL     1       1.067   3.540  18.054  0.00  0.00    +0.000 C 
BRANCH  23  24
ATOM     24  C   UNL     1       0.856   2.871  19.403  0.00  0.00    +0.000 C 
BRANCH  24  25
ATOM     25  C   UNL     1       2.065   1.973  19.668  0.00  0.00    +0.000 C 
BRANCH  25  26
ATOM     26  N   UNL     1       2.894   2.399  20.798  0.00  0.00    +0.000 NA
ATOM     27  C   UNL     1       4.294   2.580  20.410  0.00  0.00    +0.000 C 
ATOM     28  C   UNL     1       2.359   3.655  21.329  0.00  0.00    +0.000 C 
ENDBRANCH  25  26
ENDBRANCH  24  25
ENDBRANCH  23  24
ENDBRANCH   4  23
TORSDOF 7
ENDMDL
MODEL 3
REMARK VINA RESULT:      -7.6      1.734      2.285
REMARK  Name = 
REMARK  10 active torsions:
REMARK  status: ('A' for Active; 'I' for Inactive)
REMARK    1  A    between atoms: C_1  and  S_2
REMARK    2  A    between atoms: S_2  and  C_3
REMARK    3  A    between atoms: C_6  and  C_7
REMARK    4  A    between atoms: C_8  and  C_9
REMARK    5  A    between atoms: N_12  and  C_13
REMARK    6  A    between atoms: C_13  and  C_14
REMARK    7  A    between atoms: C_14  and  C_15
REMARK    8  A    between atoms: C_15  and  N_16
REMARK    9  A    between atoms: N_16  and  C_17
REMARK   10  A    between atoms: N_16  and  C_18
REMARK                            x       y       z     vdW  Elec       q    Type
REMARK                         _______ _______ _______ _____ _____    ______ ____
ROOT
ATOM      1  C   UNL     1       2.871   6.951  17.839  0.00  0.00    +0.000 A 
ATOM      2  N   UNL     1       2.514   5.666  17.869  0.00  0.00    +0.000 NA
ATOM      3  C   UNL     1       3.446   4.748  17.587  0.00  0.00    +0.000 A 
ATOM      4  N   UNL     1       3.130   3.386  17.809  0.00  0.00    +0.000 N 
ATOM      5  C   UNL     1       4.740   5.092  17.228  0.00  0.00    +0.000 A 
ATOM      6  C   UNL     1       5.706   4.141  16.808  0.00  0.00    +0.000 A 
ATOM      7  C   UNL     1       7.006   4.527  16.537  0.00  0.00    +0.000 A 
ATOM      8  C   UNL     1       7.357   5.861  16.719  0.00  0.00    +0.000 A 
ATOM      9  C   UNL     1       6.379   6.802  17.088  0.00  0.00    +0.000 A 
ATOM     10  C   UNL     1       5.042   6.454  17.310  0.00  0.00    +0.000 A 
ATOM     11  N   UNL     1       4.112   7.396  17.598  0.00  0.00    +0.000 NA
ATOM     12  H   UNL     1       3.620   3.122  18.666  0.00  0.00    +0.000 HD
ENDROOT
BRANCH   1  14
ATOM     13  C   UNL     1       1.649   9.166  17.989  0.00  0.00    +0.000 C 
ATOM     14  C   UNL     1       1.773   7.849  18.220  0.00  0.00    +0.000 C 
BRANCH  13  18
ATOM     15  C   UNL     1      -1.686  11.544  19.386  0.00  0.00    +0.000 A 
ATOM     16  C   UNL     1      -1.831  10.753  18.244  0.00  0.00    +0.000 A 
ATOM     17  C   UNL     1      -0.757   9.984  17.767  0.00  0.00    +0.000 A 
ATOM     18  C   UNL     1       0.493   9.996  18.409  0.00  0.00    +0.000 A 
ATOM     19  C   UNL     1       0.632  10.820  19.535  0.00  0.00    +0.000 A 
ATOM     20  C   UNL     1      -0.443  11.585  20.017  0.00  0.00    +0.000 A 
BRANCH  15  22
ATOM     21  C   UNL     1      -4.384  11.902  18.861  0.00  0.00    +0.000 C 
ATOM     22  S   UNL     1      -3.071  12.516  19.952  0.00  0.00    +0.000 S 
ENDBRANCH  15  22
ENDBRANCH  13  18
ENDBRANCH   1  14
BRANCH   4  23
ATOM     23  C   UNL     1       1.695   3.167  17.911  0.00  0.00    +0.000 C 
BRANCH  23  24
ATOM     24  C   UNL     1       1.373   2.328  19.137  0.00  0.00    +0.000 C 
BRANCH  24  25
ATOM     25  C   UNL     1       0.752   3.255  20.181  0.00  0.00    +0.000 C 
BRANCH  25  26
ATOM     26  N   UNL     1       1.631   3.564  21.312  0.00  0.00    +0.000 NA
ATOM     27  C   UNL     1       2.709   2.581  21.447  0.00  0.00    +0.000 C 
ATOM     28  C   UNL     1       2.198   4.900  21.117  0.00  0.00    +0.000 C 
ENDBRANCH  25  26
ENDBRANCH  24  25
ENDBRANCH  23  24
ENDBRANCH   4  23
TORSDOF 7
ENDMDL
MODEL 4
REMARK VINA RESULT:      -7.6      1.424      1.845
REMARK  Name = 
REMARK  10 active torsions:
REMARK  status: ('A' for Active; 'I' for Inactive)
REMARK    1  A    between atoms: C_1  and  S_2
REMARK    2  A    between atoms: S_2  and  C_3
REMARK    3  A    between atoms: C_6  and  C_7
REMARK    4  A    between atoms: C_8  and  C_9
REMARK    5  A    between atoms: N_12  and  C_13
REMARK    6  A    between atoms: C_13  and  C_14
REMARK    7  A    between atoms: C_14  and  C_15
REMARK    8  A    between atoms: C_15  and  N_16
REMARK    9  A    between atoms: N_16  and  C_17
REMARK   10  A    between atoms: N_16  and  C_18
REMARK                            x       y       z     vdW  Elec       q    Type
REMARK                         _______ _______ _______ _____ _____    ______ ____
ROOT
ATOM      1  C   UNL     1       2.925   7.109  17.994  0.00  0.00    +0.000 A 
ATOM      2  N   UNL     1       2.435   5.872  17.903  0.00  0.00    +0.000 NA
ATOM      3  C   UNL     1       3.257   4.900  17.491  0.00  0.00    +0.000 A 
ATOM      4  N   UNL     1       2.806   3.561  17.581  0.00  0.00    +0.000 N 
ATOM      5  C   UNL     1       4.570   5.147  17.120  0.00  0.00    +0.000 A 
ATOM      6  C   UNL     1       5.418   4.154  16.566  0.00  0.00    +0.000 A 
ATOM      7  C   UNL     1       6.745   4.432  16.288  0.00  0.00    +0.000 A 
ATOM      8  C   UNL     1       7.238   5.696  16.595  0.00  0.00    +0.000 A 
ATOM      9  C   UNL     1       6.376   6.686  17.098  0.00  0.00    +0.000 A 
ATOM     10  C   UNL     1       5.016   6.454  17.333  0.00  0.00    +0.000 A 
ATOM     11  N   UNL     1       4.199   7.449  17.753  0.00  0.00    +0.000 NA
ATOM     12  H   UNL     1       3.289   3.157  18.386  0.00  0.00    +0.000 HD
ENDROOT
BRANCH   1  14
ATOM     13  C   UNL     1       1.406   9.136  17.891  0.00  0.00    +0.000 C 
ATOM     14  C   UNL     1       1.938   8.068  18.509  0.00  0.00    +0.000 C 
BRANCH  13  18
ATOM     15  C   UNL     1      -1.465  11.747  19.808  0.00  0.00    +0.000 A 
ATOM     16  C   UNL     1      -1.823  11.059  18.646  0.00  0.00    +0.000 A 
ATOM     17  C   UNL     1      -0.901  10.217  18.002  0.00  0.00    +0.000 A 
ATOM     18  C   UNL     1       0.405  10.051  18.492  0.00  0.00    +0.000 A 
ATOM     19  C   UNL     1       0.759  10.773  19.641  0.00  0.00    +0.000 A 
ATOM     20  C   UNL     1      -0.163  11.611  20.290  0.00  0.00    +0.000 A 
BRANCH  15  22
ATOM     21  C   UNL     1      -2.081  12.776  22.307  0.00  0.00    +0.000 C 
ATOM     22  S   UNL     1      -2.661  12.817  20.588  0.00  0.00    +0.000 S 
ENDBRANCH  15  22
ENDBRANCH  13  18
ENDBRANCH   1  14
BRANCH   4  23
ATOM     23  C   UNL     1       1.359   3.480  17.714  0.00  0.00    +0.000 C 
BRANCH  23  24
ATOM     24  C   UNL     1       0.980   2.406  18.722  0.00  0.00    +0.000 C 
BRANCH  24  25
ATOM     25  C   UNL     1       0.905   3.070  20.097  0.00  0.00    +0.000 C 
BRANCH  25  26
ATOM     26  N   UNL     1       2.200   3.510  20.623  0.00  0.00    +0.000 NA
ATOM     27  C   UNL     1       2.134   4.868  21.166  0.00  0.00    +0.000 C 
ATOM     28  C   UNL     1       2.625   2.576  21.669  0.00  0.00    +0.000 C 
ENDBRANCH  25  26
ENDBRANCH  24  25
ENDBRANCH  23  24
ENDBRANCH   4  23
TORSDOF 7
ENDMDL
MODEL 5
REMARK VINA RESULT:      -7.6      0.862      1.040
REMARK  Name = 
REMARK  10 active torsions:
REMARK  status: ('A' for Active; 'I' for Inactive)
REMARK    1  A    between atoms: C_1  and  S_2
REMARK    2  A    between atoms: S_2  and  C_3
REMARK    3  A    between atoms: C_6  and  C_7
REMARK    4  A    between atoms: C_8  and  C_9
REMARK    5  A    between atoms: N_12  and  C_13
REMARK    6  A    between atoms: C_13  and  C_14
REMARK    7  A    between atoms: C_14  and  C_15
REMARK    8  A    between atoms: C_15  and  N_16
REMARK    9  A    between atoms: N_16  and  C_17
REMARK   10  A    between atoms: N_16  and  C_18
REMARK                            x       y       z     vdW  Elec       q    Type
REMARK                         _______ _______ _______ _____ _____    ______ ____
ROOT
ATOM      1  C   UNL     1       2.968   6.888  18.149  0.00  0.00    +0.000 A 
ATOM      2  N   UNL     1       2.455   5.657  18.126  0.00  0.00    +0.000 NA
ATOM      3  C   UNL     1       3.172   4.688  17.545  0.00  0.00    +0.000 A 
ATOM      4  N   UNL     1       2.731   3.351  17.691  0.00  0.00    +0.000 N 
ATOM      5  C   UNL     1       4.393   4.934  16.937  0.00  0.00    +0.000 A 
ATOM      6  C   UNL     1       5.110   3.948  16.210  0.00  0.00    +0.000 A 
ATOM      7  C   UNL     1       6.362   4.222  15.691  0.00  0.00    +0.000 A 
ATOM      8  C   UNL     1       6.920   5.475  15.925  0.00  0.00    +0.000 A 
ATOM      9  C   UNL     1       6.180   6.460  16.603  0.00  0.00    +0.000 A 
ATOM     10  C   UNL     1       4.887   6.233  17.088  0.00  0.00    +0.000 A 
ATOM     11  N   UNL     1       4.176   7.224  17.677  0.00  0.00    +0.000 NA
ATOM     12  H   UNL     1       3.353   2.926  18.381  0.00  0.00    +0.000 HD
ENDROOT
BRANCH   1  14
ATOM     13  C   UNL     1       1.857   7.922  20.179  0.00  0.00    +0.000 C 
ATOM     14  C   UNL     1       2.108   7.842  18.862  0.00  0.00    +0.000 C 
BRANCH  13  18
ATOM     15  C   UNL     1      -0.626  10.993  21.951  0.00  0.00    +0.000 A 
ATOM     16  C   UNL     1      -0.246   9.885  22.713  0.00  0.00    +0.000 A 
ATOM     17  C   UNL     1       0.549   8.871  22.152  0.00  0.00    +0.000 A 
ATOM     18  C   UNL     1       0.973   8.930  20.814  0.00  0.00    +0.000 A 
ATOM     19  C   UNL     1       0.557  10.033  20.053  0.00  0.00    +0.000 A 
ATOM     20  C   UNL     1      -0.233  11.050  20.613  0.00  0.00    +0.000 A 
BRANCH  15  22
ATOM     21  C   UNL     1      -2.712  12.696  21.297  0.00  0.00    +0.000 C 
ATOM     22  S   UNL     1      -1.646  12.252  22.696  0.00  0.00    +0.000 S 
ENDBRANCH  15  22
ENDBRANCH  13  18
ENDBRANCH   1  14
BRANCH   4  23
ATOM     23  C   UNL     1       1.335   3.278  18.096  0.00  0.00    +0.000 C 
BRANCH  23  24
ATOM     24  C   UNL     1       1.172   2.316  19.262  0.00  0.00    +0.000 C 
BRANCH  24  25
ATOM     25  C   UNL     1       0.758   3.137  20.483  0.00  0.00    +0.000 C 
BRANCH  25  26
ATOM     26  N   UNL     1       1.818   3.308  21.480  0.00  0.00    +0.000 NA
ATOM     27  C   UNL     1       2.884   2.317  21.318  0.00  0.00    +0.000 C 
ATOM     28  C   UNL     1       2.371   4.658  21.354  0.00  0.00    +0.000 C 
ENDBRANCH  25  26
ENDBRANCH  24  25
ENDBRANCH  23  24
ENDBRANCH   4  23
TORSDOF 7
ENDMDL
MODEL 6
REMARK VINA RESULT:      -7.5      1.545      1.889
REMARK  Name = 
REMARK  10 active torsions:
REMARK  status: ('A' for Active; 'I' for Inactive)
REMARK    1  A    between atoms: C_1  and  S_2
REMARK    2  A    between atoms: S_2  and  C_3
REMARK    3  A    between atoms: C_6  and  C_7
REMARK    4  A    between atoms: C_8  and  C_9
REMARK    5  A    between atoms: N_12  and  C_13
REMARK    6  A    between atoms: C_13  and  C_14
REMARK    7  A    between atoms: C_14  and  C_15
REMARK    8  A    between atoms: C_15  and  N_16
REMARK    9  A    between atoms: N_16  and  C_17
REMARK   10  A    between atoms: N_16  and  C_18
REMARK                            x       y       z     vdW  Elec       q    Type
REMARK                         _______ _______ _______ _____ _____    ______ ____
ROOT
ATOM      1  C   UNL     1       2.945   6.966  17.927  0.00  0.00    +0.000 A 
ATOM      2  N   UNL     1       2.476   5.717  17.931  0.00  0.00    +0.000 NA
ATOM      3  C   UNL     1       3.285   4.741  17.504  0.00  0.00    +0.000 A 
ATOM      4  N   UNL     1       2.870   3.400  17.691  0.00  0.00    +0.000 N 
ATOM      5  C   UNL     1       4.561   4.992  17.024  0.00  0.00    +0.000 A 
ATOM      6  C   UNL     1       5.386   3.988  16.455  0.00  0.00    +0.000 A 
ATOM      7  C   UNL     1       6.682   4.276  16.064  0.00  0.00    +0.000 A 
ATOM      8  C   UNL     1       7.171   5.561  16.274  0.00  0.00    +0.000 A 
ATOM      9  C   UNL     1       6.328   6.559  16.793  0.00  0.00    +0.000 A 
ATOM     10  C   UNL     1       4.994   6.316  17.141  0.00  0.00    +0.000 A 
ATOM     11  N   UNL     1       4.190   7.315  17.575  0.00  0.00    +0.000 NA
ATOM     12  H   UNL     1       3.420   3.044  18.476  0.00  0.00    +0.000 HD
ENDROOT
BRANCH   1  14
ATOM     13  C   UNL     1       1.634   9.134  17.982  0.00  0.00    +0.000 C 
ATOM     14  C   UNL     1       1.980   7.931  18.469  0.00  0.00    +0.000 C 
BRANCH  13  18
ATOM     15  C   UNL     1      -1.339  11.821  19.619  0.00  0.00    +0.000 A 
ATOM     16  C   UNL     1      -0.034  11.849  20.114  0.00  0.00    +0.000 A 
ATOM     17  C   UNL     1       0.943  10.976  19.605  0.00  0.00    +0.000 A 
ATOM     18  C   UNL     1       0.638  10.044  18.599  0.00  0.00    +0.000 A 
ATOM     19  C   UNL     1      -0.685  10.006  18.135  0.00  0.00    +0.000 A 
ATOM     20  C   UNL     1      -1.661  10.882  18.638  0.00  0.00    +0.000 A 
BRANCH  15  22
ATOM     21  C   UNL     1      -2.545  12.423  22.040  0.00  0.00    +0.000 C 
ATOM     22  S   UNL     1      -2.552  12.937  20.301  0.00  0.00    +0.000 S 
ENDBRANCH  15  22
ENDBRANCH  13  18
ENDBRANCH   1  14
BRANCH   4  23
ATOM     23  C   UNL     1       1.439   3.300  17.937  0.00  0.00    +0.000 C 
BRANCH  23  24
ATOM     24  C   UNL     1       1.172   2.437  19.160  0.00  0.00    +0.000 C 
BRANCH  24  25
ATOM     25  C   UNL     1       0.698   3.361  20.282  0.00  0.00    +0.000 C 
BRANCH  25  26
ATOM     26  N   UNL     1       1.684   3.570  21.346  0.00  0.00    +0.000 NA
ATOM     27  C   UNL     1       2.732   2.547  21.326  0.00  0.00    +0.000 C 
ATOM     28  C   UNL     1       2.281   4.897  21.180  0.00  0.00    +0.000 C 
ENDBRANCH  25  26
ENDBRANCH  24  25
ENDBRANCH  23  24
ENDBRANCH   4  23
TORSDOF 7
ENDMDL
MODEL 7
REMARK VINA RESULT:      -7.5      1.276      1.860
REMARK  Name = 
REMARK  10 active torsions:
REMARK  status: ('A' for Active; 'I' for Inactive)
REMARK    1  A    between atoms: C_1  and  S_2
REMARK    2  A    between atoms: S_2  and  C_3
REMARK    3  A    between atoms: C_6  and  C_7
REMARK    4  A    between atoms: C_8  and  C_9
REMARK    5  A    between atoms: N_12  and  C_13
REMARK    6  A    between atoms: C_13  and  C_14
REMARK    7  A    between atoms: C_14  and  C_15
REMARK    8  A    between atoms: C_15  and  N_16
REMARK    9  A    between atoms: N_16  and  C_17
REMARK   10  A    between atoms: N_16  and  C_18
REMARK                            x       y       z     vdW  Elec       q    Type
REMARK                         _______ _______ _______ _____ _____    ______ ____
ROOT
ATOM      1  C   UNL     1       3.570   6.203  18.418  0.00  0.00    +0.000 A 
ATOM      2  N   UNL     1       3.883   5.026  18.960  0.00  0.00    +0.000 NA
ATOM      3  C   UNL     1       4.673   4.203  18.262  0.00  0.00    +0.000 A 
ATOM      4  N   UNL     1       5.170   3.045  18.908  0.00  0.00    +0.000 N 
ATOM      5  C   UNL     1       5.133   4.517  16.993  0.00  0.00    +0.000 A 
ATOM      6  C   UNL     1       5.870   3.610  16.189  0.00  0.00    +0.000 A 
ATOM      7  C   UNL     1       6.374   4.000  14.961  0.00  0.00    +0.000 A 
ATOM      8  C   UNL     1       6.173   5.313  14.547  0.00  0.00    +0.000 A 
ATOM      9  C   UNL     1       5.400   6.188  15.329  0.00  0.00    +0.000 A 
ATOM     10  C   UNL     1       4.825   5.806  16.547  0.00  0.00    +0.000 A 
ATOM     11  N   UNL     1       4.030   6.652  17.243  0.00  0.00    +0.000 NA
ATOM     12  H   UNL     1       6.148   3.245  19.126  0.00  0.00    +0.000 HD
ENDROOT
BRANCH   1  14
ATOM     13  C   UNL     1       1.979   8.090  18.997  0.00  0.00    +0.000 C 
ATOM     14  C   UNL     1       2.744   7.030  19.308  0.00  0.00    +0.000 C 
BRANCH  13  18
ATOM     15  C   UNL     1      -0.300  10.503  21.776  0.00  0.00    +0.000 A 
ATOM     16  C   UNL     1       0.193   9.260  22.181  0.00  0.00    +0.000 A 
ATOM     17  C   UNL     1       0.924   8.457  21.290  0.00  0.00    +0.000 A 
ATOM     18  C   UNL     1       1.170   8.866  19.968  0.00  0.00    +0.000 A 
ATOM     19  C   UNL     1       0.640  10.101  19.567  0.00  0.00    +0.000 A 
ATOM     20  C   UNL     1      -0.085  10.909  20.458  0.00  0.00    +0.000 A 
BRANCH  15  22
ATOM     21  C   UNL     1      -0.730  13.159  22.441  0.00  0.00    +0.000 C 
ATOM     22  S   UNL     1      -1.234  11.487  22.933  0.00  0.00    +0.000 S 
ENDBRANCH  15  22
ENDBRANCH  13  18
ENDBRANCH   1  14
BRANCH   4  23
ATOM     23  C   UNL     1       4.402   2.712  20.099  0.00  0.00    +0.000 C 
BRANCH  23  24
ATOM     24  C   UNL     1       3.161   1.918  19.724  0.00  0.00    +0.000 C 
BRANCH  24  25
ATOM     25  C   UNL     1       2.052   2.302  20.704  0.00  0.00    +0.000 C 
BRANCH  25  26
ATOM     26  N   UNL     1       0.886   2.929  20.077  0.00  0.00    +0.000 NA
ATOM     27  C   UNL     1       0.789   4.352  20.408  0.00  0.00    +0.000 C 
ATOM     28  C   UNL     1       0.985   2.762  18.625  0.00  0.00    +0.000 C 
ENDBRANCH  25  26
ENDBRANCH  24  25
ENDBRANCH  23  24
ENDBRANCH   4  23
TORSDOF 7
ENDMDL
MODEL 8
REMARK VINA RESULT:      -7.5      0.963      1.544
REMARK  Name = 
REMARK  10 active torsions:
REMARK  status: ('A' for Active; 'I' for Inactive)
REMARK    1  A    between atoms: C_1  and  S_2
REMARK    2  A    between atoms: S_2  and  C_3
REMARK    3  A    between atoms: C_6  and  C_7
REMARK    4  A    between atoms: C_8  and  C_9
REMARK    5  A    between atoms: N_12  and  C_13
REMARK    6  A    between atoms: C_13  and  C_14
REMARK    7  A    between atoms: C_14  and  C_15
REMARK    8  A    between atoms: C_15  and  N_16
REMARK    9  A    between atoms: N_16  and  C_17
REMARK   10  A    between atoms: N_16  and  C_18
REMARK                            x       y       z     vdW  Elec       q    Type
REMARK                         _______ _______ _______ _____ _____    ______ ____
ROOT
ATOM      1  C   UNL     1       3.316   6.538  18.105  0.00  0.00    +0.000 A 
ATOM      2  N   UNL     1       2.783   5.317  18.026  0.00  0.00    +0.000 NA
ATOM      3  C   UNL     1       3.445   4.387  17.329  0.00  0.00    +0.000 A 
ATOM      4  N   UNL     1       2.993   3.047  17.405  0.00  0.00    +0.000 N 
ATOM      5  C   UNL     1       4.627   4.663  16.660  0.00  0.00    +0.000 A 
ATOM      6  C   UNL     1       5.279   3.726  15.817  0.00  0.00    +0.000 A 
ATOM      7  C   UNL     1       6.498   4.025  15.237  0.00  0.00    +0.000 A 
ATOM      8  C   UNL     1       7.090   5.250  15.525  0.00  0.00    +0.000 A 
ATOM      9  C   UNL     1       6.412   6.190  16.321  0.00  0.00    +0.000 A 
ATOM     10  C   UNL     1       5.151   5.942  16.874  0.00  0.00    +0.000 A 
ATOM     11  N   UNL     1       4.496   6.894  17.580  0.00  0.00    +0.000 NA
ATOM     12  H   UNL     1       3.652   2.565  18.019  0.00  0.00    +0.000 HD
ENDROOT
BRANCH   1  14
ATOM     13  C   UNL     1       1.851   8.552  18.577  0.00  0.00    +0.000 C 
ATOM     14  C   UNL     1       2.520   7.445  18.942  0.00  0.00    +0.000 C 
BRANCH  13  18
ATOM     15  C   UNL     1      -0.517  10.904  21.333  0.00  0.00    +0.000 A 
ATOM     16  C   UNL     1      -0.362  11.333  20.013  0.00  0.00    +0.000 A 
ATOM     17  C   UNL     1       0.413  10.591  19.107  0.00  0.00    +0.000 A 
ATOM     18  C   UNL     1       1.065   9.409  19.497  0.00  0.00    +0.000 A 
ATOM     19  C   UNL     1       0.926   9.008  20.835  0.00  0.00    +0.000 A 
ATOM     20  C   UNL     1       0.146   9.746  21.741  0.00  0.00    +0.000 A 
BRANCH  15  22
ATOM     21  C   UNL     1      -0.636  13.475  22.361  0.00  0.00    +0.000 C 
ATOM     22  S   UNL     1      -1.499  11.882  22.456  0.00  0.00    +0.000 S 
ENDBRANCH  15  22
ENDBRANCH  13  18
ENDBRANCH   1  14
BRANCH   4  23
ATOM     23  C   UNL     1       1.625   2.959  17.895  0.00  0.00    +0.000 C 
BRANCH  23  24
ATOM     24  C   UNL     1       1.572   2.128  19.168  0.00  0.00    +0.000 C 
BRANCH  24  25
ATOM     25  C   UNL     1       0.855   2.959  20.232  0.00  0.00    +0.000 C 
BRANCH  25  26
ATOM     26  N   UNL     1       1.687   3.305  21.387  0.00  0.00    +0.000 NA
ATOM     27  C   UNL     1       2.849   2.421  21.506  0.00  0.00    +0.000 C 
ATOM     28  C   UNL     1       2.131   4.694  21.249  0.00  0.00    +0.000 C 
ENDBRANCH  25  26
ENDBRANCH  24  25
ENDBRANCH  23  24
ENDBRANCH   4  23
TORSDOF 7
ENDMDL
MODEL 9
REMARK VINA RESULT:      -7.4      1.450      1.621
REMARK  Name = 
REMARK  10 active torsions:
REMARK  status: ('A' for Active; 'I' for Inactive)
REMARK    1  A    between atoms: C_1  and  S_2
REMARK    2  A    between atoms: S_2  and  C_3
REMARK    3  A    between atoms: C_6  and  C_7
REMARK    4  A    between atoms: C_8  and  C_9
REMARK    5  A    between atoms: N_12  and  C_13
REMARK    6  A    between atoms: C_13  and  C_14
REMARK    7  A    between atoms: C_14  and  C_15
REMARK    8  A    between atoms: C_15  and  N_16
REMARK    9  A    between atoms: N_16  and  C_17
REMARK   10  A    between atoms: N_16  and  C_18
REMARK                            x       y       z     vdW  Elec       q    Type
REMARK                         _______ _______ _______ _____ _____    ______ ____
ROOT
ATOM      1  C   UNL     1       3.048   7.191  17.932  0.00  0.00    +0.000 A 
ATOM      2  N   UNL     1       2.465   5.991  17.934  0.00  0.00    +0.000 NA
ATOM      3  C   UNL     1       3.176   4.947  17.494  0.00  0.00    +0.000 A 
ATOM      4  N   UNL     1       2.640   3.649  17.676  0.00  0.00    +0.000 N 
ATOM      5  C   UNL     1       4.466   5.082  17.004  0.00  0.00    +0.000 A 
ATOM      6  C   UNL     1       5.190   4.010  16.422  0.00  0.00    +0.000 A 
ATOM      7  C   UNL     1       6.503   4.178  16.021  0.00  0.00    +0.000 A 
ATOM      8  C   UNL     1       7.111   5.411  16.234  0.00  0.00    +0.000 A 
ATOM      9  C   UNL     1       6.368   6.480  16.766  0.00  0.00    +0.000 A 
ATOM     10  C   UNL     1       5.021   6.359  17.125  0.00  0.00    +0.000 A 
ATOM     11  N   UNL     1       4.317   7.426  17.571  0.00  0.00    +0.000 NA
ATOM     12  H   UNL     1       3.161   3.239  18.454  0.00  0.00    +0.000 HD
ENDROOT
BRANCH   1  14
ATOM     13  C   UNL     1       1.933   9.466  18.004  0.00  0.00    +0.000 C 
ATOM     14  C   UNL     1       2.181   8.238  18.489  0.00  0.00    +0.000 C 
BRANCH  13  18
ATOM     15  C   UNL     1      -0.554  12.439  19.931  0.00  0.00    +0.000 A 
ATOM     16  C   UNL     1      -1.009  11.123  19.820  0.00  0.00    +0.000 A 
ATOM     17  C   UNL     1      -0.222  10.147  19.186  0.00  0.00    +0.000 A 
ATOM     18  C   UNL     1       1.032  10.461  18.636  0.00  0.00    +0.000 A 
ATOM     19  C   UNL     1       1.460  11.793  18.727  0.00  0.00    +0.000 A 
ATOM     20  C   UNL     1       0.678  12.770  19.365  0.00  0.00    +0.000 A 
BRANCH  15  22
ATOM     21  C   UNL     1      -2.685  12.578  21.697  0.00  0.00    +0.000 C 
ATOM     22  S   UNL     1      -1.588  13.653  20.731  0.00  0.00    +0.000 S 
ENDBRANCH  15  22
ENDBRANCH  13  18
ENDBRANCH   1  14
BRANCH   4  23
ATOM     23  C   UNL     1       1.208   3.681  17.935  0.00  0.00    +0.000 C 
BRANCH  23  24
ATOM     24  C   UNL     1       0.842   2.670  19.010  0.00  0.00    +0.000 C 
BRANCH  24  25
ATOM     25  C   UNL     1       2.134   1.993  19.466  0.00  0.00    +0.000 C 
BRANCH  25  26
ATOM     26  N   UNL     1       2.924   2.780  20.416  0.00  0.00    +0.000 NA
ATOM     27  C   UNL     1       2.352   2.741  21.764  0.00  0.00    +0.000 C 
ATOM     28  C   UNL     1       4.291   2.256  20.441  0.00  0.00    +0.000 C 
ENDBRANCH  25  26
ENDBRANCH  24  25
ENDBRANCH  23  24
ENDBRANCH   4  23
TORSDOF 7
ENDMDL
