MODEL 1
REMARK VINA RESULT:      -7.7      0.000      0.000
REMARK  Name = 
REMARK  14 active torsions:
REMARK  status: ('A' for Active; 'I' for Inactive)
REMARK    1  A    between atoms: C_1  and  O_2
REMARK    2  A    between atoms: O_2  and  C_3
REMARK    3  A    between atoms: C_3  and  C_5
REMARK    4  A    between atoms: C_6  and  C_7
REMARK    5  A    between atoms: C_7  and  C_8
REMARK    6  A    between atoms: C_9  and  C_10
REMARK    7  A    between atoms: C_10  and  C_11
REMARK    8  A    between atoms: C_12  and  O_13
REMARK    9  A    between atoms: C_15  and  O_16
REMARK   10  A    between atoms: C_17  and  C_18
REMARK   11  A    between atoms: C_19  and  C_20
REMARK   12  A    between atoms: C_20  and  O_21
REMARK   13  A    between atoms: C_20  and  O_22
REMARK   14  A    between atoms: O_22  and  C_23
REMARK                            x       y       z     vdW  Elec       q    Type
REMARK                         _______ _______ _______ _____ _____    ______ ____
ROOT
ATOM      1  C   UNL     1       1.643   4.162  18.785  0.00  0.00    +0.000 C 
ATOM      2  C   UNL     1       1.367   2.644  18.743  0.00  0.00    +0.000 C 
ATOM      3  C   UNL     1       1.628   2.097  20.142  0.00  0.00    +0.000 C 
ATOM      4  C   UNL     1       1.390   3.271  21.068  0.00  0.00    +0.000 C 
ATOM      5  C   UNL     1       1.884   4.498  20.283  0.00  0.00    +0.000 C 
ENDROOT
BRANCH   2   6
ATOM      6  O   UNL     1       2.109   1.929  17.772  0.00  0.00    +0.000 OA
ATOM      7  H   UNL     1       1.510   1.375  17.245  0.00  0.00    +0.000 HD
ENDBRANCH   2   6
BRANCH   4   8
ATOM      8  O   UNL     1       2.109   3.091  22.283  0.00  0.00    +0.000 OA
ATOM      9  H   UNL     1       2.307   3.966  22.661  0.00  0.00    +0.000 HD
ENDBRANCH   4   8
BRANCH   5  10
ATOM     10  C   UNL     1       1.262   5.828  20.658  0.00  0.00    +0.000 C 
ATOM     11  C   UNL     1       1.824   7.039  20.496  0.00  0.00    +0.000 C 
BRANCH  11  12
ATOM     12  C   UNL     1       1.207   8.344  20.900  0.00  0.00    +0.000 C 
BRANCH  12  13
ATOM     13  O   UNL     1       1.861   8.767  22.087  0.00  0.00    +0.000 OA
ATOM     14  H   UNL     1       1.164   8.800  22.762  0.00  0.00    +0.000 HD
ENDBRANCH  12  13
BRANCH  12  15
ATOM     15  O   UNL     1       1.413   9.266  19.834  0.00  0.00    +0.000 OA
BRANCH  15  16
ATOM     16  C   UNL     1       0.318   9.960  19.396  0.00  0.00    +0.000 A 
ATOM     17  C   UNL     1      -0.238  10.842  20.327  0.00  0.00    +0.000 A 
ATOM     18  C   UNL     1      -1.382  11.574  20.010  0.00  0.00    +0.000 A 
ATOM     19  C   UNL     1      -1.965  11.444  18.750  0.00  0.00    +0.000 A 
ATOM     20  C   UNL     1      -1.393  10.593  17.807  0.00  0.00    +0.000 A 
ATOM     21  C   UNL     1      -0.252   9.854  18.127  0.00  0.00    +0.000 A 
ENDBRANCH  15  16
ENDBRANCH  12  15
ENDBRANCH  11  12
ENDBRANCH   5  10
BRANCH   1  22
ATOM     22  C   UNL     1       2.790   4.699  17.911  0.00  0.00    +0.000 C 
BRANCH  22  24
ATOM     23  C   UNL     1       5.072   5.738  18.368  0.00  0.00    +0.000 C 
ATOM     24  C   UNL     1       4.119   4.821  18.609  0.00  0.00    +0.000 C 
BRANCH  23  25
ATOM     25  C   UNL     1       5.069   6.769  17.279  0.00  0.00    +0.000 C 
BRANCH  25  27
ATOM     26  C   UNL     1       6.515   5.303  15.834  0.00  0.00    +0.000 C 
ATOM     27  C   UNL     1       5.504   6.180  15.975  0.00  0.00    +0.000 C 
BRANCH  26  28
ATOM     28  C   UNL     1       6.831   4.758  14.497  0.00  0.00    +0.000 C 
ATOM     29  O   UNL     1       6.317   3.767  14.001  0.00  0.00    +0.000 OA
BRANCH  28  31
ATOM     30  C   UNL     1       7.918   5.342  12.525  0.00  0.00    +0.000 C 
ATOM     31  O   UNL     1       7.786   5.538  13.934  0.00  0.00    +0.000 OA
ENDBRANCH  28  31
ENDBRANCH  26  28
ENDBRANCH  25  27
ENDBRANCH  23  25
ENDBRANCH  22  24
ENDBRANCH   1  22
TORSDOF 13
ENDMDL
MODEL 2
REMARK VINA RESULT:      -7.5      1.481      2.098
REMARK  Name = 
REMARK  14 active torsions:
REMARK  status: ('A' for Active; 'I' for Inactive)
REMARK    1  A    between atoms: C_1  and  O_2
REMARK    2  A    between atoms: O_2  and  C_3
REMARK    3  A    between atoms: C_3  and  C_5
REMARK    4  A    between atoms: C_6  and  C_7
REMARK    5  A    between atoms: C_7  and  C_8
REMARK    6  A    between atoms: C_9  and  C_10
REMARK    7  A    between atoms: C_10  and  C_11
REMARK    8  A    between atoms: C_12  and  O_13
REMARK    9  A    between atoms: C_15  and  O_16
REMARK   10  A    between atoms: C_17  and  C_18
REMARK   11  A    between atoms: C_19  and  C_20
REMARK   12  A    between atoms: C_20  and  O_21
REMARK   13  A    between atoms: C_20  and  O_22
REMARK   14  A    between atoms: O_22  and  C_23
REMARK                            x       y       z     vdW  Elec       q    Type
REMARK                         _______ _______ _______ _____ _____    ______ ____
ROOT
ATOM      1  C   UNL     1       1.713   3.899  17.985  0.00  0.00    +0.000 C 
ATOM      2  C   UNL     1       1.021   2.892  18.929  0.00  0.00    +0.000 C 
ATOM      3  C   UNL     1       1.335   3.321  20.357  0.00  0.00    +0.000 C 
ATOM      4  C   UNL     1       1.583   4.812  20.270  0.00  0.00    +0.000 C 
ATOM      5  C   UNL     1       2.270   5.017  18.909  0.00  0.00    +0.000 C 
ENDROOT
BRANCH   2   6
ATOM      6  O   UNL     1       1.372   1.537  18.717  0.00  0.00    +0.000 OA
ATOM      7  H   UNL     1       2.192   1.333  19.197  0.00  0.00    +0.000 HD
ENDBRANCH   2   6
BRANCH   4   8
ATOM      8  O   UNL     1       2.404   5.238  21.350  0.00  0.00    +0.000 OA
ATOM      9  H   UNL     1       2.552   6.197  21.272  0.00  0.00    +0.000 HD
ENDBRANCH   4   8
BRANCH   5  10
ATOM     10  C   UNL     1       2.111   6.386  18.277  0.00  0.00    +0.000 C 
ATOM     11  C   UNL     1       2.244   7.568  18.905  0.00  0.00    +0.000 C 
BRANCH  11  12
ATOM     12  C   UNL     1       2.053   8.913  18.273  0.00  0.00    +0.000 C 
BRANCH  12  13
ATOM     13  O   UNL     1       2.881   8.955  17.120  0.00  0.00    +0.000 OA
ATOM     14  H   UNL     1       2.269   8.915  16.367  0.00  0.00    +0.000 HD
ENDBRANCH  12  13
BRANCH  12  15
ATOM     15  O   UNL     1       0.676   9.036  17.929  0.00  0.00    +0.000 OA
BRANCH  15  16
ATOM     16  C   UNL     1      -0.009  10.082  18.484  0.00  0.00    +0.000 A 
ATOM     17  C   UNL     1      -1.256  10.345  17.911  0.00  0.00    +0.000 A 
ATOM     18  C   UNL     1      -2.031  11.414  18.363  0.00  0.00    +0.000 A 
ATOM     19  C   UNL     1      -1.570  12.212  19.410  0.00  0.00    +0.000 A 
ATOM     20  C   UNL     1      -0.343  11.931  20.008  0.00  0.00    +0.000 A 
ATOM     21  C   UNL     1       0.435  10.866  19.549  0.00  0.00    +0.000 A 
ENDBRANCH  15  16
ENDBRANCH  12  15
ENDBRANCH  11  12
ENDBRANCH   5  10
BRANCH   1  22
ATOM     22  C   UNL     1       2.812   3.357  17.054  0.00  0.00    +0.000 C 
BRANCH  22  24
ATOM     23  C   UNL     1       5.124   4.385  17.365  0.00  0.00    +0.000 C 
ATOM     24  C   UNL     1       4.210   3.430  17.610  0.00  0.00    +0.000 C 
BRANCH  23  25
ATOM     25  C   UNL     1       4.993   5.526  16.399  0.00  0.00    +0.000 C 
BRANCH  25  27
ATOM     26  C   UNL     1       6.157   4.781  14.299  0.00  0.00    +0.000 C 
ATOM     27  C   UNL     1       6.117   5.532  15.414  0.00  0.00    +0.000 C 
BRANCH  26  28
ATOM     28  C   UNL     1       7.307   4.898  13.377  0.00  0.00    +0.000 C 
ATOM     29  O   UNL     1       8.287   5.606  13.560  0.00  0.00    +0.000 OA
BRANCH  28  31
ATOM     30  C   UNL     1       5.878   3.332  12.420  0.00  0.00    +0.000 C 
ATOM     31  O   UNL     1       7.077   4.100  12.306  0.00  0.00    +0.000 OA
ENDBRANCH  28  31
ENDBRANCH  26  28
ENDBRANCH  25  27
ENDBRANCH  23  25
ENDBRANCH  22  24
ENDBRANCH   1  22
TORSDOF 13
ENDMDL
MODEL 3
REMARK VINA RESULT:      -7.4      1.811      2.533
REMARK  Name = 
REMARK  14 active torsions:
REMARK  status: ('A' for Active; 'I' for Inactive)
REMARK    1  A    between atoms: C_1  and  O_2
REMARK    2  A    between atoms: O_2  and  C_3
REMARK    3  A    between atoms: C_3  and  C_5
REMARK    4  A    between atoms: C_6  and  C_7
REMARK    5  A    between atoms: C_7  and  C_8
REMARK    6  A    between atoms: C_9  and  C_10
REMARK    7  A    between atoms: C_10  and  C_11
REMARK    8  A    between atoms: C_12  and  O_13
REMARK    9  A    between atoms: C_15  and  O_16
REMARK   10  A    between atoms: C_17  and  C_18
REMARK   11  A    between atoms: C_19  and  C_20
REMARK   12  A    between atoms: C_20  and  O_21
REMARK   13  A    between atoms: C_20  and  O_22
REMARK   14  A    between atoms: O_22  and  C_23
REMARK                            x       y       z     vdW  Elec       q    Type
REMARK                         _______ _______ _______ _____ _____    ______ ____
ROOT
ATOM      1  C   UNL     1       1.675   4.163  17.997  0.00  0.00    +0.000 C 
ATOM      2  C   UNL     1       0.849   3.166  18.837  0.00  0.00    +0.000 C 
ATOM      3  C   UNL     1       1.229   3.379  20.297  0.00  0.00    +0.000 C 
ATOM      4  C   UNL     1       1.690   4.819  20.372  0.00  0.00    +0.000 C 
ATOM      5  C   UNL     1       2.394   5.078  19.028  0.00  0.00    +0.000 C 
ENDROOT
BRANCH   2   6
ATOM      6  O   UNL     1       0.999   1.807  18.467  0.00  0.00    +0.000 OA
ATOM      7  H   UNL     1       1.335   1.751  17.557  0.00  0.00    +0.000 HD
ENDBRANCH   2   6
BRANCH   4   8
ATOM      8  O   UNL     1       2.571   4.997  21.476  0.00  0.00    +0.000 OA
ATOM      9  H   UNL     1       2.853   4.121  21.795  0.00  0.00    +0.000 HD
ENDBRANCH   4   8
BRANCH   5  10
ATOM     10  C   UNL     1       2.431   6.518  18.558  0.00  0.00    +0.000 C 
ATOM     11  C   UNL     1       1.860   7.568  19.176  0.00  0.00    +0.000 C 
BRANCH  11  12
ATOM     12  C   UNL     1       1.881   8.982  18.681  0.00  0.00    +0.000 C 
BRANCH  12  13
ATOM     13  O   UNL     1       2.240   8.941  17.308  0.00  0.00    +0.000 OA
ATOM     14  H   UNL     1       1.935   9.788  16.942  0.00  0.00    +0.000 HD
ENDBRANCH  12  13
BRANCH  12  15
ATOM     15  O   UNL     1       0.576   9.521  18.863  0.00  0.00    +0.000 OA
BRANCH  15  16
ATOM     16  C   UNL     1       0.183   9.773  20.149  0.00  0.00    +0.000 A 
ATOM     17  C   UNL     1       0.031  11.125  20.470  0.00  0.00    +0.000 A 
ATOM     18  C   UNL     1      -0.324  11.509  21.763  0.00  0.00    +0.000 A 
ATOM     19  C   UNL     1      -0.552  10.539  22.738  0.00  0.00    +0.000 A 
ATOM     20  C   UNL     1      -0.436   9.189  22.414  0.00  0.00    +0.000 A 
ATOM     21  C   UNL     1      -0.072   8.806  21.121  0.00  0.00    +0.000 A 
ENDBRANCH  15  16
ENDBRANCH  12  15
ENDBRANCH  11  12
ENDBRANCH   5  10
BRANCH   1  22
ATOM     22  C   UNL     1       2.679   3.580  16.988  0.00  0.00    +0.000 C 
BRANCH  22  24
ATOM     23  C   UNL     1       5.132   4.267  17.068  0.00  0.00    +0.000 C 
ATOM     24  C   UNL     1       4.102   3.506  17.475  0.00  0.00    +0.000 C 
BRANCH  23  25
ATOM     25  C   UNL     1       5.116   5.280  15.962  0.00  0.00    +0.000 C 
BRANCH  25  27
ATOM     26  C   UNL     1       5.360   4.128  13.740  0.00  0.00    +0.000 C 
ATOM     27  C   UNL     1       5.892   4.799  14.777  0.00  0.00    +0.000 C 
BRANCH  26  28
ATOM     28  C   UNL     1       6.220   3.734  12.604  0.00  0.00    +0.000 C 
ATOM     29  O   UNL     1       7.335   4.181  12.377  0.00  0.00    +0.000 OA
BRANCH  28  31
ATOM     30  C   UNL     1       4.196   3.160  11.613  0.00  0.00    +0.000 C 
ATOM     31  O   UNL     1       5.557   2.809  11.868  0.00  0.00    +0.000 OA
ENDBRANCH  28  31
ENDBRANCH  26  28
ENDBRANCH  25  27
ENDBRANCH  23  25
ENDBRANCH  22  24
ENDBRANCH   1  22
TORSDOF 13
ENDMDL
MODEL 4
REMARK VINA RESULT:      -7.3      1.982      7.875
REMARK  Name = 
REMARK  14 active torsions:
REMARK  status: ('A' for Active; 'I' for Inactive)
REMARK    1  A    between atoms: C_1  and  O_2
REMARK    2  A    between atoms: O_2  and  C_3
REMARK    3  A    between atoms: C_3  and  C_5
REMARK    4  A    between atoms: C_6  and  C_7
REMARK    5  A    between atoms: C_7  and  C_8
REMARK    6  A    between atoms: C_9  and  C_10
REMARK    7  A    between atoms: C_10  and  C_11
REMARK    8  A    between atoms: C_12  and  O_13
REMARK    9  A    between atoms: C_15  and  O_16
REMARK   10  A    between atoms: C_17  and  C_18
REMARK   11  A    between atoms: C_19  and  C_20
REMARK   12  A    between atoms: C_20  and  O_21
REMARK   13  A    between atoms: C_20  and  O_22
REMARK   14  A    between atoms: O_22  and  C_23
REMARK                            x       y       z     vdW  Elec       q    Type
REMARK                         _______ _______ _______ _____ _____    ______ ____
ROOT
ATOM      1  C   UNL     1       3.054   4.944  18.894  0.00  0.00    +0.000 C 
ATOM      2  C   UNL     1       2.519   4.536  20.283  0.00  0.00    +0.000 C 
ATOM      3  C   UNL     1       2.019   3.101  20.173  0.00  0.00    +0.000 C 
ATOM      4  C   UNL     1       2.823   2.495  19.041  0.00  0.00    +0.000 C 
ATOM      5  C   UNL     1       3.020   3.646  18.039  0.00  0.00    +0.000 C 
ENDROOT
BRANCH   2   6
ATOM      6  O   UNL     1       1.513   5.384  20.808  0.00  0.00    +0.000 OA
ATOM      7  H   UNL     1       1.896   5.960  21.490  0.00  0.00    +0.000 HD
ENDBRANCH   2   6
BRANCH   4   8
ATOM      8  O   UNL     1       2.115   1.404  18.465  0.00  0.00    +0.000 OA
ATOM      9  H   UNL     1       1.321   1.747  18.018  0.00  0.00    +0.000 HD
ENDBRANCH   4   8
BRANCH   5  10
ATOM     10  C   UNL     1       4.233   3.547  17.137  0.00  0.00    +0.000 C 
ATOM     11  C   UNL     1       4.538   4.380  16.125  0.00  0.00    +0.000 C 
BRANCH  11  12
ATOM     12  C   UNL     1       5.727   4.250  15.222  0.00  0.00    +0.000 C 
BRANCH  12  13
ATOM     13  O   UNL     1       5.234   4.040  13.907  0.00  0.00    +0.000 OA
ATOM     14  H   UNL     1       4.275   4.173  13.973  0.00  0.00    +0.000 HD
ENDBRANCH  12  13
BRANCH  12  15
ATOM     15  O   UNL     1       6.470   5.462  15.313  0.00  0.00    +0.000 OA
BRANCH  15  16
ATOM     16  C   UNL     1       7.014   5.765  16.531  0.00  0.00    +0.000 A 
ATOM     17  C   UNL     1       7.440   4.665  17.281  0.00  0.00    +0.000 A 
ATOM     18  C   UNL     1       7.973   4.844  18.558  0.00  0.00    +0.000 A 
ATOM     19  C   UNL     1       8.105   6.129  19.082  0.00  0.00    +0.000 A 
ATOM     20  C   UNL     1       7.714   7.231  18.324  0.00  0.00    +0.000 A 
ATOM     21  C   UNL     1       7.173   7.050  17.049  0.00  0.00    +0.000 A 
ENDBRANCH  15  16
ENDBRANCH  12  15
ENDBRANCH  11  12
ENDBRANCH   5  10
BRANCH   1  22
ATOM     22  C   UNL     1       2.337   6.097  18.168  0.00  0.00    +0.000 C 
BRANCH  22  24
ATOM     23  C   UNL     1       2.771   8.590  17.863  0.00  0.00    +0.000 C 
ATOM     24  C   UNL     1       3.187   7.312  17.908  0.00  0.00    +0.000 C 
BRANCH  23  25
ATOM     25  C   UNL     1       1.353   9.074  17.951  0.00  0.00    +0.000 C 
BRANCH  25  27
ATOM     26  C   UNL     1       0.272  10.070  19.991  0.00  0.00    +0.000 C 
ATOM     27  C   UNL     1       1.201  10.110  19.019  0.00  0.00    +0.000 C 
BRANCH  26  28
ATOM     28  C   UNL     1       0.240  11.134  21.018  0.00  0.00    +0.000 C 
ATOM     29  O   UNL     1      -0.107  12.289  20.824  0.00  0.00    +0.000 OA
BRANCH  28  31
ATOM     30  C   UNL     1      -0.142   9.521  22.650  0.00  0.00    +0.000 C 
ATOM     31  O   UNL     1       0.667  10.606  22.191  0.00  0.00    +0.000 OA
ENDBRANCH  28  31
ENDBRANCH  26  28
ENDBRANCH  25  27
ENDBRANCH  23  25
ENDBRANCH  22  24
ENDBRANCH   1  22
TORSDOF 13
ENDMDL
MODEL 5
REMARK VINA RESULT:      -7.3      2.024      7.903
REMARK  Name = 
REMARK  14 active torsions:
REMARK  status: ('A' for Active; 'I' for Inactive)
REMARK    1  A    between atoms: C_1  and  O_2
REMARK    2  A    between atoms: O_2  and  C_3
REMARK    3  A    between atoms: C_3  and  C_5
REMARK    4  A    between atoms: C_6  and  C_7
REMARK    5  A    between atoms: C_7  and  C_8
REMARK    6  A    between atoms: C_9  and  C_10
REMARK    7  A    between atoms: C_10  and  C_11
REMARK    8  A    between atoms: C_12  and  O_13
REMARK    9  A    between atoms: C_15  and  O_16
REMARK   10  A    between atoms: C_17  and  C_18
REMARK   11  A    between atoms: C_19  and  C_20
REMARK   12  A    between atoms: C_20  and  O_21
REMARK   13  A    between atoms: C_20  and  O_22
REMARK   14  A    between atoms: O_22  and  C_23
REMARK                            x       y       z     vdW  Elec       q    Type
REMARK                         _______ _______ _______ _____ _____    ______ ____
ROOT
ATOM      1  C   UNL     1       3.041   5.084  18.874  0.00  0.00    +0.000 C 
ATOM      2  C   UNL     1       2.801   4.857  20.383  0.00  0.00    +0.000 C 
ATOM      3  C   UNL     1       2.167   3.480  20.539  0.00  0.00    +0.000 C 
ATOM      4  C   UNL     1       2.639   2.696  19.333  0.00  0.00    +0.000 C 
ATOM      5  C   UNL     1       2.703   3.728  18.193  0.00  0.00    +0.000 C 
ENDROOT
BRANCH   2   6
ATOM      6  O   UNL     1       2.018   5.852  21.018  0.00  0.00    +0.000 OA
ATOM      7  H   UNL     1       2.182   6.713  20.600  0.00  0.00    +0.000 HD
ENDBRANCH   2   6
BRANCH   4   8
ATOM      8  O   UNL     1       1.728   1.642  19.045  0.00  0.00    +0.000 OA
ATOM      9  H   UNL     1       0.837   1.911  19.332  0.00  0.00    +0.000 HD
ENDBRANCH   4   8
BRANCH   5  10
ATOM     10  C   UNL     1       3.668   3.420  17.066  0.00  0.00    +0.000 C 
ATOM     11  C   UNL     1       4.643   4.230  16.614  0.00  0.00    +0.000 C 
BRANCH  11  12
ATOM     12  C   UNL     1       5.570   3.923  15.477  0.00  0.00    +0.000 C 
BRANCH  12  13
ATOM     13  O   UNL     1       5.371   4.926  14.492  0.00  0.00    +0.000 OA
ATOM     14  H   UNL     1       5.489   4.471  13.642  0.00  0.00    +0.000 HD
ENDBRANCH  12  13
BRANCH  12  15
ATOM     15  O   UNL     1       6.899   3.949  15.987  0.00  0.00    +0.000 OA
BRANCH  15  16
ATOM     16  C   UNL     1       7.223   4.985  16.820  0.00  0.00    +0.000 A 
ATOM     17  C   UNL     1       7.649   4.610  18.097  0.00  0.00    +0.000 A 
ATOM     18  C   UNL     1       7.966   5.579  19.049  0.00  0.00    +0.000 A 
ATOM     19  C   UNL     1       7.880   6.931  18.720  0.00  0.00    +0.000 A 
ATOM     20  C   UNL     1       7.489   7.309  17.437  0.00  0.00    +0.000 A 
ATOM     21  C   UNL     1       7.164   6.339  16.487  0.00  0.00    +0.000 A 
ENDBRANCH  15  16
ENDBRANCH  12  15
ENDBRANCH  11  12
ENDBRANCH   5  10
BRANCH   1  22
ATOM     22  C   UNL     1       2.282   6.240  18.201  0.00  0.00    +0.000 C 
BRANCH  22  24
ATOM     23  C   UNL     1       2.652   8.731  17.807  0.00  0.00    +0.000 C 
ATOM     24  C   UNL     1       3.105   7.471  17.929  0.00  0.00    +0.000 C 
BRANCH  23  25
ATOM     25  C   UNL     1       1.217   9.171  17.802  0.00  0.00    +0.000 C 
BRANCH  25  27
ATOM     26  C   UNL     1       0.501   9.950  20.083  0.00  0.00    +0.000 C 
ATOM     27  C   UNL     1       0.967  10.210  18.848  0.00  0.00    +0.000 C 
BRANCH  26  28
ATOM     28  C   UNL     1       0.327  11.056  21.048  0.00  0.00    +0.000 C 
ATOM     29  O   UNL     1       1.229  11.749  21.495  0.00  0.00    +0.000 OA
BRANCH  28  31
ATOM     30  C   UNL     1      -1.515  12.473  21.167  0.00  0.00    +0.000 C 
ATOM     31  O   UNL     1      -0.991  11.156  21.349  0.00  0.00    +0.000 OA
ENDBRANCH  28  31
ENDBRANCH  26  28
ENDBRANCH  25  27
ENDBRANCH  23  25
ENDBRANCH  22  24
ENDBRANCH   1  22
TORSDOF 13
ENDMDL
MODEL 6
REMARK VINA RESULT:      -7.3      1.958      7.956
REMARK  Name = 
REMARK  14 active torsions:
REMARK  status: ('A' for Active; 'I' for Inactive)
REMARK    1  A    between atoms: C_1  and  O_2
REMARK    2  A    between atoms: O_2  and  C_3
REMARK    3  A    between atoms: C_3  and  C_5
REMARK    4  A    between atoms: C_6  and  C_7
REMARK    5  A    between atoms: C_7  and  C_8
REMARK    6  A    between atoms: C_9  and  C_10
REMARK    7  A    between atoms: C_10  and  C_11
REMARK    8  A    between atoms: C_12  and  O_13
REMARK    9  A    between atoms: C_15  and  O_16
REMARK   10  A    between atoms: C_17  and  C_18
REMARK   11  A    between atoms: C_19  and  C_20
REMARK   12  A    between atoms: C_20  and  O_21
REMARK   13  A    between atoms: C_20  and  O_22
REMARK   14  A    between atoms: O_22  and  C_23
REMARK                            x       y       z     vdW  Elec       q    Type
REMARK                         _______ _______ _______ _____ _____    ______ ____
ROOT
ATOM      1  C   UNL     1       3.070   4.955  18.784  0.00  0.00    +0.000 C 
ATOM      2  C   UNL     1       2.510   4.559  20.168  0.00  0.00    +0.000 C 
ATOM      3  C   UNL     1       2.003   3.126  20.059  0.00  0.00    +0.000 C 
ATOM      4  C   UNL     1       2.821   2.508  18.945  0.00  0.00    +0.000 C 
ATOM      5  C   UNL     1       3.042   3.651  17.938  0.00  0.00    +0.000 C 
ENDROOT
BRANCH   2   6
ATOM      6  O   UNL     1       1.502   5.417  20.670  0.00  0.00    +0.000 OA
ATOM      7  H   UNL     1       0.721   5.376  20.094  0.00  0.00    +0.000 HD
ENDBRANCH   2   6
BRANCH   4   8
ATOM      8  O   UNL     1       2.117   1.417  18.364  0.00  0.00    +0.000 OA
ATOM      9  H   UNL     1       2.743   0.878  17.849  0.00  0.00    +0.000 HD
ENDBRANCH   4   8
BRANCH   5  10
ATOM     10  C   UNL     1       4.269   3.539  17.056  0.00  0.00    +0.000 C 
ATOM     11  C   UNL     1       4.594   4.361  16.042  0.00  0.00    +0.000 C 
BRANCH  11  12
ATOM     12  C   UNL     1       5.797   4.218  15.160  0.00  0.00    +0.000 C 
BRANCH  12  13
ATOM     13  O   UNL     1       5.324   4.055  13.830  0.00  0.00    +0.000 OA
ATOM     14  H   UNL     1       4.830   4.868  13.636  0.00  0.00    +0.000 HD
ENDBRANCH  12  13
BRANCH  12  15
ATOM     15  O   UNL     1       6.572   5.405  15.294  0.00  0.00    +0.000 OA
BRANCH  15  16
ATOM     16  C   UNL     1       7.065   5.685  16.539  0.00  0.00    +0.000 A 
ATOM     17  C   UNL     1       7.196   7.045  16.835  0.00  0.00    +0.000 A 
ATOM     18  C   UNL     1       7.727   7.454  18.058  0.00  0.00    +0.000 A 
ATOM     19  C   UNL     1       8.110   6.503  19.003  0.00  0.00    +0.000 A 
ATOM     20  C   UNL     1       7.949   5.147  18.726  0.00  0.00    +0.000 A 
ATOM     21  C   UNL     1       7.424   4.738  17.498  0.00  0.00    +0.000 A 
ENDBRANCH  15  16
ENDBRANCH  12  15
ENDBRANCH  11  12
ENDBRANCH   5  10
BRANCH   1  22
ATOM     22  C   UNL     1       2.372   6.106  18.039  0.00  0.00    +0.000 C 
BRANCH  22  24
ATOM     23  C   UNL     1       2.795   8.611  17.830  0.00  0.00    +0.000 C 
ATOM     24  C   UNL     1       3.217   7.334  17.829  0.00  0.00    +0.000 C 
BRANCH  23  25
ATOM     25  C   UNL     1       1.375   9.086  17.927  0.00  0.00    +0.000 C 
BRANCH  25  27
ATOM     26  C   UNL     1       0.120   9.790  19.989  0.00  0.00    +0.000 C 
ATOM     27  C   UNL     1       1.166   9.917  19.153  0.00  0.00    +0.000 C 
BRANCH  26  28
ATOM     28  C   UNL     1       0.038  10.644  21.193  0.00  0.00    +0.000 C 
ATOM     29  O   UNL     1       0.704  10.498  22.207  0.00  0.00    +0.000 OA
BRANCH  28  31
ATOM     30  C   UNL     1      -1.600  11.984  22.160  0.00  0.00    +0.000 C 
ATOM     31  O   UNL     1      -0.901  11.598  20.975  0.00  0.00    +0.000 OA
ENDBRANCH  28  31
ENDBRANCH  26  28
ENDBRANCH  25  27
ENDBRANCH  23  25
ENDBRANCH  22  24
ENDBRANCH   1  22
TORSDOF 13
ENDMDL
MODEL 7
REMARK VINA RESULT:      -7.2      0.908      1.222
REMARK  Name = 
REMARK  14 active torsions:
REMARK  status: ('A' for Active; 'I' for Inactive)
REMARK    1  A    between atoms: C_1  and  O_2
REMARK    2  A    between atoms: O_2  and  C_3
REMARK    3  A    between atoms: C_3  and  C_5
REMARK    4  A    between atoms: C_6  and  C_7
REMARK    5  A    between atoms: C_7  and  C_8
REMARK    6  A    between atoms: C_9  and  C_10
REMARK    7  A    between atoms: C_10  and  C_11
REMARK    8  A    between atoms: C_12  and  O_13
REMARK    9  A    between atoms: C_15  and  O_16
REMARK   10  A    between atoms: C_17  and  C_18
REMARK   11  A    between atoms: C_19  and  C_20
REMARK   12  A    between atoms: C_20  and  O_21
REMARK   13  A    between atoms: C_20  and  O_22
REMARK   14  A    between atoms: O_22  and  C_23
REMARK                            x       y       z     vdW  Elec       q    Type
REMARK                         _______ _______ _______ _____ _____    ______ ____
ROOT
ATOM      1  C   UNL     1       1.526   4.070  18.789  0.00  0.00    +0.000 C 
ATOM      2  C   UNL     1       1.321   2.547  18.939  0.00  0.00    +0.000 C 
ATOM      3  C   UNL     1       1.730   2.173  20.359  0.00  0.00    +0.000 C 
ATOM      4  C   UNL     1       1.516   3.434  21.170  0.00  0.00    +0.000 C 
ATOM      5  C   UNL     1       1.880   4.583  20.213  0.00  0.00    +0.000 C 
ENDROOT
BRANCH   2   6
ATOM      6  O   UNL     1       2.011   1.756  17.988  0.00  0.00    +0.000 OA
ATOM      7  H   UNL     1       2.638   2.311  17.495  0.00  0.00    +0.000 HD
ENDBRANCH   2   6
BRANCH   4   8
ATOM      8  O   UNL     1       2.346   3.421  22.325  0.00  0.00    +0.000 OA
ATOM      9  H   UNL     1       2.490   2.497  22.598  0.00  0.00    +0.000 HD
ENDBRANCH   4   8
BRANCH   5  10
ATOM     10  C   UNL     1       1.228   5.921  20.497  0.00  0.00    +0.000 C 
ATOM     11  C   UNL     1       1.863   7.100  20.623  0.00  0.00    +0.000 C 
BRANCH  11  12
ATOM     12  C   UNL     1       1.205   8.411  20.933  0.00  0.00    +0.000 C 
BRANCH  12  13
ATOM     13  O   UNL     1       1.661   8.815  22.216  0.00  0.00    +0.000 OA
ATOM     14  H   UNL     1       1.423   9.754  22.284  0.00  0.00    +0.000 HD
ENDBRANCH  12  13
BRANCH  12  15
ATOM     15  O   UNL     1       1.598   9.338  19.926  0.00  0.00    +0.000 OA
BRANCH  15  16
ATOM     16  C   UNL     1       0.690  10.304  19.586  0.00  0.00    +0.000 A 
ATOM     17  C   UNL     1       1.243  11.499  19.117  0.00  0.00    +0.000 A 
ATOM     18  C   UNL     1       0.419  12.574  18.779  0.00  0.00    +0.000 A 
ATOM     19  C   UNL     1      -0.965  12.450  18.889  0.00  0.00    +0.000 A 
ATOM     20  C   UNL     1      -1.522  11.249  19.323  0.00  0.00    +0.000 A 
ATOM     21  C   UNL     1      -0.696  10.177  19.668  0.00  0.00    +0.000 A 
ENDBRANCH  15  16
ENDBRANCH  12  15
ENDBRANCH  11  12
ENDBRANCH   5  10
BRANCH   1  22
ATOM     22  C   UNL     1       2.565   4.549  17.760  0.00  0.00    +0.000 C 
BRANCH  22  24
ATOM     23  C   UNL     1       3.931   6.696  17.621  0.00  0.00    +0.000 C 
ATOM     24  C   UNL     1       2.760   6.040  17.698  0.00  0.00    +0.000 C 
BRANCH  23  25
ATOM     25  C   UNL     1       5.303   6.092  17.693  0.00  0.00    +0.000 C 
BRANCH  25  27
ATOM     26  C   UNL     1       6.329   4.760  15.823  0.00  0.00    +0.000 C 
ATOM     27  C   UNL     1       5.893   5.928  16.329  0.00  0.00    +0.000 C 
BRANCH  26  28
ATOM     28  C   UNL     1       6.861   4.712  14.445  0.00  0.00    +0.000 C 
ATOM     29  O   UNL     1       7.778   5.400  14.019  0.00  0.00    +0.000 OA
BRANCH  28  31
ATOM     30  C   UNL     1       6.563   3.678  12.382  0.00  0.00    +0.000 C 
ATOM     31  O   UNL     1       6.155   3.789  13.747  0.00  0.00    +0.000 OA
ENDBRANCH  28  31
ENDBRANCH  26  28
ENDBRANCH  25  27
ENDBRANCH  23  25
ENDBRANCH  22  24
ENDBRANCH   1  22
TORSDOF 13
ENDMDL
MODEL 8
REMARK VINA RESULT:      -7.2      1.513      2.154
REMARK  Name = 
REMARK  14 active torsions:
REMARK  status: ('A' for Active; 'I' for Inactive)
REMARK    1  A    between atoms: C_1  and  O_2
REMARK    2  A    between atoms: O_2  and  C_3
REMARK    3  A    between atoms: C_3  and  C_5
REMARK    4  A    between atoms: C_6  and  C_7
REMARK    5  A    between atoms: C_7  and  C_8
REMARK    6  A    between atoms: C_9  and  C_10
REMARK    7  A    between atoms: C_10  and  C_11
REMARK    8  A    between atoms: C_12  and  O_13
REMARK    9  A    between atoms: C_15  and  O_16
REMARK   10  A    between atoms: C_17  and  C_18
REMARK   11  A    between atoms: C_19  and  C_20
REMARK   12  A    between atoms: C_20  and  O_21
REMARK   13  A    between atoms: C_20  and  O_22
REMARK   14  A    between atoms: O_22  and  C_23
REMARK                            x       y       z     vdW  Elec       q    Type
REMARK                         _______ _______ _______ _____ _____    ______ ____
ROOT
ATOM      1  C   UNL     1       2.005   4.300  18.001  0.00  0.00    +0.000 C 
ATOM      2  C   UNL     1       1.162   3.240  18.743  0.00  0.00    +0.000 C 
ATOM      3  C   UNL     1       1.326   3.496  20.237  0.00  0.00    +0.000 C 
ATOM      4  C   UNL     1       1.649   4.971  20.345  0.00  0.00    +0.000 C 
ATOM      5  C   UNL     1       2.501   5.280  19.101  0.00  0.00    +0.000 C 
ENDROOT
BRANCH   2   6
ATOM      6  O   UNL     1       1.475   1.897  18.421  0.00  0.00    +0.000 OA
ATOM      7  H   UNL     1       1.768   1.842  17.497  0.00  0.00    +0.000 HD
ENDBRANCH   2   6
BRANCH   4   8
ATOM      8  O   UNL     1       2.357   5.232  21.552  0.00  0.00    +0.000 OA
ATOM      9  H   UNL     1       3.260   4.877  21.467  0.00  0.00    +0.000 HD
ENDBRANCH   4   8
BRANCH   5  10
ATOM     10  C   UNL     1       2.478   6.714  18.614  0.00  0.00    +0.000 C 
ATOM     11  C   UNL     1       1.800   7.732  19.176  0.00  0.00    +0.000 C 
BRANCH  11  12
ATOM     12  C   UNL     1       1.765   9.140  18.664  0.00  0.00    +0.000 C 
BRANCH  12  13
ATOM     13  O   UNL     1       2.185   9.103  17.308  0.00  0.00    +0.000 OA
ATOM     14  H   UNL     1       1.506   8.583  16.847  0.00  0.00    +0.000 HD
ENDBRANCH  12  13
BRANCH  12  15
ATOM     15  O   UNL     1       0.425   9.606  18.781  0.00  0.00    +0.000 OA
BRANCH  15  16
ATOM     16  C   UNL     1       0.102  10.280  19.927  0.00  0.00    +0.000 A 
ATOM     17  C   UNL     1       0.288  11.665  19.875  0.00  0.00    +0.000 A 
ATOM     18  C   UNL     1       0.034  12.455  20.996  0.00  0.00    +0.000 A 
ATOM     19  C   UNL     1      -0.430  11.866  22.171  0.00  0.00    +0.000 A 
ATOM     20  C   UNL     1      -0.651  10.491  22.217  0.00  0.00    +0.000 A 
ATOM     21  C   UNL     1      -0.388   9.699  21.097  0.00  0.00    +0.000 A 
ENDBRANCH  15  16
ENDBRANCH  12  15
ENDBRANCH  11  12
ENDBRANCH   5  10
BRANCH   1  22
ATOM     22  C   UNL     1       3.181   3.798  17.144  0.00  0.00    +0.000 C 
BRANCH  22  24
ATOM     23  C   UNL     1       5.493   4.320  18.081  0.00  0.00    +0.000 C 
ATOM     24  C   UNL     1       4.443   3.498  17.908  0.00  0.00    +0.000 C 
BRANCH  23  25
ATOM     25  C   UNL     1       5.685   5.672  17.460  0.00  0.00    +0.000 C 
BRANCH  25  27
ATOM     26  C   UNL     1       6.938   4.921  15.413  0.00  0.00    +0.000 C 
ATOM     27  C   UNL     1       5.903   5.563  15.985  0.00  0.00    +0.000 C 
BRANCH  26  28
ATOM     28  C   UNL     1       7.030   4.847  13.940  0.00  0.00    +0.000 C 
ATOM     29  O   UNL     1       7.796   5.503  13.249  0.00  0.00    +0.000 OA
BRANCH  28  31
ATOM     30  C   UNL     1       6.424   3.420  12.205  0.00  0.00    +0.000 C 
ATOM     31  O   UNL     1       6.122   3.942  13.500  0.00  0.00    +0.000 OA
ENDBRANCH  28  31
ENDBRANCH  26  28
ENDBRANCH  25  27
ENDBRANCH  23  25
ENDBRANCH  22  24
ENDBRANCH   1  22
TORSDOF 13
ENDMDL
MODEL 9
REMARK VINA RESULT:      -7.2      2.558      3.481
REMARK  Name = 
REMARK  14 active torsions:
REMARK  status: ('A' for Active; 'I' for Inactive)
REMARK    1  A    between atoms: C_1  and  O_2
REMARK    2  A    between atoms: O_2  and  C_3
REMARK    3  A    between atoms: C_3  and  C_5
REMARK    4  A    between atoms: C_6  and  C_7
REMARK    5  A    between atoms: C_7  and  C_8
REMARK    6  A    between atoms: C_9  and  C_10
REMARK    7  A    between atoms: C_10  and  C_11
REMARK    8  A    between atoms: C_12  and  O_13
REMARK    9  A    between atoms: C_15  and  O_16
REMARK   10  A    between atoms: C_17  and  C_18
REMARK   11  A    between atoms: C_19  and  C_20
REMARK   12  A    between atoms: C_20  and  O_21
REMARK   13  A    between atoms: C_20  and  O_22
REMARK   14  A    between atoms: O_22  and  C_23
REMARK                            x       y       z     vdW  Elec       q    Type
REMARK                         _______ _______ _______ _____ _____    ______ ____
ROOT
ATOM      1  C   UNL     1       2.488   5.084  17.906  0.00  0.00    +0.000 C 
ATOM      2  C   UNL     1       1.719   3.746  17.838  0.00  0.00    +0.000 C 
ATOM      3  C   UNL     1       1.446   3.307  19.271  0.00  0.00    +0.000 C 
ATOM      4  C   UNL     1       1.424   4.591  20.074  0.00  0.00    +0.000 C 
ATOM      5  C   UNL     1       2.480   5.490  19.406  0.00  0.00    +0.000 C 
ENDROOT
BRANCH   2   6
ATOM      6  O   UNL     1       2.370   2.722  17.108  0.00  0.00    +0.000 OA
ATOM      7  H   UNL     1       2.291   1.880  17.586  0.00  0.00    +0.000 HD
ENDBRANCH   2   6
BRANCH   4   8
ATOM      8  O   UNL     1       1.737   4.324  21.436  0.00  0.00    +0.000 OA
ATOM      9  H   UNL     1       2.401   3.612  21.471  0.00  0.00    +0.000 HD
ENDBRANCH   4   8
BRANCH   5  10
ATOM     10  C   UNL     1       2.289   6.984  19.574  0.00  0.00    +0.000 C 
ATOM     11  C   UNL     1       1.812   7.830  18.643  0.00  0.00    +0.000 C 
BRANCH  11  12
ATOM     12  C   UNL     1       1.657   9.311  18.815  0.00  0.00    +0.000 C 
BRANCH  12  13
ATOM     13  O   UNL     1       2.064   9.919  17.598  0.00  0.00    +0.000 OA
ATOM     14  H   UNL     1       1.469   9.554  16.922  0.00  0.00    +0.000 HD
ENDBRANCH  12  13
BRANCH  12  15
ATOM     15  O   UNL     1       0.285   9.571  19.094  0.00  0.00    +0.000 OA
BRANCH  15  16
ATOM     16  C   UNL     1      -0.018  10.016  20.351  0.00  0.00    +0.000 A 
ATOM     17  C   UNL     1      -0.084   9.023  21.333  0.00  0.00    +0.000 A 
ATOM     18  C   UNL     1      -0.426   9.348  22.645  0.00  0.00    +0.000 A 
ATOM     19  C   UNL     1      -0.682  10.675  22.989  0.00  0.00    +0.000 A 
ATOM     20  C   UNL     1      -0.583  11.673  22.021  0.00  0.00    +0.000 A 
ATOM     21  C   UNL     1      -0.248  11.345  20.706  0.00  0.00    +0.000 A 
ENDBRANCH  15  16
ENDBRANCH  12  15
ENDBRANCH  11  12
ENDBRANCH   5  10
BRANCH   1  22
ATOM     22  C   UNL     1       3.918   5.110  17.339  0.00  0.00    +0.000 C 
BRANCH  22  24
ATOM     23  C   UNL     1       6.318   4.778  18.128  0.00  0.00    +0.000 C 
ATOM     24  C   UNL     1       4.990   4.652  18.291  0.00  0.00    +0.000 C 
BRANCH  23  25
ATOM     25  C   UNL     1       7.026   5.302  16.913  0.00  0.00    +0.000 C 
BRANCH  25  27
ATOM     26  C   UNL     1       7.879   7.326  18.138  0.00  0.00    +0.000 C 
ATOM     27  C   UNL     1       7.327   6.761  17.049  0.00  0.00    +0.000 C 
BRANCH  26  28
ATOM     28  C   UNL     1       8.165   8.776  18.145  0.00  0.00    +0.000 C 
ATOM     29  O   UNL     1       7.652   9.599  17.400  0.00  0.00    +0.000 OA
BRANCH  28  31
ATOM     30  C   UNL     1       9.293  10.417  19.347  0.00  0.00    +0.000 C 
ATOM     31  O   UNL     1       9.089   9.024  19.104  0.00  0.00    +0.000 OA
ENDBRANCH  28  31
ENDBRANCH  26  28
ENDBRANCH  25  27
ENDBRANCH  23  25
ENDBRANCH  22  24
ENDBRANCH   1  22
TORSDOF 13
ENDMDL
