MODEL 1
REMARK VINA RESULT:      -8.8      0.000      0.000
REMARK  Name = 
REMARK  9 active torsions:
REMARK  status: ('A' for Active; 'I' for Inactive)
REMARK    1  A    between atoms: C_1  and  O_2
REMARK    2  A    between atoms: O_2  and  C_3
REMARK    3  A    between atoms: C_5  and  C_6
REMARK    4  A    between atoms: C_16  and  C_17
REMARK    5  A    between atoms: N_20  and  C_21
REMARK    6  A    between atoms: C_21  and  C_22
REMARK    7  A    between atoms: C_21  and  C_23
REMARK    8  A    between atoms: C_21  and  C_24
REMARK    9  A    between atoms: C_25  and  C_26
REMARK                            x       y       z     vdW  Elec       q    Type
REMARK                         _______ _______ _______ _____ _____    ______ ____
ROOT
ATOM      1  C   UNL     1       2.667   4.928  20.352  0.00  0.00    +0.000 A 
ATOM      2  N   UNL     1       3.588   4.611  19.407  0.00  0.00    +0.000 NA
ATOM      3  C   UNL     1       3.958   5.527  18.469  0.00  0.00    +0.000 A 
ATOM      4  C   UNL     1       3.443   6.827  18.452  0.00  0.00    +0.000 A 
ATOM      5  C   UNL     1       2.544   7.167  19.455  0.00  0.00    +0.000 A 
ATOM      6  N   UNL     1       1.919   8.361  19.707  0.00  0.00    +0.000 NA
ATOM      7  C   UNL     1       1.204   8.163  20.795  0.00  0.00    +0.000 A 
ATOM      8  N   UNL     1       1.295   6.858  21.208  0.00  0.00    +0.000 N 
ATOM      9  C   UNL     1       2.175   6.215  20.383  0.00  0.00    +0.000 A 
ATOM     10  H   UNL     1       0.835   6.447  22.007  0.00  0.00    +0.000 HD
ENDROOT
BRANCH   3  11
ATOM     11  C   UNL     1       4.957   5.100  17.456  0.00  0.00    +0.000 A 
ATOM     12  C   UNL     1       4.503   4.633  16.197  0.00  0.00    +0.000 A 
ATOM     13  C   UNL     1       5.374   4.125  15.228  0.00  0.00    +0.000 A 
ATOM     14  C   UNL     1       6.737   4.099  15.474  0.00  0.00    +0.000 A 
ATOM     15  C   UNL     1       7.226   4.588  16.683  0.00  0.00    +0.000 A 
ATOM     16  C   UNL     1       6.351   5.078  17.669  0.00  0.00    +0.000 A 
ATOM     17 CL   UNL     1       7.105   5.571  19.149  0.00  0.00    +0.000 Cl
ENDBRANCH   3  11
BRANCH   7  18
ATOM     18  C   UNL     1       0.438   9.214  21.504  0.00  0.00    +0.000 A 
ATOM     19  C   UNL     1       0.293   9.386  22.883  0.00  0.00    +0.000 A 
ATOM     20  N   UNL     1      -0.425  10.461  23.179  0.00  0.00    +0.000 NA
ATOM     21  N   UNL     1      -0.737  11.016  21.978  0.00  0.00    +0.000 N 
ATOM     22  C   UNL     1      -0.266  10.255  20.921  0.00  0.00    +0.000 A 
ATOM     23  C   UNL     1      -0.468  10.513  19.468  0.00  0.00    +0.000 C 
BRANCH  21  24
ATOM     24  C   UNL     1      -1.462  12.305  21.983  0.00  0.00    +0.000 C 
ATOM     25  C   UNL     1      -2.437  12.402  20.775  0.00  0.00    +0.000 C 
ATOM     26  C   UNL     1      -2.323  12.440  23.255  0.00  0.00    +0.000 C 
ATOM     27  C   UNL     1      -0.490  13.493  21.854  0.00  0.00    +0.000 C 
ENDBRANCH  21  24
ENDBRANCH   7  18
BRANCH   1  29
ATOM     28  C   UNL     1       1.272   3.097  20.739  0.00  0.00    +0.000 C 
ATOM     29  O   UNL     1       2.224   4.008  21.277  0.00  0.00    +0.000 OA
ENDBRANCH   1  29
TORSDOF 4
ENDMDL
MODEL 2
REMARK VINA RESULT:      -8.6      0.748      1.088
REMARK  Name = 
REMARK  9 active torsions:
REMARK  status: ('A' for Active; 'I' for Inactive)
REMARK    1  A    between atoms: C_1  and  O_2
REMARK    2  A    between atoms: O_2  and  C_3
REMARK    3  A    between atoms: C_5  and  C_6
REMARK    4  A    between atoms: C_16  and  C_17
REMARK    5  A    between atoms: N_20  and  C_21
REMARK    6  A    between atoms: C_21  and  C_22
REMARK    7  A    between atoms: C_21  and  C_23
REMARK    8  A    between atoms: C_21  and  C_24
REMARK    9  A    between atoms: C_25  and  C_26
REMARK                            x       y       z     vdW  Elec       q    Type
REMARK                         _______ _______ _______ _____ _____    ______ ____
ROOT
ATOM      1  C   UNL     1       3.103   4.962  19.752  0.00  0.00    +0.000 A 
ATOM      2  N   UNL     1       3.943   4.694  18.722  0.00  0.00    +0.000 NA
ATOM      3  C   UNL     1       4.179   5.630  17.761  0.00  0.00    +0.000 A 
ATOM      4  C   UNL     1       3.604   6.904  17.804  0.00  0.00    +0.000 A 
ATOM      5  C   UNL     1       2.789   7.197  18.891  0.00  0.00    +0.000 A 
ATOM      6  N   UNL     1       2.136   8.358  19.211  0.00  0.00    +0.000 NA
ATOM      7  C   UNL     1       1.537   8.122  20.360  0.00  0.00    +0.000 A 
ATOM      8  N   UNL     1       1.729   6.821  20.752  0.00  0.00    +0.000 N 
ATOM      9  C   UNL     1       2.555   6.224  19.841  0.00  0.00    +0.000 A 
ATOM     10  H   UNL     1       1.367   6.385  21.587  0.00  0.00    +0.000 HD
ENDROOT
BRANCH   3  11
ATOM     11  C   UNL     1       5.096   5.256  16.654  0.00  0.00    +0.000 A 
ATOM     12  C   UNL     1       4.606   4.444  15.600  0.00  0.00    +0.000 A 
ATOM     13  C   UNL     1       5.430   3.971  14.574  0.00  0.00    +0.000 A 
ATOM     14  C   UNL     1       6.770   4.324  14.549  0.00  0.00    +0.000 A 
ATOM     15  C   UNL     1       7.279   5.154  15.544  0.00  0.00    +0.000 A 
ATOM     16  C   UNL     1       6.459   5.613  16.590  0.00  0.00    +0.000 A 
ATOM     17 CL   UNL     1       7.259   6.568  17.794  0.00  0.00    +0.000 Cl
ENDBRANCH   3  11
BRANCH   7  18
ATOM     18  C   UNL     1       0.794   9.132  21.148  0.00  0.00    +0.000 A 
ATOM     19  C   UNL     1       0.687   9.227  22.537  0.00  0.00    +0.000 A 
ATOM     20  N   UNL     1      -0.021  10.284  22.912  0.00  0.00    +0.000 NA
ATOM     21  N   UNL     1      -0.364  10.906  21.753  0.00  0.00    +0.000 N 
ATOM     22  C   UNL     1       0.076  10.204  20.643  0.00  0.00    +0.000 A 
ATOM     23  C   UNL     1      -0.166  10.544  19.213  0.00  0.00    +0.000 C 
BRANCH  21  24
ATOM     24  C   UNL     1      -1.086  12.193  21.851  0.00  0.00    +0.000 C 
ATOM     25  C   UNL     1      -0.117  13.393  21.646  0.00  0.00    +0.000 C 
ATOM     26  C   UNL     1      -2.159  12.300  20.750  0.00  0.00    +0.000 C 
ATOM     27  C   UNL     1      -1.714  12.376  23.246  0.00  0.00    +0.000 C 
ENDBRANCH  21  24
ENDBRANCH   7  18
BRANCH   1  29
ATOM     28  C   UNL     1       1.754   3.137  20.297  0.00  0.00    +0.000 C 
ATOM     29  O   UNL     1       2.794   4.019  20.707  0.00  0.00    +0.000 OA
ENDBRANCH   1  29
TORSDOF 4
ENDMDL
MODEL 3
REMARK VINA RESULT:      -8.4      1.160      1.528
REMARK  Name = 
REMARK  9 active torsions:
REMARK  status: ('A' for Active; 'I' for Inactive)
REMARK    1  A    between atoms: C_1  and  O_2
REMARK    2  A    between atoms: O_2  and  C_3
REMARK    3  A    between atoms: C_5  and  C_6
REMARK    4  A    between atoms: C_16  and  C_17
REMARK    5  A    between atoms: N_20  and  C_21
REMARK    6  A    between atoms: C_21  and  C_22
REMARK    7  A    between atoms: C_21  and  C_23
REMARK    8  A    between atoms: C_21  and  C_24
REMARK    9  A    between atoms: C_25  and  C_26
REMARK                            x       y       z     vdW  Elec       q    Type
REMARK                         _______ _______ _______ _____ _____    ______ ____
ROOT
ATOM      1  C   UNL     1       2.582   5.204  20.340  0.00  0.00    +0.000 A 
ATOM      2  N   UNL     1       3.377   4.838  19.304  0.00  0.00    +0.000 NA
ATOM      3  C   UNL     1       3.586   5.686  18.259  0.00  0.00    +0.000 A 
ATOM      4  C   UNL     1       3.029   6.968  18.217  0.00  0.00    +0.000 A 
ATOM      5  C   UNL     1       2.262   7.364  19.306  0.00  0.00    +0.000 A 
ATOM      6  N   UNL     1       1.637   8.558  19.552  0.00  0.00    +0.000 NA
ATOM      7  C   UNL     1       1.082   8.429  20.740  0.00  0.00    +0.000 A 
ATOM      8  N   UNL     1       1.273   7.162  21.232  0.00  0.00    +0.000 N 
ATOM      9  C   UNL     1       2.055   6.478  20.343  0.00  0.00    +0.000 A 
ATOM     10  H   UNL     1       0.940   6.804  22.114  0.00  0.00    +0.000 HD
ENDROOT
BRANCH   3  11
ATOM     11  C   UNL     1       4.453   5.205  17.153  0.00  0.00    +0.000 A 
ATOM     12  C   UNL     1       5.141   6.155  16.357  0.00  0.00    +0.000 A 
ATOM     13  C   UNL     1       5.899   5.789  15.241  0.00  0.00    +0.000 A 
ATOM     14  C   UNL     1       6.022   4.451  14.902  0.00  0.00    +0.000 A 
ATOM     15  C   UNL     1       5.395   3.485  15.683  0.00  0.00    +0.000 A 
ATOM     16  C   UNL     1       4.613   3.851  16.793  0.00  0.00    +0.000 A 
ATOM     17 CL   UNL     1       3.830   2.541  17.613  0.00  0.00    +0.000 Cl
ENDBRANCH   3  11
BRANCH   7  18
ATOM     18  C   UNL     1       0.384   9.514  21.468  0.00  0.00    +0.000 A 
ATOM     19  C   UNL     1       0.199   9.639  22.846  0.00  0.00    +0.000 A 
ATOM     20  N   UNL     1      -0.434  10.761  23.164  0.00  0.00    +0.000 NA
ATOM     21  N   UNL     1      -0.646  11.392  21.980  0.00  0.00    +0.000 N 
ATOM     22  C   UNL     1      -0.201  10.637  20.907  0.00  0.00    +0.000 A 
ATOM     23  C   UNL     1      -0.320  10.974  19.461  0.00  0.00    +0.000 C 
BRANCH  21  24
ATOM     24  C   UNL     1      -1.254  12.740  22.017  0.00  0.00    +0.000 C 
ATOM     25  C   UNL     1      -1.669  13.124  23.467  0.00  0.00    +0.000 C 
ATOM     26  C   UNL     1      -0.243  13.806  21.552  0.00  0.00    +0.000 C 
ATOM     27  C   UNL     1      -2.538  12.797  21.169  0.00  0.00    +0.000 C 
ENDBRANCH  21  24
ENDBRANCH   7  18
BRANCH   1  29
ATOM     28  C   UNL     1       1.474   3.257  20.994  0.00  0.00    +0.000 C 
ATOM     29  O   UNL     1       2.300   4.350  21.382  0.00  0.00    +0.000 OA
ENDBRANCH   1  29
TORSDOF 4
ENDMDL
MODEL 4
REMARK VINA RESULT:      -8.1      1.080      1.453
REMARK  Name = 
REMARK  9 active torsions:
REMARK  status: ('A' for Active; 'I' for Inactive)
REMARK    1  A    between atoms: C_1  and  O_2
REMARK    2  A    between atoms: O_2  and  C_3
REMARK    3  A    between atoms: C_5  and  C_6
REMARK    4  A    between atoms: C_16  and  C_17
REMARK    5  A    between atoms: N_20  and  C_21
REMARK    6  A    between atoms: C_21  and  C_22
REMARK    7  A    between atoms: C_21  and  C_23
REMARK    8  A    between atoms: C_21  and  C_24
REMARK    9  A    between atoms: C_25  and  C_26
REMARK                            x       y       z     vdW  Elec       q    Type
REMARK                         _______ _______ _______ _____ _____    ______ ____
ROOT
ATOM      1  C   UNL     1       2.959   5.576  19.756  0.00  0.00    +0.000 A 
ATOM      2  N   UNL     1       3.864   5.203  18.817  0.00  0.00    +0.000 NA
ATOM      3  C   UNL     1       4.131   6.012  17.755  0.00  0.00    +0.000 A 
ATOM      4  C   UNL     1       3.523   7.261  17.598  0.00  0.00    +0.000 A 
ATOM      5  C   UNL     1       2.640   7.668  18.591  0.00  0.00    +0.000 A 
ATOM      6  N   UNL     1       1.941   8.839  18.719  0.00  0.00    +0.000 NA
ATOM      7  C   UNL     1       1.283   8.737  19.856  0.00  0.00    +0.000 A 
ATOM      8  N   UNL     1       1.485   7.505  20.426  0.00  0.00    +0.000 N 
ATOM      9  C   UNL     1       2.376   6.821  19.648  0.00  0.00    +0.000 A 
ATOM     10  H   UNL     1       1.086   7.170  21.291  0.00  0.00    +0.000 HD
ENDROOT
BRANCH   3  11
ATOM     11  C   UNL     1       5.119   5.526  16.758  0.00  0.00    +0.000 A 
ATOM     12  C   UNL     1       4.713   4.561  15.802  0.00  0.00    +0.000 A 
ATOM     13  C   UNL     1       5.606   3.985  14.894  0.00  0.00    +0.000 A 
ATOM     14  C   UNL     1       6.934   4.380  14.889  0.00  0.00    +0.000 A 
ATOM     15  C   UNL     1       7.363   5.356  15.786  0.00  0.00    +0.000 A 
ATOM     16  C   UNL     1       6.472   5.921  16.716  0.00  0.00    +0.000 A 
ATOM     17 CL   UNL     1       7.175   7.059  17.817  0.00  0.00    +0.000 Cl
ENDBRANCH   3  11
BRANCH   7  18
ATOM     18  C   UNL     1       0.471   9.817  20.461  0.00  0.00    +0.000 A 
ATOM     19  C   UNL     1       0.558  10.330  21.758  0.00  0.00    +0.000 A 
ATOM     20  N   UNL     1      -0.292  11.329  21.956  0.00  0.00    +0.000 NA
ATOM     21  N   UNL     1      -0.929  11.489  20.767  0.00  0.00    +0.000 N 
ATOM     22  C   UNL     1      -0.524  10.549  19.834  0.00  0.00    +0.000 A 
ATOM     23  C   UNL     1      -1.044  10.375  18.450  0.00  0.00    +0.000 C 
BRANCH  21  24
ATOM     24  C   UNL     1      -1.883  12.613  20.644  0.00  0.00    +0.000 C 
ATOM     25  C   UNL     1      -2.527  12.952  22.019  0.00  0.00    +0.000 C 
ATOM     26  C   UNL     1      -1.161  13.890  20.170  0.00  0.00    +0.000 C 
ATOM     27  C   UNL     1      -3.044  12.259  19.696  0.00  0.00    +0.000 C 
ENDBRANCH  21  24
ENDBRANCH   7  18
BRANCH   1  29
ATOM     28  C   UNL     1       1.507   3.917  20.521  0.00  0.00    +0.000 C 
ATOM     29  O   UNL     1       2.620   4.757  20.810  0.00  0.00    +0.000 OA
ENDBRANCH   1  29
TORSDOF 4
ENDMDL
MODEL 5
REMARK VINA RESULT:      -7.9      1.088      1.801
REMARK  Name = 
REMARK  9 active torsions:
REMARK  status: ('A' for Active; 'I' for Inactive)
REMARK    1  A    between atoms: C_1  and  O_2
REMARK    2  A    between atoms: O_2  and  C_3
REMARK    3  A    between atoms: C_5  and  C_6
REMARK    4  A    between atoms: C_16  and  C_17
REMARK    5  A    between atoms: N_20  and  C_21
REMARK    6  A    between atoms: C_21  and  C_22
REMARK    7  A    between atoms: C_21  and  C_23
REMARK    8  A    between atoms: C_21  and  C_24
REMARK    9  A    between atoms: C_25  and  C_26
REMARK                            x       y       z     vdW  Elec       q    Type
REMARK                         _______ _______ _______ _____ _____    ______ ____
ROOT
ATOM      1  C   UNL     1       2.594   6.069  19.836  0.00  0.00    +0.000 A 
ATOM      2  N   UNL     1       3.593   5.567  19.069  0.00  0.00    +0.000 NA
ATOM      3  C   UNL     1       4.043   6.256  17.983  0.00  0.00    +0.000 A 
ATOM      4  C   UNL     1       3.531   7.508  17.630  0.00  0.00    +0.000 A 
ATOM      5  C   UNL     1       2.547   8.047  18.451  0.00  0.00    +0.000 A 
ATOM      6  N   UNL     1       1.903   9.254  18.373  0.00  0.00    +0.000 NA
ATOM      7  C   UNL     1       1.095   9.291  19.413  0.00  0.00    +0.000 A 
ATOM      8  N   UNL     1       1.151   8.114  20.116  0.00  0.00    +0.000 N 
ATOM      9  C   UNL     1       2.100   7.320  19.534  0.00  0.00    +0.000 A 
ATOM     10  H   UNL     1       0.624   7.883  20.945  0.00  0.00    +0.000 HD
ENDROOT
BRANCH   3  11
ATOM     11  C   UNL     1       5.127   5.633  17.180  0.00  0.00    +0.000 A 
ATOM     12  C   UNL     1       4.873   5.298  15.826  0.00  0.00    +0.000 A 
ATOM     13  C   UNL     1       5.808   4.623  15.034  0.00  0.00    +0.000 A 
ATOM     14  C   UNL     1       7.045   4.291  15.562  0.00  0.00    +0.000 A 
ATOM     15  C   UNL     1       7.347   4.641  16.875  0.00  0.00    +0.000 A 
ATOM     16  C   UNL     1       6.401   5.298  17.682  0.00  0.00    +0.000 A 
ATOM     17 CL   UNL     1       6.897   5.590  19.317  0.00  0.00    +0.000 Cl
ENDBRANCH   3  11
BRANCH   7  18
ATOM     18  C   UNL     1       0.271  10.459  19.800  0.00  0.00    +0.000 A 
ATOM     19  C   UNL     1      -0.348  11.387  18.959  0.00  0.00    +0.000 A 
ATOM     20  N   UNL     1      -1.051  12.285  19.638  0.00  0.00    +0.000 NA
ATOM     21  N   UNL     1      -0.910  11.927  20.941  0.00  0.00    +0.000 N 
ATOM     22  C   UNL     1      -0.066  10.838  21.089  0.00  0.00    +0.000 A 
ATOM     23  C   UNL     1       0.371  10.208  22.365  0.00  0.00    +0.000 C 
BRANCH  21  24
ATOM     24  C   UNL     1      -1.673  12.693  21.951  0.00  0.00    +0.000 C 
ATOM     25  C   UNL     1      -2.214  11.758  23.070  0.00  0.00    +0.000 C 
ATOM     26  C   UNL     1      -0.767  13.730  22.645  0.00  0.00    +0.000 C 
ATOM     27  C   UNL     1      -2.902  13.375  21.322  0.00  0.00    +0.000 C 
ENDBRANCH  21  24
ENDBRANCH   7  18
BRANCH   1  29
ATOM     28  C   UNL     1       1.232   4.295  20.504  0.00  0.00    +0.000 C 
ATOM     29  O   UNL     1       2.073   5.372  20.903  0.00  0.00    +0.000 OA
ENDBRANCH   1  29
TORSDOF 4
ENDMDL
MODEL 6
REMARK VINA RESULT:      -7.8      1.910      2.430
REMARK  Name = 
REMARK  9 active torsions:
REMARK  status: ('A' for Active; 'I' for Inactive)
REMARK    1  A    between atoms: C_1  and  O_2
REMARK    2  A    between atoms: O_2  and  C_3
REMARK    3  A    between atoms: C_5  and  C_6
REMARK    4  A    between atoms: C_16  and  C_17
REMARK    5  A    between atoms: N_20  and  C_21
REMARK    6  A    between atoms: C_21  and  C_22
REMARK    7  A    between atoms: C_21  and  C_23
REMARK    8  A    between atoms: C_21  and  C_24
REMARK    9  A    between atoms: C_25  and  C_26
REMARK                            x       y       z     vdW  Elec       q    Type
REMARK                         _______ _______ _______ _____ _____    ______ ____
ROOT
ATOM      1  C   UNL     1       2.569   6.448  19.677  0.00  0.00    +0.000 A 
ATOM      2  N   UNL     1       3.578   5.876  18.973  0.00  0.00    +0.000 NA
ATOM      3  C   UNL     1       4.061   6.474  17.848  0.00  0.00    +0.000 A 
ATOM      4  C   UNL     1       3.573   7.701  17.388  0.00  0.00    +0.000 A 
ATOM      5  C   UNL     1       2.580   8.313  18.142  0.00  0.00    +0.000 A 
ATOM      6  N   UNL     1       1.954   9.518  17.957  0.00  0.00    +0.000 NA
ATOM      7  C   UNL     1       1.124   9.645  18.973  0.00  0.00    +0.000 A 
ATOM      8  N   UNL     1       1.149   8.525  19.766  0.00  0.00    +0.000 N 
ATOM      9  C   UNL     1       2.099   7.677  19.268  0.00  0.00    +0.000 A 
ATOM     10  H   UNL     1       0.601   8.366  20.598  0.00  0.00    +0.000 HD
ENDROOT
BRANCH   3  11
ATOM     11  C   UNL     1       5.153   5.778  17.121  0.00  0.00    +0.000 A 
ATOM     12  C   UNL     1       4.995   5.508  15.738  0.00  0.00    +0.000 A 
ATOM     13  C   UNL     1       5.934   4.774  15.006  0.00  0.00    +0.000 A 
ATOM     14  C   UNL     1       7.083   4.313  15.628  0.00  0.00    +0.000 A 
ATOM     15  C   UNL     1       7.294   4.594  16.975  0.00  0.00    +0.000 A 
ATOM     16  C   UNL     1       6.342   5.311  17.720  0.00  0.00    +0.000 A 
ATOM     17 CL   UNL     1       6.710   5.506  19.402  0.00  0.00    +0.000 Cl
ENDBRANCH   3  11
BRANCH   7  18
ATOM     18  C   UNL     1       0.307  10.849  19.249  0.00  0.00    +0.000 A 
ATOM     19  C   UNL     1      -1.067  10.915  19.489  0.00  0.00    +0.000 A 
ATOM     20  N   UNL     1      -1.469  12.153  19.746  0.00  0.00    +0.000 NA
ATOM     21  N   UNL     1      -0.339  12.906  19.698  0.00  0.00    +0.000 N 
ATOM     22  C   UNL     1       0.769  12.151  19.348  0.00  0.00    +0.000 A 
ATOM     23  C   UNL     1       2.158  12.642  19.137  0.00  0.00    +0.000 C 
BRANCH  21  24
ATOM     24  C   UNL     1      -0.452  14.339  20.048  0.00  0.00    +0.000 C 
ATOM     25  C   UNL     1       0.546  14.718  21.179  0.00  0.00    +0.000 C 
ATOM     26  C   UNL     1      -0.100  15.224  18.835  0.00  0.00    +0.000 C 
ATOM     27  C   UNL     1      -1.859  14.675  20.579  0.00  0.00    +0.000 C 
ENDBRANCH  21  24
ENDBRANCH   7  18
BRANCH   1  29
ATOM     28  C   UNL     1       1.426   4.581  20.486  0.00  0.00    +0.000 C 
ATOM     29  O   UNL     1       2.016   5.842  20.783  0.00  0.00    +0.000 OA
ENDBRANCH   1  29
TORSDOF 4
ENDMDL
MODEL 7
REMARK VINA RESULT:      -7.8      3.444      4.568
REMARK  Name = 
REMARK  9 active torsions:
REMARK  status: ('A' for Active; 'I' for Inactive)
REMARK    1  A    between atoms: C_1  and  O_2
REMARK    2  A    between atoms: O_2  and  C_3
REMARK    3  A    between atoms: C_5  and  C_6
REMARK    4  A    between atoms: C_16  and  C_17
REMARK    5  A    between atoms: N_20  and  C_21
REMARK    6  A    between atoms: C_21  and  C_22
REMARK    7  A    between atoms: C_21  and  C_23
REMARK    8  A    between atoms: C_21  and  C_24
REMARK    9  A    between atoms: C_25  and  C_26
REMARK                            x       y       z     vdW  Elec       q    Type
REMARK                         _______ _______ _______ _____ _____    ______ ____
ROOT
ATOM      1  C   UNL     1       1.476   8.453  20.480  0.00  0.00    +0.000 A 
ATOM      2  N   UNL     1       1.954   7.317  19.913  0.00  0.00    +0.000 NA
ATOM      3  C   UNL     1       2.268   7.286  18.587  0.00  0.00    +0.000 A 
ATOM      4  C   UNL     1       2.149   8.412  17.767  0.00  0.00    +0.000 A 
ATOM      5  C   UNL     1       1.715   9.590  18.363  0.00  0.00    +0.000 A 
ATOM      6  N   UNL     1       1.546  10.837  17.821  0.00  0.00    +0.000 NA
ATOM      7  C   UNL     1       1.156  11.606  18.818  0.00  0.00    +0.000 A 
ATOM      8  N   UNL     1       1.003  10.872  19.968  0.00  0.00    +0.000 N 
ATOM      9  C   UNL     1       1.388   9.588  19.703  0.00  0.00    +0.000 A 
ATOM     10  H   UNL     1       0.704  11.220  20.867  0.00  0.00    +0.000 HD
ENDROOT
BRANCH   3  11
ATOM     11  C   UNL     1       2.767   6.001  18.034  0.00  0.00    +0.000 A 
ATOM     12  C   UNL     1       1.919   4.865  18.063  0.00  0.00    +0.000 A 
ATOM     13  C   UNL     1       2.348   3.600  17.650  0.00  0.00    +0.000 A 
ATOM     14  C   UNL     1       3.634   3.435  17.161  0.00  0.00    +0.000 A 
ATOM     15  C   UNL     1       4.483   4.535  17.078  0.00  0.00    +0.000 A 
ATOM     16  C   UNL     1       4.063   5.805  17.514  0.00  0.00    +0.000 A 
ATOM     17 CL   UNL     1       5.262   7.053  17.425  0.00  0.00    +0.000 Cl
ENDBRANCH   3  11
BRANCH   7  18
ATOM     18  C   UNL     1       0.954  13.070  18.725  0.00  0.00    +0.000 A 
ATOM     19  C   UNL     1      -0.251  13.774  18.787  0.00  0.00    +0.000 A 
ATOM     20  N   UNL     1      -0.067  15.086  18.715  0.00  0.00    +0.000 NA
ATOM     21  N   UNL     1       1.280  15.246  18.630  0.00  0.00    +0.000 N 
ATOM     22  C   UNL     1       1.942  14.030  18.584  0.00  0.00    +0.000 A 
ATOM     23  C   UNL     1       3.407  13.811  18.428  0.00  0.00    +0.000 C 
BRANCH  21  24
ATOM     24  C   UNL     1       1.810  16.627  18.636  0.00  0.00    +0.000 C 
ATOM     25  C   UNL     1       0.656  17.668  18.552  0.00  0.00    +0.000 C 
ATOM     26  C   UNL     1       2.565  16.914  19.949  0.00  0.00    +0.000 C 
ATOM     27  C   UNL     1       2.716  16.884  17.418  0.00  0.00    +0.000 C 
ENDBRANCH  21  24
ENDBRANCH   7  18
BRANCH   1  29
ATOM     28  C   UNL     1      -0.324   8.515  21.965  0.00  0.00    +0.000 C 
ATOM     29  O   UNL     1       1.090   8.502  21.801  0.00  0.00    +0.000 OA
ENDBRANCH   1  29
TORSDOF 4
ENDMDL
MODEL 8
REMARK VINA RESULT:      -7.7      2.128      2.670
REMARK  Name = 
REMARK  9 active torsions:
REMARK  status: ('A' for Active; 'I' for Inactive)
REMARK    1  A    between atoms: C_1  and  O_2
REMARK    2  A    between atoms: O_2  and  C_3
REMARK    3  A    between atoms: C_5  and  C_6
REMARK    4  A    between atoms: C_16  and  C_17
REMARK    5  A    between atoms: N_20  and  C_21
REMARK    6  A    between atoms: C_21  and  C_22
REMARK    7  A    between atoms: C_21  and  C_23
REMARK    8  A    between atoms: C_21  and  C_24
REMARK    9  A    between atoms: C_25  and  C_26
REMARK                            x       y       z     vdW  Elec       q    Type
REMARK                         _______ _______ _______ _____ _____    ______ ____
ROOT
ATOM      1  C   UNL     1       2.392   6.556  19.824  0.00  0.00    +0.000 A 
ATOM      2  N   UNL     1       3.342   5.927  19.088  0.00  0.00    +0.000 NA
ATOM      3  C   UNL     1       3.791   6.476  17.925  0.00  0.00    +0.000 A 
ATOM      4  C   UNL     1       3.331   7.710  17.456  0.00  0.00    +0.000 A 
ATOM      5  C   UNL     1       2.401   8.381  18.241  0.00  0.00    +0.000 A 
ATOM      6  N   UNL     1       1.814   9.605  18.054  0.00  0.00    +0.000 NA
ATOM      7  C   UNL     1       1.042   9.792  19.105  0.00  0.00    +0.000 A 
ATOM      8  N   UNL     1       1.062   8.692  19.925  0.00  0.00    +0.000 N 
ATOM      9  C   UNL     1       1.951   7.794  19.406  0.00  0.00    +0.000 A 
ATOM     10  H   UNL     1       0.549   8.576  20.787  0.00  0.00    +0.000 HD
ENDROOT
BRANCH   3  11
ATOM     11  C   UNL     1       4.818   5.718  17.165  0.00  0.00    +0.000 A 
ATOM     12  C   UNL     1       6.052   6.346  16.862  0.00  0.00    +0.000 A 
ATOM     13  C   UNL     1       7.030   5.735  16.070  0.00  0.00    +0.000 A 
ATOM     14  C   UNL     1       6.818   4.456  15.581  0.00  0.00    +0.000 A 
ATOM     15  C   UNL     1       5.636   3.790  15.891  0.00  0.00    +0.000 A 
ATOM     16  C   UNL     1       4.641   4.410  16.668  0.00  0.00    +0.000 A 
ATOM     17 CL   UNL     1       3.195   3.484  16.896  0.00  0.00    +0.000 Cl
ENDBRANCH   3  11
BRANCH   7  18
ATOM     18  C   UNL     1       0.288  11.034  19.388  0.00  0.00    +0.000 A 
ATOM     19  C   UNL     1      -1.054  11.158  19.756  0.00  0.00    +0.000 A 
ATOM     20  N   UNL     1      -1.396  12.420  19.978  0.00  0.00    +0.000 NA
ATOM     21  N   UNL     1      -0.257  13.133  19.775  0.00  0.00    +0.000 N 
ATOM     22  C   UNL     1       0.790  12.325  19.364  0.00  0.00    +0.000 A 
ATOM     23  C   UNL     1       2.165  12.759  18.990  0.00  0.00    +0.000 C 
BRANCH  21  24
ATOM     24  C   UNL     1      -0.298  14.586  20.049  0.00  0.00    +0.000 C 
ATOM     25  C   UNL     1      -1.694  15.014  20.585  0.00  0.00    +0.000 C 
ATOM     26  C   UNL     1       0.726  14.964  21.138  0.00  0.00    +0.000 C 
ATOM     27  C   UNL     1      -0.057  15.403  18.765  0.00  0.00    +0.000 C 
ENDBRANCH  21  24
ENDBRANCH   7  18
BRANCH   1  29
ATOM     28  C   UNL     1       1.620   4.606  20.846  0.00  0.00    +0.000 C 
ATOM     29  O   UNL     1       1.871   6.001  20.971  0.00  0.00    +0.000 OA
ENDBRANCH   1  29
TORSDOF 4
ENDMDL
MODEL 9
REMARK VINA RESULT:      -7.7      1.497      2.084
REMARK  Name = 
REMARK  9 active torsions:
REMARK  status: ('A' for Active; 'I' for Inactive)
REMARK    1  A    between atoms: C_1  and  O_2
REMARK    2  A    between atoms: O_2  and  C_3
REMARK    3  A    between atoms: C_5  and  C_6
REMARK    4  A    between atoms: C_16  and  C_17
REMARK    5  A    between atoms: N_20  and  C_21
REMARK    6  A    between atoms: C_21  and  C_22
REMARK    7  A    between atoms: C_21  and  C_23
REMARK    8  A    between atoms: C_21  and  C_24
REMARK    9  A    between atoms: C_25  and  C_26
REMARK                            x       y       z     vdW  Elec       q    Type
REMARK                         _______ _______ _______ _____ _____    ______ ____
ROOT
ATOM      1  C   UNL     1       2.404   6.174  20.021  0.00  0.00    +0.000 A 
ATOM      2  N   UNL     1       3.348   5.634  19.211  0.00  0.00    +0.000 NA
ATOM      3  C   UNL     1       3.763   6.296  18.095  0.00  0.00    +0.000 A 
ATOM      4  C   UNL     1       3.271   7.559  17.752  0.00  0.00    +0.000 A 
ATOM      5  C   UNL     1       2.347   8.137  18.614  0.00  0.00    +0.000 A 
ATOM      6  N   UNL     1       1.735   9.362  18.553  0.00  0.00    +0.000 NA
ATOM      7  C   UNL     1       0.982   9.435  19.631  0.00  0.00    +0.000 A 
ATOM      8  N   UNL     1       1.038   8.265  20.346  0.00  0.00    +0.000 N 
ATOM      9  C   UNL     1       1.932   7.436  19.728  0.00  0.00    +0.000 A 
ATOM     10  H   UNL     1       0.547   8.060  21.203  0.00  0.00    +0.000 HD
ENDROOT
BRANCH   3  11
ATOM     11  C   UNL     1       4.787   5.631  17.248  0.00  0.00    +0.000 A 
ATOM     12  C   UNL     1       5.995   6.317  16.964  0.00  0.00    +0.000 A 
ATOM     13  C   UNL     1       6.964   5.800  16.100  0.00  0.00    +0.000 A 
ATOM     14  C   UNL     1       6.772   4.559  15.514  0.00  0.00    +0.000 A 
ATOM     15  C   UNL     1       5.617   3.837  15.800  0.00  0.00    +0.000 A 
ATOM     16  C   UNL     1       4.629   4.364  16.651  0.00  0.00    +0.000 A 
ATOM     17 CL   UNL     1       3.215   3.381  16.842  0.00  0.00    +0.000 Cl
ENDBRANCH   3  11
BRANCH   7  18
ATOM     18  C   UNL     1       0.213  10.632  20.043  0.00  0.00    +0.000 A 
ATOM     19  C   UNL     1      -0.241  11.678  19.236  0.00  0.00    +0.000 A 
ATOM     20  N   UNL     1      -0.941  12.571  19.924  0.00  0.00    +0.000 NA
ATOM     21  N   UNL     1      -0.966  12.092  21.196  0.00  0.00    +0.000 N 
ATOM     22  C   UNL     1      -0.228  10.926  21.323  0.00  0.00    +0.000 A 
ATOM     23  C   UNL     1       0.024  10.154  22.571  0.00  0.00    +0.000 C 
BRANCH  21  24
ATOM     24  C   UNL     1      -1.770  12.831  22.193  0.00  0.00    +0.000 C 
ATOM     25  C   UNL     1      -2.883  13.670  21.502  0.00  0.00    +0.000 C 
ATOM     26  C   UNL     1      -2.483  11.855  23.149  0.00  0.00    +0.000 C 
ATOM     27  C   UNL     1      -0.901  13.830  22.981  0.00  0.00    +0.000 C 
ENDBRANCH  21  24
ENDBRANCH   7  18
BRANCH   1  29
ATOM     28  C   UNL     1       1.455   4.195  20.813  0.00  0.00    +0.000 C 
ATOM     29  O   UNL     1       1.916   5.505  21.121  0.00  0.00    +0.000 OA
ENDBRANCH   1  29
TORSDOF 4
ENDMDL
