MODEL 1
REMARK VINA RESULT:      -6.7      0.000      0.000
REMARK  Name = 
REMARK  6 active torsions:
REMARK  status: ('A' for Active; 'I' for Inactive)
REMARK    1  A    between atoms: C_1  and  N_2
REMARK    2  A    between atoms: N_2  and  C_3
REMARK    3  A    between atoms: N_2  and  C_15
REMARK    4  A    between atoms: C_3  and  C_4
REMARK    5  A    between atoms: N_6  and  C_7
REMARK    6  A    between atoms: C_15  and  C_16
REMARK                            x       y       z     vdW  Elec       q    Type
REMARK                         _______ _______ _______ _____ _____    ______ ____
ROOT
ATOM      1  C   UNL     1       7.007   4.494  17.142  0.00  0.00    +0.000 C 
ATOM      2  O   UNL     1       8.195   4.184  17.054  0.00  0.00    +0.000 OA
ATOM      3  N   UNL     1       6.157   4.725  16.070  0.00  0.00    +0.000 N 
ATOM      4  H   UNL     1       5.255   5.134  16.281  0.00  0.00    +0.000 HD
ENDROOT
BRANCH   3   5
ATOM      5  C   UNL     1       6.507   4.590  14.708  0.00  0.00    +0.000 A 
ATOM      6  C   UNL     1       7.411   5.449  14.072  0.00  0.00    +0.000 A 
ATOM      7  C   UNL     1       7.684   5.311  12.710  0.00  0.00    +0.000 A 
ATOM      8 CL   UNL     1       8.791   6.391  11.953  0.00  0.00    +0.000 Cl
ATOM      9  C   UNL     1       7.071   4.315  11.962  0.00  0.00    +0.000 A 
ATOM     10  C   UNL     1       6.198   3.438  12.598  0.00  0.00    +0.000 A 
ATOM     11 CL   UNL     1       5.426   2.202  11.677  0.00  0.00    +0.000 Cl
ATOM     12  C   UNL     1       5.925   3.558  13.964  0.00  0.00    +0.000 A 
ENDBRANCH   3   5
BRANCH   1  13
ATOM     13  C   UNL     1       6.372   4.677  18.522  0.00  0.00    +0.000 C 
BRANCH  13  15
ATOM     14  C   UNL     1       4.257   5.675  19.006  0.00  0.00    +0.000 C 
ATOM     15  N   UNL     1       4.905   4.449  18.511  0.00  0.00    +0.000 NA
BRANCH  15  16
ATOM     16  C   UNL     1       4.538   3.297  19.378  0.00  0.00    +0.000 C 
BRANCH  16  17
ATOM     17  C   UNL     1       3.048   3.059  19.412  0.00  0.00    +0.000 A 
ATOM     18  C   UNL     1       2.169   3.287  20.454  0.00  0.00    +0.000 A 
ATOM     19  C   UNL     1       0.835   2.900  20.137  0.00  0.00    +0.000 A 
ATOM     20  C   UNL     1       0.733   2.415  18.854  0.00  0.00    +0.000 A 
ATOM     21  S   UNL     1       2.235   2.432  18.037  0.00  0.00    +0.000 S 
ENDBRANCH  16  17
ENDBRANCH  15  16
ENDBRANCH  13  15
ENDBRANCH   1  13
TORSDOF 5
ENDMDL
MODEL 2
REMARK VINA RESULT:      -6.6      0.759      2.219
REMARK  Name = 
REMARK  6 active torsions:
REMARK  status: ('A' for Active; 'I' for Inactive)
REMARK    1  A    between atoms: C_1  and  N_2
REMARK    2  A    between atoms: N_2  and  C_3
REMARK    3  A    between atoms: N_2  and  C_15
REMARK    4  A    between atoms: C_3  and  C_4
REMARK    5  A    between atoms: N_6  and  C_7
REMARK    6  A    between atoms: C_15  and  C_16
REMARK                            x       y       z     vdW  Elec       q    Type
REMARK                         _______ _______ _______ _____ _____    ______ ____
ROOT
ATOM      1  C   UNL     1       6.900   4.516  17.146  0.00  0.00    +0.000 C 
ATOM      2  O   UNL     1       8.118   4.383  17.019  0.00  0.00    +0.000 OA
ATOM      3  N   UNL     1       5.989   4.594  16.103  0.00  0.00    +0.000 N 
ATOM      4  H   UNL     1       5.044   4.871  16.341  0.00  0.00    +0.000 HD
ENDROOT
BRANCH   3   5
ATOM      5  C   UNL     1       6.307   4.479  14.731  0.00  0.00    +0.000 A 
ATOM      6  C   UNL     1       5.720   3.521  13.898  0.00  0.00    +0.000 A 
ATOM      7  C   UNL     1       6.107   3.409  12.561  0.00  0.00    +0.000 A 
ATOM      8 CL   UNL     1       5.375   2.212  11.564  0.00  0.00    +0.000 Cl
ATOM      9  C   UNL     1       7.076   4.250  12.031  0.00  0.00    +0.000 A 
ATOM     10  C   UNL     1       7.637   5.227  12.848  0.00  0.00    +0.000 A 
ATOM     11 CL   UNL     1       8.845   6.273  12.203  0.00  0.00    +0.000 Cl
ATOM     12  C   UNL     1       7.249   5.357  14.185  0.00  0.00    +0.000 A 
ENDBRANCH   3   5
BRANCH   1  13
ATOM     13  C   UNL     1       6.294   4.637  18.546  0.00  0.00    +0.000 C 
BRANCH  13  15
ATOM     14  C   UNL     1       4.195   5.645  19.073  0.00  0.00    +0.000 C 
ATOM     15  N   UNL     1       4.826   4.421  18.554  0.00  0.00    +0.000 NA
BRANCH  15  16
ATOM     16  C   UNL     1       4.462   3.261  19.410  0.00  0.00    +0.000 C 
BRANCH  16  17
ATOM     17  C   UNL     1       2.971   3.032  19.460  0.00  0.00    +0.000 A 
ATOM     18  C   UNL     1       2.132   2.633  18.436  0.00  0.00    +0.000 A 
ATOM     19  C   UNL     1       0.769   2.563  18.844  0.00  0.00    +0.000 A 
ATOM     20  C   UNL     1       0.614   2.886  20.173  0.00  0.00    +0.000 A 
ATOM     21  S   UNL     1       2.104   3.262  20.922  0.00  0.00    +0.000 S 
ENDBRANCH  16  17
ENDBRANCH  15  16
ENDBRANCH  13  15
ENDBRANCH   1  13
TORSDOF 5
ENDMDL
MODEL 3
REMARK VINA RESULT:      -6.5      6.247      7.314
REMARK  Name = 
REMARK  6 active torsions:
REMARK  status: ('A' for Active; 'I' for Inactive)
REMARK    1  A    between atoms: C_1  and  N_2
REMARK    2  A    between atoms: N_2  and  C_3
REMARK    3  A    between atoms: N_2  and  C_15
REMARK    4  A    between atoms: C_3  and  C_4
REMARK    5  A    between atoms: N_6  and  C_7
REMARK    6  A    between atoms: C_15  and  C_16
REMARK                            x       y       z     vdW  Elec       q    Type
REMARK                         _______ _______ _______ _____ _____    ______ ____
ROOT
ATOM      1  C   UNL     1       1.950   8.538  18.425  0.00  0.00    +0.000 C 
ATOM      2  O   UNL     1       2.169   8.891  17.266  0.00  0.00    +0.000 OA
ATOM      3  N   UNL     1       2.293   7.308  18.967  0.00  0.00    +0.000 N 
ATOM      4  H   UNL     1       1.907   7.085  19.876  0.00  0.00    +0.000 HD
ENDROOT
BRANCH   3   5
ATOM      5  C   UNL     1       2.994   6.285  18.290  0.00  0.00    +0.000 A 
ATOM      6  C   UNL     1       4.199   6.514  17.616  0.00  0.00    +0.000 A 
ATOM      7  C   UNL     1       4.827   5.484  16.914  0.00  0.00    +0.000 A 
ATOM      8 CL   UNL     1       6.303   5.800  16.085  0.00  0.00    +0.000 Cl
ATOM      9  C   UNL     1       4.273   4.211  16.876  0.00  0.00    +0.000 A 
ATOM     10  C   UNL     1       3.093   3.972  17.573  0.00  0.00    +0.000 A 
ATOM     11 CL   UNL     1       2.393   2.397  17.529  0.00  0.00    +0.000 Cl
ATOM     12  C   UNL     1       2.460   4.992  18.290  0.00  0.00    +0.000 A 
ENDBRANCH   3   5
BRANCH   1  13
ATOM     13  C   UNL     1       1.221   9.486  19.381  0.00  0.00    +0.000 C 
BRANCH  13  15
ATOM     14  C   UNL     1       0.988  11.815  18.914  0.00  0.00    +0.000 C 
ATOM     15  N   UNL     1       0.394  10.491  18.668  0.00  0.00    +0.000 NA
BRANCH  15  16
ATOM     16  C   UNL     1      -1.011  10.468  19.156  0.00  0.00    +0.000 C 
BRANCH  16  17
ATOM     17  C   UNL     1      -2.010  10.501  18.025  0.00  0.00    +0.000 A 
ATOM     18  C   UNL     1      -1.947   9.847  16.809  0.00  0.00    +0.000 A 
ATOM     19  C   UNL     1      -3.055  10.151  15.968  0.00  0.00    +0.000 A 
ATOM     20  C   UNL     1      -3.943  11.008  16.578  0.00  0.00    +0.000 A 
ATOM     21  S   UNL     1      -3.443  11.434  18.157  0.00  0.00    +0.000 S 
ENDBRANCH  16  17
ENDBRANCH  15  16
ENDBRANCH  13  15
ENDBRANCH   1  13
TORSDOF 5
ENDMDL
MODEL 4
REMARK VINA RESULT:      -6.4      5.787      8.429
REMARK  Name = 
REMARK  6 active torsions:
REMARK  status: ('A' for Active; 'I' for Inactive)
REMARK    1  A    between atoms: C_1  and  N_2
REMARK    2  A    between atoms: N_2  and  C_3
REMARK    3  A    between atoms: N_2  and  C_15
REMARK    4  A    between atoms: C_3  and  C_4
REMARK    5  A    between atoms: N_6  and  C_7
REMARK    6  A    between atoms: C_15  and  C_16
REMARK                            x       y       z     vdW  Elec       q    Type
REMARK                         _______ _______ _______ _____ _____    ______ ____
ROOT
ATOM      1  C   UNL     1       2.238   5.569  20.192  0.00  0.00    +0.000 C 
ATOM      2  O   UNL     1       1.148   5.157  20.591  0.00  0.00    +0.000 OA
ATOM      3  N   UNL     1       2.566   6.902  19.991  0.00  0.00    +0.000 N 
ATOM      4  H   UNL     1       3.433   7.091  19.504  0.00  0.00    +0.000 HD
ENDROOT
BRANCH   3   5
ATOM      5  C   UNL     1       1.719   8.001  20.262  0.00  0.00    +0.000 A 
ATOM      6  C   UNL     1       1.337   8.920  19.279  0.00  0.00    +0.000 A 
ATOM      7  C   UNL     1       0.544  10.021  19.606  0.00  0.00    +0.000 A 
ATOM      8 CL   UNL     1       0.099  11.141  18.377  0.00  0.00    +0.000 Cl
ATOM      9  C   UNL     1       0.113  10.222  20.911  0.00  0.00    +0.000 A 
ATOM     10  C   UNL     1       0.463   9.291  21.884  0.00  0.00    +0.000 A 
ATOM     11 CL   UNL     1      -0.062   9.533  23.509  0.00  0.00    +0.000 Cl
ATOM     12  C   UNL     1       1.247   8.178  21.567  0.00  0.00    +0.000 A 
ENDBRANCH   3   5
BRANCH   1  13
ATOM     13  C   UNL     1       3.347   4.572  19.852  0.00  0.00    +0.000 C 
BRANCH  13  15
ATOM     14  C   UNL     1       3.007   3.942  17.574  0.00  0.00    +0.000 C 
ATOM     15  N   UNL     1       3.862   4.738  18.470  0.00  0.00    +0.000 NA
BRANCH  15  16
ATOM     16  C   UNL     1       5.272   4.277  18.366  0.00  0.00    +0.000 C 
BRANCH  16  17
ATOM     17  C   UNL     1       6.239   5.425  18.210  0.00  0.00    +0.000 A 
ATOM     18  C   UNL     1       7.387   5.682  18.936  0.00  0.00    +0.000 A 
ATOM     19  C   UNL     1       8.028   6.888  18.534  0.00  0.00    +0.000 A 
ATOM     20  C   UNL     1       7.364   7.501  17.496  0.00  0.00    +0.000 A 
ATOM     21  S   UNL     1       5.982   6.621  17.007  0.00  0.00    +0.000 S 
ENDBRANCH  16  17
ENDBRANCH  15  16
ENDBRANCH  13  15
ENDBRANCH   1  13
TORSDOF 5
ENDMDL
MODEL 5
REMARK VINA RESULT:      -6.4      1.729      1.918
REMARK  Name = 
REMARK  6 active torsions:
REMARK  status: ('A' for Active; 'I' for Inactive)
REMARK    1  A    between atoms: C_1  and  N_2
REMARK    2  A    between atoms: N_2  and  C_3
REMARK    3  A    between atoms: N_2  and  C_15
REMARK    4  A    between atoms: C_3  and  C_4
REMARK    5  A    between atoms: N_6  and  C_7
REMARK    6  A    between atoms: C_15  and  C_16
REMARK                            x       y       z     vdW  Elec       q    Type
REMARK                         _______ _______ _______ _____ _____    ______ ____
ROOT
ATOM      1  C   UNL     1       4.874   5.731  16.639  0.00  0.00    +0.000 C 
ATOM      2  O   UNL     1       4.865   6.828  16.080  0.00  0.00    +0.000 OA
ATOM      3  N   UNL     1       5.354   4.553  16.085  0.00  0.00    +0.000 N 
ATOM      4  H   UNL     1       5.149   3.696  16.585  0.00  0.00    +0.000 HD
ENDROOT
BRANCH   3   5
ATOM      5  C   UNL     1       5.955   4.435  14.812  0.00  0.00    +0.000 A 
ATOM      6  C   UNL     1       7.090   5.165  14.442  0.00  0.00    +0.000 A 
ATOM      7  C   UNL     1       7.615   5.058  13.153  0.00  0.00    +0.000 A 
ATOM      8 CL   UNL     1       9.006   5.978  12.725  0.00  0.00    +0.000 Cl
ATOM      9  C   UNL     1       7.027   4.220  12.216  0.00  0.00    +0.000 A 
ATOM     10  C   UNL     1       5.918   3.466  12.590  0.00  0.00    +0.000 A 
ATOM     11 CL   UNL     1       5.176   2.427  11.433  0.00  0.00    +0.000 Cl
ATOM     12  C   UNL     1       5.390   3.556  13.882  0.00  0.00    +0.000 A 
ENDBRANCH   3   5
BRANCH   1  13
ATOM     13  C   UNL     1       4.300   5.595  18.051  0.00  0.00    +0.000 C 
BRANCH  13  15
ATOM     14  C   UNL     1       2.493   6.459  19.350  0.00  0.00    +0.000 C 
ATOM     15  N   UNL     1       2.828   5.777  18.089  0.00  0.00    +0.000 NA
BRANCH  15  16
ATOM     16  C   UNL     1       2.127   4.467  18.021  0.00  0.00    +0.000 C 
BRANCH  16  17
ATOM     17  C   UNL     1       2.071   3.776  19.362  0.00  0.00    +0.000 A 
ATOM     18  C   UNL     1       1.007   3.701  20.241  0.00  0.00    +0.000 A 
ATOM     19  C   UNL     1       1.337   3.000  21.437  0.00  0.00    +0.000 A 
ATOM     20  C   UNL     1       2.634   2.540  21.421  0.00  0.00    +0.000 A 
ATOM     21  S   UNL     1       3.443   2.946  19.970  0.00  0.00    +0.000 S 
ENDBRANCH  16  17
ENDBRANCH  15  16
ENDBRANCH  13  15
ENDBRANCH   1  13
TORSDOF 5
ENDMDL
MODEL 6
REMARK VINA RESULT:      -6.4      6.308      7.656
REMARK  Name = 
REMARK  6 active torsions:
REMARK  status: ('A' for Active; 'I' for Inactive)
REMARK    1  A    between atoms: C_1  and  N_2
REMARK    2  A    between atoms: N_2  and  C_3
REMARK    3  A    between atoms: N_2  and  C_15
REMARK    4  A    between atoms: C_3  and  C_4
REMARK    5  A    between atoms: N_6  and  C_7
REMARK    6  A    between atoms: C_15  and  C_16
REMARK                            x       y       z     vdW  Elec       q    Type
REMARK                         _______ _______ _______ _____ _____    ______ ____
ROOT
ATOM      1  C   UNL     1       1.770   8.654  18.489  0.00  0.00    +0.000 C 
ATOM      2  O   UNL     1       1.780   8.930  17.289  0.00  0.00    +0.000 OA
ATOM      3  N   UNL     1       2.272   7.487  19.048  0.00  0.00    +0.000 N 
ATOM      4  H   UNL     1       2.050   7.313  20.020  0.00  0.00    +0.000 HD
ENDROOT
BRANCH   3   5
ATOM      5  C   UNL     1       2.920   6.454  18.334  0.00  0.00    +0.000 A 
ATOM      6  C   UNL     1       2.389   5.164  18.224  0.00  0.00    +0.000 A 
ATOM      7  C   UNL     1       3.093   4.161  17.555  0.00  0.00    +0.000 A 
ATOM      8 CL   UNL     1       2.420   2.581  17.447  0.00  0.00    +0.000 Cl
ATOM      9  C   UNL     1       4.329   4.426  16.980  0.00  0.00    +0.000 A 
ATOM     10  C   UNL     1       4.844   5.716  17.057  0.00  0.00    +0.000 A 
ATOM     11 CL   UNL     1       6.380   6.054  16.352  0.00  0.00    +0.000 Cl
ATOM     12  C   UNL     1       4.143   6.732  17.714  0.00  0.00    +0.000 A 
ENDBRANCH   3   5
BRANCH   1  13
ATOM     13  C   UNL     1       1.143   9.631  19.487  0.00  0.00    +0.000 C 
BRANCH  13  15
ATOM     14  C   UNL     1       1.025  11.993  19.160  0.00  0.00    +0.000 C 
ATOM     15  N   UNL     1       0.378  10.715  18.821  0.00  0.00    +0.000 NA
BRANCH  15  16
ATOM     16  C   UNL     1      -1.037  10.727  19.278  0.00  0.00    +0.000 C 
BRANCH  16  17
ATOM     17  C   UNL     1      -2.010  10.626  18.129  0.00  0.00    +0.000 A 
ATOM     18  C   UNL     1      -1.889   9.888  16.967  0.00  0.00    +0.000 A 
ATOM     19  C   UNL     1      -2.991  10.074  16.085  0.00  0.00    +0.000 A 
ATOM     20  C   UNL     1      -3.933  10.928  16.613  0.00  0.00    +0.000 A 
ATOM     21  S   UNL     1      -3.490  11.494  18.165  0.00  0.00    +0.000 S 
ENDBRANCH  16  17
ENDBRANCH  15  16
ENDBRANCH  13  15
ENDBRANCH   1  13
TORSDOF 5
ENDMDL
MODEL 7
REMARK VINA RESULT:      -6.3      5.270      7.860
REMARK  Name = 
REMARK  6 active torsions:
REMARK  status: ('A' for Active; 'I' for Inactive)
REMARK    1  A    between atoms: C_1  and  N_2
REMARK    2  A    between atoms: N_2  and  C_3
REMARK    3  A    between atoms: N_2  and  C_15
REMARK    4  A    between atoms: C_3  and  C_4
REMARK    5  A    between atoms: N_6  and  C_7
REMARK    6  A    between atoms: C_15  and  C_16
REMARK                            x       y       z     vdW  Elec       q    Type
REMARK                         _______ _______ _______ _____ _____    ______ ____
ROOT
ATOM      1  C   UNL     1       2.292   5.140  19.733  0.00  0.00    +0.000 C 
ATOM      2  O   UNL     1       1.844   5.209  18.588  0.00  0.00    +0.000 OA
ATOM      3  N   UNL     1       2.291   6.175  20.657  0.00  0.00    +0.000 N 
ATOM      4  H   UNL     1       2.838   6.038  21.498  0.00  0.00    +0.000 HD
ENDROOT
BRANCH   3   5
ATOM      5  C   UNL     1       1.728   7.454  20.449  0.00  0.00    +0.000 A 
ATOM      6  C   UNL     1       1.973   8.208  19.296  0.00  0.00    +0.000 A 
ATOM      7  C   UNL     1       1.439   9.491  19.160  0.00  0.00    +0.000 A 
ATOM      8 CL   UNL     1       1.769  10.399  17.735  0.00  0.00    +0.000 Cl
ATOM      9  C   UNL     1       0.650  10.040  20.161  0.00  0.00    +0.000 A 
ATOM     10  C   UNL     1       0.376   9.280  21.294  0.00  0.00    +0.000 A 
ATOM     11 CL   UNL     1      -0.599   9.954  22.546  0.00  0.00    +0.000 Cl
ATOM     12  C   UNL     1       0.895   7.989  21.437  0.00  0.00    +0.000 A 
ENDBRANCH   3   5
BRANCH   1  13
ATOM     13  C   UNL     1       2.936   3.840  20.218  0.00  0.00    +0.000 C 
BRANCH  13  15
ATOM     14  C   UNL     1       4.448   2.039  19.806  0.00  0.00    +0.000 C 
ATOM     15  N   UNL     1       3.957   3.321  19.274  0.00  0.00    +0.000 NA
BRANCH  15  16
ATOM     16  C   UNL     1       5.088   4.277  19.132  0.00  0.00    +0.000 C 
BRANCH  16  17
ATOM     17  C   UNL     1       5.546   4.413  17.701  0.00  0.00    +0.000 A 
ATOM     18  C   UNL     1       4.786   4.338  16.549  0.00  0.00    +0.000 A 
ATOM     19  C   UNL     1       5.571   4.471  15.368  0.00  0.00    +0.000 A 
ATOM     20  C   UNL     1       6.902   4.670  15.656  0.00  0.00    +0.000 A 
ATOM     21  S   UNL     1       7.198   4.702  17.340  0.00  0.00    +0.000 S 
ENDBRANCH  16  17
ENDBRANCH  15  16
ENDBRANCH  13  15
ENDBRANCH   1  13
TORSDOF 5
ENDMDL
MODEL 8
REMARK VINA RESULT:      -6.2      5.196      7.755
REMARK  Name = 
REMARK  6 active torsions:
REMARK  status: ('A' for Active; 'I' for Inactive)
REMARK    1  A    between atoms: C_1  and  N_2
REMARK    2  A    between atoms: N_2  and  C_3
REMARK    3  A    between atoms: N_2  and  C_15
REMARK    4  A    between atoms: C_3  and  C_4
REMARK    5  A    between atoms: N_6  and  C_7
REMARK    6  A    between atoms: C_15  and  C_16
REMARK                            x       y       z     vdW  Elec       q    Type
REMARK                         _______ _______ _______ _____ _____    ______ ____
ROOT
ATOM      1  C   UNL     1       1.976   4.692  20.327  0.00  0.00    +0.000 C 
ATOM      2  O   UNL     1       0.757   4.515  20.322  0.00  0.00    +0.000 OA
ATOM      3  N   UNL     1       2.608   5.925  20.257  0.00  0.00    +0.000 N 
ATOM      4  H   UNL     1       3.608   5.918  20.102  0.00  0.00    +0.000 HD
ENDROOT
BRANCH   3   5
ATOM      5  C   UNL     1       1.953   7.177  20.221  0.00  0.00    +0.000 A 
ATOM      6  C   UNL     1       2.040   8.043  19.127  0.00  0.00    +0.000 A 
ATOM      7  C   UNL     1       1.421   9.294  19.160  0.00  0.00    +0.000 A 
ATOM      8 CL   UNL     1       1.557  10.344  17.802  0.00  0.00    +0.000 Cl
ATOM      9  C   UNL     1       0.700   9.699  20.275  0.00  0.00    +0.000 A 
ATOM     10  C   UNL     1       0.582   8.825  21.352  0.00  0.00    +0.000 A 
ATOM     11 CL   UNL     1      -0.306   9.319  22.744  0.00  0.00    +0.000 Cl
ATOM     12  C   UNL     1       1.188   7.565  21.326  0.00  0.00    +0.000 A 
ENDBRANCH   3   5
BRANCH   1  13
ATOM     13  C   UNL     1       2.916   3.486  20.390  0.00  0.00    +0.000 C 
BRANCH  13  15
ATOM     14  C   UNL     1       3.541   1.747  18.878  0.00  0.00    +0.000 C 
ATOM     15  N   UNL     1       3.571   3.204  19.089  0.00  0.00    +0.000 NA
BRANCH  15  16
ATOM     16  C   UNL     1       4.978   3.687  19.084  0.00  0.00    +0.000 C 
BRANCH  16  17
ATOM     17  C   UNL     1       5.232   4.699  17.993  0.00  0.00    +0.000 A 
ATOM     18  C   UNL     1       5.748   5.975  18.114  0.00  0.00    +0.000 A 
ATOM     19  C   UNL     1       5.805   6.661  16.868  0.00  0.00    +0.000 A 
ATOM     20  C   UNL     1       5.353   5.878  15.830  0.00  0.00    +0.000 A 
ATOM     21  S   UNL     1       4.873   4.324  16.358  0.00  0.00    +0.000 S 
ENDBRANCH  16  17
ENDBRANCH  15  16
ENDBRANCH  13  15
ENDBRANCH   1  13
TORSDOF 5
ENDMDL
MODEL 9
REMARK VINA RESULT:      -6.2      0.993      2.299
REMARK  Name = 
REMARK  6 active torsions:
REMARK  status: ('A' for Active; 'I' for Inactive)
REMARK    1  A    between atoms: C_1  and  N_2
REMARK    2  A    between atoms: N_2  and  C_3
REMARK    3  A    between atoms: N_2  and  C_15
REMARK    4  A    between atoms: C_3  and  C_4
REMARK    5  A    between atoms: N_6  and  C_7
REMARK    6  A    between atoms: C_15  and  C_16
REMARK                            x       y       z     vdW  Elec       q    Type
REMARK                         _______ _______ _______ _____ _____    ______ ____
ROOT
ATOM      1  C   UNL     1       6.123   4.601  17.150  0.00  0.00    +0.000 C 
ATOM      2  O   UNL     1       7.352   4.559  17.225  0.00  0.00    +0.000 OA
ATOM      3  N   UNL     1       5.390   4.563  15.972  0.00  0.00    +0.000 N 
ATOM      4  H   UNL     1       4.403   4.773  16.041  0.00  0.00    +0.000 HD
ENDROOT
BRANCH   3   5
ATOM      5  C   UNL     1       5.936   4.417  14.676  0.00  0.00    +0.000 A 
ATOM      6  C   UNL     1       5.449   3.486  13.753  0.00  0.00    +0.000 A 
ATOM      7  C   UNL     1       6.056   3.340  12.504  0.00  0.00    +0.000 A 
ATOM      8 CL   UNL     1       5.441   2.176  11.394  0.00  0.00    +0.000 Cl
ATOM      9  C   UNL     1       7.148   4.120  12.151  0.00  0.00    +0.000 A 
ATOM     10  C   UNL     1       7.613   5.072  13.054  0.00  0.00    +0.000 A 
ATOM     11 CL   UNL     1       8.973   6.043  12.629  0.00  0.00    +0.000 Cl
ATOM     12  C   UNL     1       7.007   5.236  14.304  0.00  0.00    +0.000 A 
ENDBRANCH   3   5
BRANCH   1  13
ATOM     13  C   UNL     1       5.290   4.731  18.426  0.00  0.00    +0.000 C 
BRANCH  13  15
ATOM     14  C   UNL     1       4.493   6.856  17.688  0.00  0.00    +0.000 C 
ATOM     15  N   UNL     1       4.072   5.555  18.233  0.00  0.00    +0.000 NA
BRANCH  15  16
ATOM     16  C   UNL     1       3.352   5.754  19.519  0.00  0.00    +0.000 C 
BRANCH  16  17
ATOM     17  C   UNL     1       2.396   4.625  19.820  0.00  0.00    +0.000 A 
ATOM     18  C   UNL     1       2.064   4.091  21.051  0.00  0.00    +0.000 A 
ATOM     19  C   UNL     1       1.156   2.999  20.944  0.00  0.00    +0.000 A 
ATOM     20  C   UNL     1       0.802   2.751  19.637  0.00  0.00    +0.000 A 
ATOM     21  S   UNL     1       1.556   3.834  18.550  0.00  0.00    +0.000 S 
ENDBRANCH  16  17
ENDBRANCH  15  16
ENDBRANCH  13  15
ENDBRANCH   1  13
TORSDOF 5
ENDMDL
