MODEL 1
REMARK VINA RESULT:      -7.3      0.000      0.000
REMARK  Name = 
REMARK  7 active torsions:
REMARK  status: ('A' for Active; 'I' for Inactive)
REMARK    1  A    between atoms: C_1  and  C_2
REMARK    2  A    between atoms: C_2  and  C_3
REMARK    3  A    between atoms: C_2  and  N_11
REMARK    4  A    between atoms: C_3  and  C_4
REMARK    5  A    between atoms: C_4  and  C_5
REMARK    6  A    between atoms: N_11  and  S_12
REMARK    7  A    between atoms: S_12  and  C_15
REMARK                            x       y       z     vdW  Elec       q    Type
REMARK                         _______ _______ _______ _____ _____    ______ ____
ROOT
ATOM      1  N   UNL     1       2.933   3.129  19.617  0.00  0.00    +0.000 NA
ATOM      2  H   UNL     1       3.210   2.246  20.061  0.00  0.00    +0.000 HD
ENDROOT
BRANCH   1   3
ATOM      3  S   UNL     1       3.317   2.998  17.983  0.00  0.00    +0.000 S 
ATOM      4  O   UNL     1       3.718   1.620  17.822  0.00  0.00    +0.000 OA
ATOM      5  O   UNL     1       2.245   3.571  17.216  0.00  0.00    +0.000 OA
BRANCH   3   6
ATOM      6  C   UNL     1       4.785   3.955  17.824  0.00  0.00    +0.000 A 
ATOM      7  C   UNL     1       5.434   4.452  18.957  0.00  0.00    +0.000 A 
ATOM      8  C   UNL     1       6.487   5.352  18.816  0.00  0.00    +0.000 A 
ATOM      9  C   UNL     1       6.930   5.707  17.544  0.00  0.00    +0.000 A 
ATOM     10  C   UNL     1       6.308   5.172  16.414  0.00  0.00    +0.000 A 
ATOM     11  C   UNL     1       5.222   4.308  16.556  0.00  0.00    +0.000 A 
ATOM     12  F   UNL     1       4.617   3.853  15.452  0.00  0.00    +0.000 F 
ENDBRANCH   3   6
ENDBRANCH   1   3
BRANCH   1  14
ATOM     13  C   UNL     1       1.357   2.913  21.419  0.00  0.00    +0.000 C 
ATOM     14  C   UNL     1       1.663   3.699  20.125  0.00  0.00    +0.000 C 
BRANCH  14  15
ATOM     15  C   UNL     1       1.674   5.196  20.511  0.00  0.00    +0.000 C 
BRANCH  15  16
ATOM     16  C   UNL     1       2.609   6.156  19.760  0.00  0.00    +0.000 C 
BRANCH  16  17
ATOM     17  C   UNL     1       2.114   7.560  19.523  0.00  0.00    +0.000 A 
ATOM     18  C   UNL     1       1.399   8.282  20.483  0.00  0.00    +0.000 A 
ATOM     19  C   UNL     1       0.804   9.498  20.159  0.00  0.00    +0.000 A 
ATOM     20  C   UNL     1       0.987  10.046  18.893  0.00  0.00    +0.000 A 
ATOM     21  C   UNL     1       1.770   9.383  17.952  0.00  0.00    +0.000 A 
ATOM     22  C   UNL     1       2.329   8.144  18.266  0.00  0.00    +0.000 A 
ENDBRANCH  16  17
ENDBRANCH  15  16
ENDBRANCH  14  15
ENDBRANCH   1  14
TORSDOF 6
ENDMDL
MODEL 2
REMARK VINA RESULT:      -7.3      2.602      5.081
REMARK  Name = 
REMARK  7 active torsions:
REMARK  status: ('A' for Active; 'I' for Inactive)
REMARK    1  A    between atoms: C_1  and  C_2
REMARK    2  A    between atoms: C_2  and  C_3
REMARK    3  A    between atoms: C_2  and  N_11
REMARK    4  A    between atoms: C_3  and  C_4
REMARK    5  A    between atoms: C_4  and  C_5
REMARK    6  A    between atoms: N_11  and  S_12
REMARK    7  A    between atoms: S_12  and  C_15
REMARK                            x       y       z     vdW  Elec       q    Type
REMARK                         _______ _______ _______ _____ _____    ______ ____
ROOT
ATOM      1  N   UNL     1       6.018   4.020  17.561  0.00  0.00    +0.000 NA
ATOM      2  H   UNL     1       6.943   3.679  17.274  0.00  0.00    +0.000 HD
ENDROOT
BRANCH   1   3
ATOM      3  S   UNL     1       6.274   5.288  18.639  0.00  0.00    +0.000 S 
ATOM      4  O   UNL     1       6.334   4.647  19.931  0.00  0.00    +0.000 OA
ATOM      5  O   UNL     1       7.353   6.097  18.142  0.00  0.00    +0.000 OA
BRANCH   3   6
ATOM      6  C   UNL     1       4.756   6.175  18.605  0.00  0.00    +0.000 A 
ATOM      7  C   UNL     1       3.775   5.943  19.574  0.00  0.00    +0.000 A 
ATOM      8  C   UNL     1       2.513   6.515  19.437  0.00  0.00    +0.000 A 
ATOM      9  C   UNL     1       2.250   7.367  18.367  0.00  0.00    +0.000 A 
ATOM     10  C   UNL     1       3.248   7.633  17.426  0.00  0.00    +0.000 A 
ATOM     11  C   UNL     1       4.496   7.021  17.537  0.00  0.00    +0.000 A 
ATOM     12  F   UNL     1       5.413   7.259  16.591  0.00  0.00    +0.000 F 
ENDBRANCH   3   6
ENDBRANCH   1   3
BRANCH   1  14
ATOM     13  C   UNL     1       5.753   3.527  15.224  0.00  0.00    +0.000 C 
ATOM     14  C   UNL     1       5.011   4.049  16.475  0.00  0.00    +0.000 C 
BRANCH  14  15
ATOM     15  C   UNL     1       3.764   3.152  16.653  0.00  0.00    +0.000 C 
BRANCH  15  16
ATOM     16  C   UNL     1       3.716   2.161  17.826  0.00  0.00    +0.000 C 
BRANCH  16  17
ATOM     17  C   UNL     1       2.921   2.565  19.041  0.00  0.00    +0.000 A 
ATOM     18  C   UNL     1       3.438   2.507  20.338  0.00  0.00    +0.000 A 
ATOM     19  C   UNL     1       2.614   2.712  21.441  0.00  0.00    +0.000 A 
ATOM     20  C   UNL     1       1.279   3.058  21.257  0.00  0.00    +0.000 A 
ATOM     21  C   UNL     1       0.768   3.208  19.969  0.00  0.00    +0.000 A 
ATOM     22  C   UNL     1       1.586   2.960  18.867  0.00  0.00    +0.000 A 
ENDBRANCH  16  17
ENDBRANCH  15  16
ENDBRANCH  14  15
ENDBRANCH   1  14
TORSDOF 6
ENDMDL
MODEL 3
REMARK VINA RESULT:      -7.2      4.525      6.377
REMARK  Name = 
REMARK  7 active torsions:
REMARK  status: ('A' for Active; 'I' for Inactive)
REMARK    1  A    between atoms: C_1  and  C_2
REMARK    2  A    between atoms: C_2  and  C_3
REMARK    3  A    between atoms: C_2  and  N_11
REMARK    4  A    between atoms: C_3  and  C_4
REMARK    5  A    between atoms: C_4  and  C_5
REMARK    6  A    between atoms: N_11  and  S_12
REMARK    7  A    between atoms: S_12  and  C_15
REMARK                            x       y       z     vdW  Elec       q    Type
REMARK                         _______ _______ _______ _____ _____    ______ ____
ROOT
ATOM      1  N   UNL     1       7.159   6.133  16.419  0.00  0.00    +0.000 NA
ATOM      2  H   UNL     1       7.746   5.297  16.510  0.00  0.00    +0.000 HD
ENDROOT
BRANCH   1   3
ATOM      3  S   UNL     1       5.803   5.686  15.524  0.00  0.00    +0.000 S 
ATOM      4  O   UNL     1       5.233   6.941  15.096  0.00  0.00    +0.000 OA
ATOM      5  O   UNL     1       6.193   4.670  14.586  0.00  0.00    +0.000 OA
BRANCH   3   6
ATOM      6  C   UNL     1       4.703   5.037  16.734  0.00  0.00    +0.000 A 
ATOM      7  C   UNL     1       4.605   3.658  16.936  0.00  0.00    +0.000 A 
ATOM      8  C   UNL     1       3.609   3.146  17.764  0.00  0.00    +0.000 A 
ATOM      9  C   UNL     1       2.751   4.015  18.436  0.00  0.00    +0.000 A 
ATOM     10  C   UNL     1       2.883   5.395  18.266  0.00  0.00    +0.000 A 
ATOM     11  C   UNL     1       3.849   5.905  17.399  0.00  0.00    +0.000 A 
ATOM     12  F   UNL     1       3.916   7.230  17.221  0.00  0.00    +0.000 F 
ENDBRANCH   3   6
ENDBRANCH   1   3
BRANCH   1  14
ATOM     13  C   UNL     1       7.735   6.123  18.752  0.00  0.00    +0.000 C 
ATOM     14  C   UNL     1       7.106   6.981  17.632  0.00  0.00    +0.000 C 
BRANCH  14  15
ATOM     15  C   UNL     1       7.901   8.307  17.594  0.00  0.00    +0.000 C 
BRANCH  15  16
ATOM     16  C   UNL     1       8.710   8.730  18.829  0.00  0.00    +0.000 C 
BRANCH  16  17
ATOM     17  C   UNL     1       9.082  10.186  18.947  0.00  0.00    +0.000 A 
ATOM     18  C   UNL     1       8.992  11.080  17.876  0.00  0.00    +0.000 A 
ATOM     19  C   UNL     1       9.517  12.365  17.979  0.00  0.00    +0.000 A 
ATOM     20  C   UNL     1      10.066  12.799  19.182  0.00  0.00    +0.000 A 
ATOM     21  C   UNL     1      10.082  11.951  20.287  0.00  0.00    +0.000 A 
ATOM     22  C   UNL     1       9.594  10.649  20.169  0.00  0.00    +0.000 A 
ENDBRANCH  16  17
ENDBRANCH  15  16
ENDBRANCH  14  15
ENDBRANCH   1  14
TORSDOF 6
ENDMDL
MODEL 4
REMARK VINA RESULT:      -7.2      2.107      4.192
REMARK  Name = 
REMARK  7 active torsions:
REMARK  status: ('A' for Active; 'I' for Inactive)
REMARK    1  A    between atoms: C_1  and  C_2
REMARK    2  A    between atoms: C_2  and  C_3
REMARK    3  A    between atoms: C_2  and  N_11
REMARK    4  A    between atoms: C_3  and  C_4
REMARK    5  A    between atoms: C_4  and  C_5
REMARK    6  A    between atoms: N_11  and  S_12
REMARK    7  A    between atoms: S_12  and  C_15
REMARK                            x       y       z     vdW  Elec       q    Type
REMARK                         _______ _______ _______ _____ _____    ______ ____
ROOT
ATOM      1  N   UNL     1       3.857   5.163  17.426  0.00  0.00    +0.000 NA
ATOM      2  H   UNL     1       3.570   4.853  16.492  0.00  0.00    +0.000 HD
ENDROOT
BRANCH   1   3
ATOM      3  S   UNL     1       4.413   3.801  18.247  0.00  0.00    +0.000 S 
ATOM      4  O   UNL     1       4.321   2.739  17.274  0.00  0.00    +0.000 OA
ATOM      5  O   UNL     1       5.652   4.134  18.894  0.00  0.00    +0.000 OA
BRANCH   3   6
ATOM      6  C   UNL     1       3.151   3.487  19.432  0.00  0.00    +0.000 A 
ATOM      7  C   UNL     1       1.922   4.149  19.353  0.00  0.00    +0.000 A 
ATOM      8  C   UNL     1       1.001   4.030  20.390  0.00  0.00    +0.000 A 
ATOM      9  C   UNL     1       1.280   3.203  21.475  0.00  0.00    +0.000 A 
ATOM     10  C   UNL     1       2.490   2.507  21.527  0.00  0.00    +0.000 A 
ATOM     11  C   UNL     1       3.433   2.665  20.512  0.00  0.00    +0.000 A 
ATOM     12  F   UNL     1       4.603   2.022  20.619  0.00  0.00    +0.000 F 
ENDBRANCH   3   6
ENDBRANCH   1   3
BRANCH   1  14
ATOM     13  C   UNL     1       5.217   6.610  16.073  0.00  0.00    +0.000 C 
ATOM     14  C   UNL     1       4.537   6.479  17.454  0.00  0.00    +0.000 C 
BRANCH  14  15
ATOM     15  C   UNL     1       3.639   7.727  17.622  0.00  0.00    +0.000 C 
BRANCH  15  16
ATOM     16  C   UNL     1       2.155   7.539  17.971  0.00  0.00    +0.000 C 
BRANCH  16  17
ATOM     17  C   UNL     1       1.606   8.347  19.118  0.00  0.00    +0.000 A 
ATOM     18  C   UNL     1       1.078   9.631  18.955  0.00  0.00    +0.000 A 
ATOM     19  C   UNL     1       0.753  10.410  20.062  0.00  0.00    +0.000 A 
ATOM     20  C   UNL     1       0.876   9.884  21.344  0.00  0.00    +0.000 A 
ATOM     21  C   UNL     1       1.316   8.574  21.521  0.00  0.00    +0.000 A 
ATOM     22  C   UNL     1       1.682   7.810  20.413  0.00  0.00    +0.000 A 
ENDBRANCH  16  17
ENDBRANCH  15  16
ENDBRANCH  14  15
ENDBRANCH   1  14
TORSDOF 6
ENDMDL
MODEL 5
REMARK VINA RESULT:      -7.2      1.167      1.694
REMARK  Name = 
REMARK  7 active torsions:
REMARK  status: ('A' for Active; 'I' for Inactive)
REMARK    1  A    between atoms: C_1  and  C_2
REMARK    2  A    between atoms: C_2  and  C_3
REMARK    3  A    between atoms: C_2  and  N_11
REMARK    4  A    between atoms: C_3  and  C_4
REMARK    5  A    between atoms: C_4  and  C_5
REMARK    6  A    between atoms: N_11  and  S_12
REMARK    7  A    between atoms: S_12  and  C_15
REMARK                            x       y       z     vdW  Elec       q    Type
REMARK                         _______ _______ _______ _____ _____    ______ ____
ROOT
ATOM      1  N   UNL     1       2.863   3.077  20.223  0.00  0.00    +0.000 NA
ATOM      2  H   UNL     1       2.536   2.335  20.852  0.00  0.00    +0.000 HD
ENDROOT
BRANCH   1   3
ATOM      3  S   UNL     1       4.131   2.433  19.320  0.00  0.00    +0.000 S 
ATOM      4  O   UNL     1       5.121   2.073  20.307  0.00  0.00    +0.000 OA
ATOM      5  O   UNL     1       3.590   1.470  18.400  0.00  0.00    +0.000 OA
BRANCH   3   6
ATOM      6  C   UNL     1       4.779   3.826  18.464  0.00  0.00    +0.000 A 
ATOM      7  C   UNL     1       5.731   4.651  19.069  0.00  0.00    +0.000 A 
ATOM      8  C   UNL     1       6.105   5.845  18.459  0.00  0.00    +0.000 A 
ATOM      9  C   UNL     1       5.574   6.185  17.216  0.00  0.00    +0.000 A 
ATOM     10  C   UNL     1       4.658   5.334  16.593  0.00  0.00    +0.000 A 
ATOM     11  C   UNL     1       4.247   4.162  17.228  0.00  0.00    +0.000 A 
ATOM     12  F   UNL     1       3.330   3.395  16.626  0.00  0.00    +0.000 F 
ENDBRANCH   3   6
ENDBRANCH   1   3
BRANCH   1  14
ATOM     13  C   UNL     1       0.595   2.953  19.436  0.00  0.00    +0.000 C 
ATOM     14  C   UNL     1       1.784   3.916  19.652  0.00  0.00    +0.000 C 
BRANCH  14  15
ATOM     15  C   UNL     1       1.258   5.073  20.532  0.00  0.00    +0.000 C 
BRANCH  15  16
ATOM     16  C   UNL     1       2.128   6.326  20.719  0.00  0.00    +0.000 C 
BRANCH  16  17
ATOM     17  C   UNL     1       1.903   7.472  19.767  0.00  0.00    +0.000 A 
ATOM     18  C   UNL     1       2.405   7.482  18.462  0.00  0.00    +0.000 A 
ATOM     19  C   UNL     1       2.332   8.633  17.683  0.00  0.00    +0.000 A 
ATOM     20  C   UNL     1       1.683   9.764  18.170  0.00  0.00    +0.000 A 
ATOM     21  C   UNL     1       1.098   9.742  19.434  0.00  0.00    +0.000 A 
ATOM     22  C   UNL     1       1.210   8.602  20.229  0.00  0.00    +0.000 A 
ENDBRANCH  16  17
ENDBRANCH  15  16
ENDBRANCH  14  15
ENDBRANCH   1  14
TORSDOF 6
ENDMDL
MODEL 6
REMARK VINA RESULT:      -7.2      2.068      4.158
REMARK  Name = 
REMARK  7 active torsions:
REMARK  status: ('A' for Active; 'I' for Inactive)
REMARK    1  A    between atoms: C_1  and  C_2
REMARK    2  A    between atoms: C_2  and  C_3
REMARK    3  A    between atoms: C_2  and  N_11
REMARK    4  A    between atoms: C_3  and  C_4
REMARK    5  A    between atoms: C_4  and  C_5
REMARK    6  A    between atoms: N_11  and  S_12
REMARK    7  A    between atoms: S_12  and  C_15
REMARK                            x       y       z     vdW  Elec       q    Type
REMARK                         _______ _______ _______ _____ _____    ______ ____
ROOT
ATOM      1  N   UNL     1       3.941   5.119  17.422  0.00  0.00    +0.000 NA
ATOM      2  H   UNL     1       3.499   4.794  16.555  0.00  0.00    +0.000 HD
ENDROOT
BRANCH   1   3
ATOM      3  S   UNL     1       4.457   3.748  18.254  0.00  0.00    +0.000 S 
ATOM      4  O   UNL     1       4.349   2.684  17.285  0.00  0.00    +0.000 OA
ATOM      5  O   UNL     1       5.698   4.056  18.910  0.00  0.00    +0.000 OA
BRANCH   3   6
ATOM      6  C   UNL     1       3.177   3.470  19.429  0.00  0.00    +0.000 A 
ATOM      7  C   UNL     1       1.970   4.168  19.342  0.00  0.00    +0.000 A 
ATOM      8  C   UNL     1       1.037   4.075  20.371  0.00  0.00    +0.000 A 
ATOM      9  C   UNL     1       1.284   3.239  21.457  0.00  0.00    +0.000 A 
ATOM     10  C   UNL     1       2.472   2.507  21.518  0.00  0.00    +0.000 A 
ATOM     11  C   UNL     1       3.428   2.639  20.510  0.00  0.00    +0.000 A 
ATOM     12  F   UNL     1       4.577   1.962  20.625  0.00  0.00    +0.000 F 
ENDBRANCH   3   6
ENDBRANCH   1   3
BRANCH   1  14
ATOM     13  C   UNL     1       5.099   6.424  15.769  0.00  0.00    +0.000 C 
ATOM     14  C   UNL     1       4.752   6.349  17.272  0.00  0.00    +0.000 C 
BRANCH  14  15
ATOM     15  C   UNL     1       4.066   7.688  17.633  0.00  0.00    +0.000 C 
BRANCH  15  16
ATOM     16  C   UNL     1       2.533   7.773  17.605  0.00  0.00    +0.000 C 
BRANCH  16  17
ATOM     17  C   UNL     1       1.849   8.335  18.825  0.00  0.00    +0.000 A 
ATOM     18  C   UNL     1       1.950   7.745  20.088  0.00  0.00    +0.000 A 
ATOM     19  C   UNL     1       1.158   8.189  21.144  0.00  0.00    +0.000 A 
ATOM     20  C   UNL     1       0.314   9.281  20.970  0.00  0.00    +0.000 A 
ATOM     21  C   UNL     1       0.267   9.938  19.742  0.00  0.00    +0.000 A 
ATOM     22  C   UNL     1       1.030   9.465  18.674  0.00  0.00    +0.000 A 
ENDBRANCH  16  17
ENDBRANCH  15  16
ENDBRANCH  14  15
ENDBRANCH   1  14
TORSDOF 6
ENDMDL
MODEL 7
REMARK VINA RESULT:      -7.1      4.556      6.412
REMARK  Name = 
REMARK  7 active torsions:
REMARK  status: ('A' for Active; 'I' for Inactive)
REMARK    1  A    between atoms: C_1  and  C_2
REMARK    2  A    between atoms: C_2  and  C_3
REMARK    3  A    between atoms: C_2  and  N_11
REMARK    4  A    between atoms: C_3  and  C_4
REMARK    5  A    between atoms: C_4  and  C_5
REMARK    6  A    between atoms: N_11  and  S_12
REMARK    7  A    between atoms: S_12  and  C_15
REMARK                            x       y       z     vdW  Elec       q    Type
REMARK                         _______ _______ _______ _____ _____    ______ ____
ROOT
ATOM      1  N   UNL     1       7.450   6.476  16.709  0.00  0.00    +0.000 NA
ATOM      2  H   UNL     1       8.383   6.302  16.319  0.00  0.00    +0.000 HD
ENDROOT
BRANCH   1   3
ATOM      3  S   UNL     1       6.408   5.352  16.010  0.00  0.00    +0.000 S 
ATOM      4  O   UNL     1       6.286   5.788  14.639  0.00  0.00    +0.000 OA
ATOM      5  O   UNL     1       6.867   4.034  16.350  0.00  0.00    +0.000 OA
BRANCH   3   6
ATOM      6  C   UNL     1       4.858   5.694  16.770  0.00  0.00    +0.000 A 
ATOM      7  C   UNL     1       4.461   7.012  17.010  0.00  0.00    +0.000 A 
ATOM      8  C   UNL     1       3.321   7.267  17.769  0.00  0.00    +0.000 A 
ATOM      9  C   UNL     1       2.547   6.207  18.236  0.00  0.00    +0.000 A 
ATOM     10  C   UNL     1       2.924   4.892  17.955  0.00  0.00    +0.000 A 
ATOM     11  C   UNL     1       4.092   4.636  17.236  0.00  0.00    +0.000 A 
ATOM     12  F   UNL     1       4.450   3.363  17.027  0.00  0.00    +0.000 F 
ENDBRANCH   3   6
ENDBRANCH   1   3
BRANCH   1  14
ATOM     13  C   UNL     1       7.807   5.519  18.885  0.00  0.00    +0.000 C 
ATOM     14  C   UNL     1       7.442   6.827  18.148  0.00  0.00    +0.000 C 
BRANCH  14  15
ATOM     15  C   UNL     1       8.460   7.894  18.613  0.00  0.00    +0.000 C 
BRANCH  15  16
ATOM     16  C   UNL     1       8.345   9.326  18.070  0.00  0.00    +0.000 C 
BRANCH  16  17
ATOM     17  C   UNL     1       9.238  10.373  18.685  0.00  0.00    +0.000 A 
ATOM     18  C   UNL     1       9.387  10.524  20.066  0.00  0.00    +0.000 A 
ATOM     19  C   UNL     1      10.073  11.616  20.591  0.00  0.00    +0.000 A 
ATOM     20  C   UNL     1      10.689  12.527  19.737  0.00  0.00    +0.000 A 
ATOM     21  C   UNL     1      10.626  12.342  18.358  0.00  0.00    +0.000 A 
ATOM     22  C   UNL     1       9.902  11.271  17.834  0.00  0.00    +0.000 A 
ENDBRANCH  16  17
ENDBRANCH  15  16
ENDBRANCH  14  15
ENDBRANCH   1  14
TORSDOF 6
ENDMDL
MODEL 8
REMARK VINA RESULT:      -7.0      3.055      4.936
REMARK  Name = 
REMARK  7 active torsions:
REMARK  status: ('A' for Active; 'I' for Inactive)
REMARK    1  A    between atoms: C_1  and  C_2
REMARK    2  A    between atoms: C_2  and  C_3
REMARK    3  A    between atoms: C_2  and  N_11
REMARK    4  A    between atoms: C_3  and  C_4
REMARK    5  A    between atoms: C_4  and  C_5
REMARK    6  A    between atoms: N_11  and  S_12
REMARK    7  A    between atoms: S_12  and  C_15
REMARK                            x       y       z     vdW  Elec       q    Type
REMARK                         _______ _______ _______ _____ _____    ______ ____
ROOT
ATOM      1  N   UNL     1       5.437   5.983  16.583  0.00  0.00    +0.000 NA
ATOM      2  H   UNL     1       5.418   7.001  16.457  0.00  0.00    +0.000 HD
ENDROOT
BRANCH   1   3
ATOM      3  S   UNL     1       7.030   5.489  16.353  0.00  0.00    +0.000 S 
ATOM      4  O   UNL     1       7.784   6.720  16.340  0.00  0.00    +0.000 OA
ATOM      5  O   UNL     1       7.317   4.433  17.284  0.00  0.00    +0.000 OA
BRANCH   3   6
ATOM      6  C   UNL     1       7.045   4.891  14.699  0.00  0.00    +0.000 A 
ATOM      7  C   UNL     1       7.831   5.514  13.725  0.00  0.00    +0.000 A 
ATOM      8  C   UNL     1       7.701   5.148  12.388  0.00  0.00    +0.000 A 
ATOM      9  C   UNL     1       6.832   4.119  12.032  0.00  0.00    +0.000 A 
ATOM     10  C   UNL     1       6.083   3.468  13.014  0.00  0.00    +0.000 A 
ATOM     11  C   UNL     1       6.177   3.868  14.347  0.00  0.00    +0.000 A 
ATOM     12  F   UNL     1       5.408   3.255  15.256  0.00  0.00    +0.000 F 
ENDBRANCH   3   6
ENDBRANCH   1   3
BRANCH   1  14
ATOM     13  C   UNL     1       5.367   5.723  18.971  0.00  0.00    +0.000 C 
ATOM     14  C   UNL     1       4.565   5.484  17.672  0.00  0.00    +0.000 C 
BRANCH  14  15
ATOM     15  C   UNL     1       3.203   6.193  17.858  0.00  0.00    +0.000 C 
BRANCH  15  16
ATOM     16  C   UNL     1       2.579   6.257  19.261  0.00  0.00    +0.000 C 
BRANCH  16  17
ATOM     17  C   UNL     1       2.057   4.970  19.845  0.00  0.00    +0.000 A 
ATOM     18  C   UNL     1       2.264   4.604  21.178  0.00  0.00    +0.000 A 
ATOM     19  C   UNL     1       1.926   3.330  21.625  0.00  0.00    +0.000 A 
ATOM     20  C   UNL     1       1.300   2.434  20.765  0.00  0.00    +0.000 A 
ATOM     21  C   UNL     1       1.004   2.813  19.457  0.00  0.00    +0.000 A 
ATOM     22  C   UNL     1       1.383   4.075  18.999  0.00  0.00    +0.000 A 
ENDBRANCH  16  17
ENDBRANCH  15  16
ENDBRANCH  14  15
ENDBRANCH   1  14
TORSDOF 6
ENDMDL
MODEL 9
REMARK VINA RESULT:      -7.0      1.705      3.786
REMARK  Name = 
REMARK  7 active torsions:
REMARK  status: ('A' for Active; 'I' for Inactive)
REMARK    1  A    between atoms: C_1  and  C_2
REMARK    2  A    between atoms: C_2  and  C_3
REMARK    3  A    between atoms: C_2  and  N_11
REMARK    4  A    between atoms: C_3  and  C_4
REMARK    5  A    between atoms: C_4  and  C_5
REMARK    6  A    between atoms: N_11  and  S_12
REMARK    7  A    between atoms: S_12  and  C_15
REMARK                            x       y       z     vdW  Elec       q    Type
REMARK                         _______ _______ _______ _____ _____    ______ ____
ROOT
ATOM      1  N   UNL     1       5.266   3.274  18.600  0.00  0.00    +0.000 NA
ATOM      2  H   UNL     1       6.145   2.928  18.200  0.00  0.00    +0.000 HD
ENDROOT
BRANCH   1   3
ATOM      3  S   UNL     1       4.560   1.985  19.423  0.00  0.00    +0.000 S 
ATOM      4  O   UNL     1       4.473   0.938  18.433  0.00  0.00    +0.000 OA
ATOM      5  O   UNL     1       5.260   1.800  20.664  0.00  0.00    +0.000 OA
BRANCH   3   6
ATOM      6  C   UNL     1       2.910   2.526  19.707  0.00  0.00    +0.000 A 
ATOM      7  C   UNL     1       2.473   2.821  21.002  0.00  0.00    +0.000 A 
ATOM      8  C   UNL     1       1.125   3.075  21.239  0.00  0.00    +0.000 A 
ATOM      9  C   UNL     1       0.225   3.095  20.175  0.00  0.00    +0.000 A 
ATOM     10  C   UNL     1       0.675   2.845  18.877  0.00  0.00    +0.000 A 
ATOM     11  C   UNL     1       2.017   2.543  18.646  0.00  0.00    +0.000 A 
ATOM     12  F   UNL     1       2.405   2.260  17.397  0.00  0.00    +0.000 F 
ENDBRANCH   3   6
ENDBRANCH   1   3
BRANCH   1  14
ATOM     13  C   UNL     1       6.737   5.169  18.738  0.00  0.00    +0.000 C 
ATOM     14  C   UNL     1       5.334   4.655  19.131  0.00  0.00    +0.000 C 
BRANCH  14  15
ATOM     15  C   UNL     1       4.318   5.674  18.565  0.00  0.00    +0.000 C 
BRANCH  15  16
ATOM     16  C   UNL     1       3.017   5.941  19.336  0.00  0.00    +0.000 C 
BRANCH  16  17
ATOM     17  C   UNL     1       2.420   7.320  19.230  0.00  0.00    +0.000 A 
ATOM     18  C   UNL     1       1.743   7.936  20.287  0.00  0.00    +0.000 A 
ATOM     19  C   UNL     1       1.052   9.128  20.088  0.00  0.00    +0.000 A 
ATOM     20  C   UNL     1       1.097   9.761  18.850  0.00  0.00    +0.000 A 
ATOM     21  C   UNL     1       1.840   9.207  17.810  0.00  0.00    +0.000 A 
ATOM     22  C   UNL     1       2.497   7.991  17.999  0.00  0.00    +0.000 A 
ENDBRANCH  16  17
ENDBRANCH  15  16
ENDBRANCH  14  15
ENDBRANCH   1  14
TORSDOF 6
ENDMDL
