MODEL 1
REMARK VINA RESULT:      -8.4      0.000      0.000
REMARK  Name = 
REMARK  5 active torsions:
REMARK  status: ('A' for Active; 'I' for Inactive)
REMARK    1  A    between atoms: C_1  and  O_2
REMARK    2  A    between atoms: O_2  and  C_3
REMARK    3  A    between atoms: C_11  and  O_12
REMARK    4  A    between atoms: C_24  and  C_25
REMARK    5  A    between atoms: C_24  and  O_26
REMARK                            x       y       z     vdW  Elec       q    Type
REMARK                         _______ _______ _______ _____ _____    ______ ____
ROOT
ATOM      1  C   UNL     1       1.874   3.784  19.584  0.00  0.00    +0.000 A 
ATOM      2  C   UNL     1       2.357   2.911  18.599  0.00  0.00    +0.000 A 
ATOM      3  C   UNL     1       3.147   3.383  17.545  0.00  0.00    +0.000 A 
ATOM      4  C   UNL     1       3.393   4.744  17.424  0.00  0.00    +0.000 A 
ATOM      5  C   UNL     1       2.861   5.620  18.372  0.00  0.00    +0.000 A 
ATOM      6  C   UNL     1       2.892   7.059  18.126  0.00  0.00    +0.000 A 
ATOM      7  O   UNL     1       3.465   7.552  17.158  0.00  0.00    +0.000 OA
ATOM      8  C   UNL     1       2.115   7.903  19.037  0.00  0.00    +0.000 A 
ATOM      9  C   UNL     1       1.740   9.198  18.673  0.00  0.00    +0.000 A 
ATOM     10  C   UNL     1       0.995   9.931  19.570  0.00  0.00    +0.000 A 
ATOM     11  C   UNL     1       0.737   9.438  20.841  0.00  0.00    +0.000 A 
ATOM     12  C   UNL     1       1.079   8.150  21.215  0.00  0.00    +0.000 A 
ATOM     13  C   UNL     1       1.697   7.343  20.253  0.00  0.00    +0.000 A 
ATOM     14  O   UNL     1       1.775   5.991  20.516  0.00  0.00    +0.000 OA
ATOM     15  C   UNL     1       2.164   5.155  19.488  0.00  0.00    +0.000 A 
ATOM     16  O   UNL     1       0.050  10.327  21.633  0.00  0.00    +0.000 OA
ATOM     17  C   UNL     1      -0.595  11.181  20.641  0.00  0.00    +0.000 C 
ATOM     18  C   UNL     1       0.283  11.211  19.385  0.00  0.00    +0.000 C 
ATOM     19  O   UNL     1       1.141  12.347  19.457  0.00  0.00    +0.000 OA
ATOM     20  C   UNL     1       0.691  13.195  20.522  0.00  0.00    +0.000 C 
ATOM     21  C   UNL     1      -0.634  12.646  21.054  0.00  0.00    +0.000 C 
ATOM     22  C   UNL     1      -1.832  13.332  20.393  0.00  0.00    +0.000 C 
ENDROOT
BRANCH   1  24
ATOM     23  C   UNL     1       1.686   2.687  21.687  0.00  0.00    +0.000 C 
ATOM     24  O   UNL     1       1.065   3.402  20.625  0.00  0.00    +0.000 OA
ENDBRANCH   1  24
BRANCH   9  25
ATOM     25  O   UNL     1       2.008   9.733  17.448  0.00  0.00    +0.000 OA
ATOM     26  H   UNL     1       2.224  10.683  17.574  0.00  0.00    +0.000 HD
ENDBRANCH   9  25
BRANCH  21  27
ATOM     27  O   UNL     1      -0.752  12.822  22.461  0.00  0.00    +0.000 OA
ATOM     28  H   UNL     1       0.135  12.664  22.840  0.00  0.00    +0.000 HD
ENDBRANCH  21  27
TORSDOF 3
ENDMDL
MODEL 2
REMARK VINA RESULT:      -8.0      1.787      7.600
REMARK  Name = 
REMARK  5 active torsions:
REMARK  status: ('A' for Active; 'I' for Inactive)
REMARK    1  A    between atoms: C_1  and  O_2
REMARK    2  A    between atoms: O_2  and  C_3
REMARK    3  A    between atoms: C_11  and  O_12
REMARK    4  A    between atoms: C_24  and  C_25
REMARK    5  A    between atoms: C_24  and  O_26
REMARK                            x       y       z     vdW  Elec       q    Type
REMARK                         _______ _______ _______ _____ _____    ______ ____
ROOT
ATOM      1  C   UNL     1      -1.620  12.039  19.145  0.00  0.00    +0.000 A 
ATOM      2  C   UNL     1      -2.457  12.607  20.118  0.00  0.00    +0.000 A 
ATOM      3  C   UNL     1      -2.205  12.419  21.480  0.00  0.00    +0.000 A 
ATOM      4  C   UNL     1      -1.163  11.595  21.882  0.00  0.00    +0.000 A 
ATOM      5  C   UNL     1      -0.366  10.982  20.914  0.00  0.00    +0.000 A 
ATOM      6  C   UNL     1       0.563   9.925  21.302  0.00  0.00    +0.000 A 
ATOM      7  O   UNL     1       0.758   9.614  22.475  0.00  0.00    +0.000 OA
ATOM      8  C   UNL     1       1.192   9.164  20.220  0.00  0.00    +0.000 A 
ATOM      9  C   UNL     1       1.753   7.907  20.456  0.00  0.00    +0.000 A 
ATOM     10  C   UNL     1       2.312   7.240  19.390  0.00  0.00    +0.000 A 
ATOM     11  C   UNL     1       2.423   7.856  18.151  0.00  0.00    +0.000 A 
ATOM     12  C   UNL     1       1.856   9.090  17.889  0.00  0.00    +0.000 A 
ATOM     13  C   UNL     1       1.147   9.705  18.927  0.00  0.00    +0.000 A 
ATOM     14  O   UNL     1       0.344  10.778  18.596  0.00  0.00    +0.000 OA
ATOM     15  C   UNL     1      -0.535  11.246  19.553  0.00  0.00    +0.000 A 
ATOM     16  O   UNL     1       3.076   7.080  17.222  0.00  0.00    +0.000 OA
ATOM     17  C   UNL     1       2.885   5.737  17.761  0.00  0.00    +0.000 C 
ATOM     18  C   UNL     1       2.772   5.840  19.286  0.00  0.00    +0.000 C 
ATOM     19  O   UNL     1       4.062   5.629  19.854  0.00  0.00    +0.000 OA
ATOM     20  C   UNL     1       4.935   5.127  18.833  0.00  0.00    +0.000 C 
ATOM     21  C   UNL     1       4.106   4.846  17.578  0.00  0.00    +0.000 C 
ATOM     22  C   UNL     1       3.666   3.382  17.512  0.00  0.00    +0.000 C 
ENDROOT
BRANCH   1  24
ATOM     23  C   UNL     1      -2.845  11.330  17.232  0.00  0.00    +0.000 C 
ATOM     24  O   UNL     1      -1.823  12.148  17.793  0.00  0.00    +0.000 OA
ENDBRANCH   1  24
BRANCH   9  25
ATOM     25  O   UNL     1       1.698   7.285  21.667  0.00  0.00    +0.000 OA
ATOM     26  H   UNL     1       2.608   7.263  22.037  0.00  0.00    +0.000 HD
ENDBRANCH   9  25
BRANCH  21  27
ATOM     27  O   UNL     1       4.833   5.138  16.390  0.00  0.00    +0.000 OA
ATOM     28  H   UNL     1       4.954   6.107  16.364  0.00  0.00    +0.000 HD
ENDBRANCH  21  27
TORSDOF 3
ENDMDL
MODEL 3
REMARK VINA RESULT:      -7.7      1.700      3.486
REMARK  Name = 
REMARK  5 active torsions:
REMARK  status: ('A' for Active; 'I' for Inactive)
REMARK    1  A    between atoms: C_1  and  O_2
REMARK    2  A    between atoms: O_2  and  C_3
REMARK    3  A    between atoms: C_11  and  O_12
REMARK    4  A    between atoms: C_24  and  C_25
REMARK    5  A    between atoms: C_24  and  O_26
REMARK                            x       y       z     vdW  Elec       q    Type
REMARK                         _______ _______ _______ _____ _____    ______ ____
ROOT
ATOM      1  C   UNL     1       5.186   6.008  17.681  0.00  0.00    +0.000 A 
ATOM      2  C   UNL     1       5.710   4.808  18.185  0.00  0.00    +0.000 A 
ATOM      3  C   UNL     1       5.004   4.059  19.133  0.00  0.00    +0.000 A 
ATOM      4  C   UNL     1       3.808   4.545  19.645  0.00  0.00    +0.000 A 
ATOM      5  C   UNL     1       3.318   5.768  19.186  0.00  0.00    +0.000 A 
ATOM      6  C   UNL     1       2.209   6.412  19.885  0.00  0.00    +0.000 A 
ATOM      7  O   UNL     1       1.608   5.871  20.810  0.00  0.00    +0.000 OA
ATOM      8  C   UNL     1       1.897   7.791  19.505  0.00  0.00    +0.000 A 
ATOM      9  C   UNL     1       1.164   8.624  20.353  0.00  0.00    +0.000 A 
ATOM     10  C   UNL     1       0.922   9.915  19.941  0.00  0.00    +0.000 A 
ATOM     11  C   UNL     1       1.290  10.330  18.669  0.00  0.00    +0.000 A 
ATOM     12  C   UNL     1       2.036   9.530  17.821  0.00  0.00    +0.000 A 
ATOM     13  C   UNL     1       2.422   8.272  18.296  0.00  0.00    +0.000 A 
ATOM     14  O   UNL     1       3.394   7.599  17.586  0.00  0.00    +0.000 OA
ATOM     15  C   UNL     1       3.952   6.474  18.162  0.00  0.00    +0.000 A 
ATOM     16  O   UNL     1       0.905  11.620  18.393  0.00  0.00    +0.000 OA
ATOM     17  C   UNL     1       0.768  12.189  19.730  0.00  0.00    +0.000 C 
ATOM     18  C   UNL     1       0.382  11.063  20.696  0.00  0.00    +0.000 C 
ATOM     19  O   UNL     1      -1.038  11.035  20.819  0.00  0.00    +0.000 OA
ATOM     20  C   UNL     1      -1.572  12.227  20.227  0.00  0.00    +0.000 C 
ATOM     21  C   UNL     1      -0.409  13.147  19.849  0.00  0.00    +0.000 C 
ATOM     22  C   UNL     1      -0.125  14.173  20.949  0.00  0.00    +0.000 C 
ENDROOT
BRANCH   1  24
ATOM     23  C   UNL     1       7.086   7.354  17.188  0.00  0.00    +0.000 C 
ATOM     24  O   UNL     1       5.834   6.814  16.779  0.00  0.00    +0.000 OA
ENDBRANCH   1  24
BRANCH   9  25
ATOM     25  O   UNL     1       0.753   8.241  21.595  0.00  0.00    +0.000 OA
ATOM     26  H   UNL     1       1.546   8.181  22.171  0.00  0.00    +0.000 HD
ENDBRANCH   9  25
BRANCH  21  27
ATOM     27  O   UNL     1      -0.669  13.858  18.645  0.00  0.00    +0.000 OA
ATOM     28  H   UNL     1      -0.448  13.256  17.908  0.00  0.00    +0.000 HD
ENDBRANCH  21  27
TORSDOF 3
ENDMDL
MODEL 4
REMARK VINA RESULT:      -7.5      1.349      2.083
REMARK  Name = 
REMARK  5 active torsions:
REMARK  status: ('A' for Active; 'I' for Inactive)
REMARK    1  A    between atoms: C_1  and  O_2
REMARK    2  A    between atoms: O_2  and  C_3
REMARK    3  A    between atoms: C_11  and  O_12
REMARK    4  A    between atoms: C_24  and  C_25
REMARK    5  A    between atoms: C_24  and  O_26
REMARK                            x       y       z     vdW  Elec       q    Type
REMARK                         _______ _______ _______ _____ _____    ______ ____
ROOT
ATOM      1  C   UNL     1       2.229   5.502  20.077  0.00  0.00    +0.000 A 
ATOM      2  C   UNL     1       2.712   4.782  18.974  0.00  0.00    +0.000 A 
ATOM      3  C   UNL     1       3.056   5.435  17.786  0.00  0.00    +0.000 A 
ATOM      4  C   UNL     1       2.845   6.802  17.663  0.00  0.00    +0.000 A 
ATOM      5  C   UNL     1       2.308   7.508  18.741  0.00  0.00    +0.000 A 
ATOM      6  C   UNL     1       1.846   8.879  18.550  0.00  0.00    +0.000 A 
ATOM      7  O   UNL     1       2.004   9.490  17.495  0.00  0.00    +0.000 OA
ATOM      8  C   UNL     1       1.084   9.481  19.646  0.00  0.00    +0.000 A 
ATOM      9  C   UNL     1       0.262  10.589  19.428  0.00  0.00    +0.000 A 
ATOM     10  C   UNL     1      -0.441  11.093  20.500  0.00  0.00    +0.000 A 
ATOM     11  C   UNL     1      -0.237  10.588  21.777  0.00  0.00    +0.000 A 
ATOM     12  C   UNL     1       0.554   9.478  22.012  0.00  0.00    +0.000 A 
ATOM     13  C   UNL     1       1.146   8.863  20.904  0.00  0.00    +0.000 A 
ATOM     14  O   UNL     1       1.687   7.607  21.090  0.00  0.00    +0.000 OA
ATOM     15  C   UNL     1       2.061   6.892  19.970  0.00  0.00    +0.000 A 
ATOM     16  O   UNL     1      -0.958  11.256  22.739  0.00  0.00    +0.000 OA
ATOM     17  C   UNL     1      -2.042  11.840  21.955  0.00  0.00    +0.000 C 
ATOM     18  C   UNL     1      -1.528  12.091  20.533  0.00  0.00    +0.000 C 
ATOM     19  O   UNL     1      -1.060  13.434  20.448  0.00  0.00    +0.000 OA
ATOM     20  C   UNL     1      -1.486  14.143  21.620  0.00  0.00    +0.000 C 
ATOM     21  C   UNL     1      -2.424  13.238  22.421  0.00  0.00    +0.000 C 
ATOM     22  C   UNL     1      -3.892  13.508  22.081  0.00  0.00    +0.000 C 
ENDROOT
BRANCH   1  24
ATOM     23  C   UNL     1       2.207   3.571  21.468  0.00  0.00    +0.000 C 
ATOM     24  O   UNL     1       1.836   4.930  21.261  0.00  0.00    +0.000 OA
ENDBRANCH   1  24
BRANCH   9  25
ATOM     25  O   UNL     1       0.065  11.137  18.196  0.00  0.00    +0.000 OA
ATOM     26  H   UNL     1      -0.637  10.618  17.744  0.00  0.00    +0.000 HD
ENDBRANCH   9  25
BRANCH  21  27
ATOM     27  O   UNL     1      -2.260  13.418  23.824  0.00  0.00    +0.000 OA
ATOM     28  H   UNL     1      -1.987  14.346  23.959  0.00  0.00    +0.000 HD
ENDBRANCH  21  27
TORSDOF 3
ENDMDL
MODEL 5
REMARK VINA RESULT:      -7.3      2.560      7.930
REMARK  Name = 
REMARK  5 active torsions:
REMARK  status: ('A' for Active; 'I' for Inactive)
REMARK    1  A    between atoms: C_1  and  O_2
REMARK    2  A    between atoms: O_2  and  C_3
REMARK    3  A    between atoms: C_11  and  O_12
REMARK    4  A    between atoms: C_24  and  C_25
REMARK    5  A    between atoms: C_24  and  O_26
REMARK                            x       y       z     vdW  Elec       q    Type
REMARK                         _______ _______ _______ _____ _____    ______ ____
ROOT
ATOM      1  C   UNL     1       0.564   9.728  19.531  0.00  0.00    +0.000 A 
ATOM      2  C   UNL     1      -0.414   9.634  20.533  0.00  0.00    +0.000 A 
ATOM      3  C   UNL     1      -0.385   8.595  21.469  0.00  0.00    +0.000 A 
ATOM      4  C   UNL     1       0.574   7.596  21.363  0.00  0.00    +0.000 A 
ATOM      5  C   UNL     1       1.511   7.658  20.330  0.00  0.00    +0.000 A 
ATOM      6  C   UNL     1       2.358   6.503  20.050  0.00  0.00    +0.000 A 
ATOM      7  O   UNL     1       2.360   5.498  20.757  0.00  0.00    +0.000 OA
ATOM      8  C   UNL     1       3.147   6.543  18.817  0.00  0.00    +0.000 A 
ATOM      9  C   UNL     1       3.654   5.372  18.249  0.00  0.00    +0.000 A 
ATOM     10  C   UNL     1       4.372   5.480  17.079  0.00  0.00    +0.000 A 
ATOM     11  C   UNL     1       4.684   6.727  16.556  0.00  0.00    +0.000 A 
ATOM     12  C   UNL     1       4.175   7.898  17.089  0.00  0.00    +0.000 A 
ATOM     13  C   UNL     1       3.313   7.784  18.186  0.00  0.00    +0.000 A 
ATOM     14  O   UNL     1       2.582   8.901  18.534  0.00  0.00    +0.000 OA
ATOM     15  C   UNL     1       1.564   8.745  19.454  0.00  0.00    +0.000 A 
ATOM     16  O   UNL     1       5.472   6.655  15.431  0.00  0.00    +0.000 OA
ATOM     17  C   UNL     1       5.188   5.308  14.948  0.00  0.00    +0.000 C 
ATOM     18  C   UNL     1       4.832   4.427  16.151  0.00  0.00    +0.000 C 
ATOM     19  O   UNL     1       6.013   3.764  16.595  0.00  0.00    +0.000 OA
ATOM     20  C   UNL     1       7.035   3.936  15.604  0.00  0.00    +0.000 C 
ATOM     21  C   UNL     1       6.416   4.611  14.378  0.00  0.00    +0.000 C 
ATOM     22  C   UNL     1       5.982   3.583  13.330  0.00  0.00    +0.000 C 
ENDROOT
BRANCH   1  24
ATOM     23  C   UNL     1       0.802  12.033  18.990  0.00  0.00    +0.000 C 
ATOM     24  O   UNL     1       0.582  10.694  18.558  0.00  0.00    +0.000 OA
ENDBRANCH   1  24
BRANCH   9  25
ATOM     25  O   UNL     1       3.401   4.132  18.754  0.00  0.00    +0.000 OA
ATOM     26  H   UNL     1       2.559   4.178  19.260  0.00  0.00    +0.000 HD
ENDBRANCH   9  25
BRANCH  21  27
ATOM     27  O   UNL     1       7.326   5.511  13.756  0.00  0.00    +0.000 OA
ATOM     28  H   UNL     1       7.223   6.372  14.206  0.00  0.00    +0.000 HD
ENDBRANCH  21  27
TORSDOF 3
ENDMDL
MODEL 6
REMARK VINA RESULT:      -7.3      2.345      4.488
REMARK  Name = 
REMARK  5 active torsions:
REMARK  status: ('A' for Active; 'I' for Inactive)
REMARK    1  A    between atoms: C_1  and  O_2
REMARK    2  A    between atoms: O_2  and  C_3
REMARK    3  A    between atoms: C_11  and  O_12
REMARK    4  A    between atoms: C_24  and  C_25
REMARK    5  A    between atoms: C_24  and  O_26
REMARK                            x       y       z     vdW  Elec       q    Type
REMARK                         _______ _______ _______ _____ _____    ______ ____
ROOT
ATOM      1  C   UNL     1       1.755   7.746  19.916  0.00  0.00    +0.000 A 
ATOM      2  C   UNL     1       2.350   7.411  18.690  0.00  0.00    +0.000 A 
ATOM      3  C   UNL     1       2.504   8.367  17.681  0.00  0.00    +0.000 A 
ATOM      4  C   UNL     1       1.991   9.645  17.858  0.00  0.00    +0.000 A 
ATOM      5  C   UNL     1       1.345   9.961  19.055  0.00  0.00    +0.000 A 
ATOM      6  C   UNL     1       0.585  11.202  19.162  0.00  0.00    +0.000 A 
ATOM      7  O   UNL     1       0.570  12.048  18.271  0.00  0.00    +0.000 OA
ATOM      8  C   UNL     1      -0.257  11.364  20.350  0.00  0.00    +0.000 A 
ATOM      9  C   UNL     1      -1.310  12.281  20.367  0.00  0.00    +0.000 A 
ATOM     10  C   UNL     1      -2.072  12.368  21.510  0.00  0.00    +0.000 A 
ATOM     11  C   UNL     1      -1.722  11.655  22.648  0.00  0.00    +0.000 A 
ATOM     12  C   UNL     1      -0.697  10.726  22.647  0.00  0.00    +0.000 A 
ATOM     13  C   UNL     1      -0.019  10.516  21.442  0.00  0.00    +0.000 A 
ATOM     14  O   UNL     1       0.793   9.403  21.357  0.00  0.00    +0.000 OA
ATOM     15  C   UNL     1       1.280   9.053  20.114  0.00  0.00    +0.000 A 
ATOM     16  O   UNL     1      -2.541  11.918  23.720  0.00  0.00    +0.000 OA
ATOM     17  C   UNL     1      -3.752  12.403  23.065  0.00  0.00    +0.000 C 
ATOM     18  C   UNL     1      -3.353  13.067  21.742  0.00  0.00    +0.000 C 
ATOM     19  O   UNL     1      -3.197  14.466  21.964  0.00  0.00    +0.000 OA
ATOM     20  C   UNL     1      -3.732  14.788  23.254  0.00  0.00    +0.000 C 
ATOM     21  C   UNL     1      -4.419  13.543  23.820  0.00  0.00    +0.000 C 
ATOM     22  C   UNL     1      -5.921  13.546  23.521  0.00  0.00    +0.000 C 
ENDROOT
BRANCH   1  24
ATOM     23  C   UNL     1       1.760   5.481  20.644  0.00  0.00    +0.000 C 
ATOM     24  O   UNL     1       1.537   6.856  20.937  0.00  0.00    +0.000 OA
ENDBRANCH   1  24
BRANCH   9  25
ATOM     25  O   UNL     1      -1.662  13.027  19.282  0.00  0.00    +0.000 OA
ATOM     26  H   UNL     1      -1.537  12.472  18.480  0.00  0.00    +0.000 HD
ENDBRANCH   9  25
BRANCH  21  27
ATOM     27  O   UNL     1      -4.255  13.445  25.231  0.00  0.00    +0.000 OA
ATOM     28  H   UNL     1      -4.281  12.494  25.452  0.00  0.00    +0.000 HD
ENDBRANCH  21  27
TORSDOF 3
ENDMDL
MODEL 7
REMARK VINA RESULT:      -7.0      8.675     10.539
REMARK  Name = 
REMARK  5 active torsions:
REMARK  status: ('A' for Active; 'I' for Inactive)
REMARK    1  A    between atoms: C_1  and  O_2
REMARK    2  A    between atoms: O_2  and  C_3
REMARK    3  A    between atoms: C_11  and  O_12
REMARK    4  A    between atoms: C_24  and  C_25
REMARK    5  A    between atoms: C_24  and  O_26
REMARK                            x       y       z     vdW  Elec       q    Type
REMARK                         _______ _______ _______ _____ _____    ______ ____
ROOT
ATOM      1  C   UNL     1      10.919  14.989  17.996  0.00  0.00    +0.000 A 
ATOM      2  C   UNL     1      11.840  14.474  17.071  0.00  0.00    +0.000 A 
ATOM      3  C   UNL     1      11.929  13.099  16.836  0.00  0.00    +0.000 A 
ATOM      4  C   UNL     1      11.155  12.219  17.581  0.00  0.00    +0.000 A 
ATOM      5  C   UNL     1      10.281  12.728  18.543  0.00  0.00    +0.000 A 
ATOM      6  C   UNL     1       9.653  11.824  19.502  0.00  0.00    +0.000 A 
ATOM      7  O   UNL     1       9.776  10.603  19.438  0.00  0.00    +0.000 OA
ATOM      8  C   UNL     1       8.940  12.438  20.624  0.00  0.00    +0.000 A 
ATOM      9  C   UNL     1       8.666  11.714  21.786  0.00  0.00    +0.000 A 
ATOM     10  C   UNL     1       8.007  12.358  22.808  0.00  0.00    +0.000 A 
ATOM     11  C   UNL     1       7.524  13.648  22.634  0.00  0.00    +0.000 A 
ATOM     12  C   UNL     1       7.803  14.391  21.501  0.00  0.00    +0.000 A 
ATOM     13  C   UNL     1       8.608  13.797  20.523  0.00  0.00    +0.000 A 
ATOM     14  O   UNL     1       9.124  14.619  19.543  0.00  0.00    +0.000 OA
ATOM     15  C   UNL     1      10.100  14.102  18.714  0.00  0.00    +0.000 A 
ATOM     16  O   UNL     1       6.825  14.111  23.724  0.00  0.00    +0.000 OA
ATOM     17  C   UNL     1       7.354  13.279  24.800  0.00  0.00    +0.000 C 
ATOM     18  C   UNL     1       7.780  11.932  24.204  0.00  0.00    +0.000 C 
ATOM     19  O   UNL     1       6.701  11.011  24.341  0.00  0.00    +0.000 OA
ATOM     20  C   UNL     1       5.723  11.579  25.222  0.00  0.00    +0.000 C 
ATOM     21  C   UNL     1       6.291  12.872  25.812  0.00  0.00    +0.000 C 
ATOM     22  C   UNL     1       6.947  12.628  27.173  0.00  0.00    +0.000 C 
ENDROOT
BRANCH   1  24
ATOM     23  C   UNL     1      10.256  17.165  17.298  0.00  0.00    +0.000 C 
ATOM     24  O   UNL     1      10.798  16.320  18.307  0.00  0.00    +0.000 OA
ENDBRANCH   1  24
BRANCH   9  25
ATOM     25  O   UNL     1       9.090  10.433  21.980  0.00  0.00    +0.000 OA
ATOM     26  H   UNL     1      10.070  10.448  22.055  0.00  0.00    +0.000 HD
ENDBRANCH   9  25
BRANCH  21  27
ATOM     27  O   UNL     1       5.283  13.861  25.984  0.00  0.00    +0.000 OA
ATOM     28  H   UNL     1       4.504  13.408  26.361  0.00  0.00    +0.000 HD
ENDBRANCH  21  27
TORSDOF 3
ENDMDL
MODEL 8
REMARK VINA RESULT:      -6.9      1.424      7.251
REMARK  Name = 
REMARK  5 active torsions:
REMARK  status: ('A' for Active; 'I' for Inactive)
REMARK    1  A    between atoms: C_1  and  O_2
REMARK    2  A    between atoms: O_2  and  C_3
REMARK    3  A    between atoms: C_11  and  O_12
REMARK    4  A    between atoms: C_24  and  C_25
REMARK    5  A    between atoms: C_24  and  O_26
REMARK                            x       y       z     vdW  Elec       q    Type
REMARK                         _______ _______ _______ _____ _____    ______ ____
ROOT
ATOM      1  C   UNL     1       0.354  11.779  21.461  0.00  0.00    +0.000 A 
ATOM      2  C   UNL     1       0.551  13.098  21.026  0.00  0.00    +0.000 A 
ATOM      3  C   UNL     1       0.951  13.369  19.713  0.00  0.00    +0.000 A 
ATOM      4  C   UNL     1       1.235  12.321  18.848  0.00  0.00    +0.000 A 
ATOM      5  C   UNL     1       1.097  11.007  19.300  0.00  0.00    +0.000 A 
ATOM      6  C   UNL     1       1.627   9.906  18.502  0.00  0.00    +0.000 A 
ATOM      7  O   UNL     1       2.105  10.072  17.383  0.00  0.00    +0.000 OA
ATOM      8  C   UNL     1       1.661   8.585  19.133  0.00  0.00    +0.000 A 
ATOM      9  C   UNL     1       2.496   7.577  18.648  0.00  0.00    +0.000 A 
ATOM     10  C   UNL     1       2.492   6.365  19.301  0.00  0.00    +0.000 A 
ATOM     11  C   UNL     1       1.593   6.121  20.329  0.00  0.00    +0.000 A 
ATOM     12  C   UNL     1       0.773   7.111  20.841  0.00  0.00    +0.000 A 
ATOM     13  C   UNL     1       0.886   8.390  20.286  0.00  0.00    +0.000 A 
ATOM     14  O   UNL     1       0.297   9.432  20.972  0.00  0.00    +0.000 OA
ATOM     15  C   UNL     1       0.594  10.720  20.571  0.00  0.00    +0.000 A 
ATOM     16  O   UNL     1       1.670   4.837  20.817  0.00  0.00    +0.000 OA
ATOM     17  C   UNL     1       3.023   4.448  20.434  0.00  0.00    +0.000 C 
ATOM     18  C   UNL     1       3.403   5.211  19.160  0.00  0.00    +0.000 C 
ATOM     19  O   UNL     1       3.103   4.393  18.032  0.00  0.00    +0.000 OA
ATOM     20  C   UNL     1       2.820   3.065  18.492  0.00  0.00    +0.000 C 
ATOM     21  C   UNL     1       3.120   2.995  19.991  0.00  0.00    +0.000 C 
ATOM     22  C   UNL     1       4.533   2.471  20.257  0.00  0.00    +0.000 C 
ENDROOT
BRANCH   1  24
ATOM     23  C   UNL     1      -1.375  11.584  23.085  0.00  0.00    +0.000 C 
ATOM     24  O   UNL     1      -0.002  11.433  22.740  0.00  0.00    +0.000 OA
ENDBRANCH   1  24
BRANCH   9  25
ATOM     25  O   UNL     1       3.366   7.766  17.616  0.00  0.00    +0.000 OA
ATOM     26  H   UNL     1       3.069   7.205  16.865  0.00  0.00    +0.000 HD
ENDBRANCH   9  25
BRANCH  21  27
ATOM     27  O   UNL     1       2.204   2.146  20.673  0.00  0.00    +0.000 OA
ATOM     28  H   UNL     1       2.652   1.841  21.486  0.00  0.00    +0.000 HD
ENDBRANCH  21  27
TORSDOF 3
ENDMDL
MODEL 9
REMARK VINA RESULT:      -6.7      1.653      3.613
REMARK  Name = 
REMARK  5 active torsions:
REMARK  status: ('A' for Active; 'I' for Inactive)
REMARK    1  A    between atoms: C_1  and  O_2
REMARK    2  A    between atoms: O_2  and  C_3
REMARK    3  A    between atoms: C_11  and  O_12
REMARK    4  A    between atoms: C_24  and  C_25
REMARK    5  A    between atoms: C_24  and  O_26
REMARK                            x       y       z     vdW  Elec       q    Type
REMARK                         _______ _______ _______ _____ _____    ______ ____
ROOT
ATOM      1  C   UNL     1       3.777   6.484  17.834  0.00  0.00    +0.000 A 
ATOM      2  C   UNL     1       4.233   5.296  18.426  0.00  0.00    +0.000 A 
ATOM      3  C   UNL     1       3.676   4.830  19.621  0.00  0.00    +0.000 A 
ATOM      4  C   UNL     1       2.716   5.589  20.278  0.00  0.00    +0.000 A 
ATOM      5  C   UNL     1       2.306   6.801  19.719  0.00  0.00    +0.000 A 
ATOM      6  C   UNL     1       1.497   7.724  20.507  0.00  0.00    +0.000 A 
ATOM      7  O   UNL     1       1.064   7.439  21.621  0.00  0.00    +0.000 OA
ATOM      8  C   UNL     1       1.299   9.068  19.958  0.00  0.00    +0.000 A 
ATOM      9  C   UNL     1       0.913  10.131  20.777  0.00  0.00    +0.000 A 
ATOM     10  C   UNL     1       0.763  11.371  20.198  0.00  0.00    +0.000 A 
ATOM     11  C   UNL     1       0.871  11.525  18.823  0.00  0.00    +0.000 A 
ATOM     12  C   UNL     1       1.274  10.492  17.995  0.00  0.00    +0.000 A 
ATOM     13  C   UNL     1       1.583   9.268  18.599  0.00  0.00    +0.000 A 
ATOM     14  O   UNL     1       2.254   8.336  17.834  0.00  0.00    +0.000 OA
ATOM     15  C   UNL     1       2.771   7.227  18.473  0.00  0.00    +0.000 A 
ATOM     16  O   UNL     1       0.615  12.809  18.404  0.00  0.00    +0.000 OA
ATOM     17  C   UNL     1       0.881  13.581  19.614  0.00  0.00    +0.000 C 
ATOM     18  C   UNL     1       0.583  12.694  20.829  0.00  0.00    +0.000 C 
ATOM     19  O   UNL     1      -0.756  12.937  21.252  0.00  0.00    +0.000 OA
ATOM     20  C   UNL     1      -1.245  14.105  20.580  0.00  0.00    +0.000 C 
ATOM     21  C   UNL     1      -0.088  14.739  19.804  0.00  0.00    +0.000 C 
ATOM     22  C   UNL     1       0.590  15.847  20.614  0.00  0.00    +0.000 C 
ENDROOT
BRANCH   1  24
ATOM     23  C   UNL     1       5.235   6.223  15.971  0.00  0.00    +0.000 C 
ATOM     24  O   UNL     1       4.297   7.023  16.684  0.00  0.00    +0.000 OA
ENDBRANCH   1  24
BRANCH   9  25
ATOM     25  O   UNL     1       0.759  10.011  22.126  0.00  0.00    +0.000 OA
ATOM     26  H   UNL     1       0.465   9.093  22.316  0.00  0.00    +0.000 HD
ENDBRANCH   9  25
BRANCH  21  27
ATOM     27  O   UNL     1      -0.525  15.304  18.573  0.00  0.00    +0.000 OA
ATOM     28  H   UNL     1      -0.505  14.586  17.910  0.00  0.00    +0.000 HD
ENDBRANCH  21  27
TORSDOF 3
ENDMDL
