MODEL 1
REMARK VINA RESULT:      -7.1      0.000      0.000
REMARK  Name = 
REMARK  10 active torsions:
REMARK  status: ('A' for Active; 'I' for Inactive)
REMARK    1  A    between atoms: C_1  and  C_2
REMARK    2  A    between atoms: C_2  and  C_3
REMARK    3  A    between atoms: C_2  and  S_4
REMARK    4  A    between atoms: S_4  and  N_7
REMARK    5  A    between atoms: N_10  and  C_11
REMARK    6  A    between atoms: C_11  and  C_12
REMARK    7  A    between atoms: N_20  and  C_21
REMARK    8  A    between atoms: C_21  and  C_22
REMARK    9  A    between atoms: C_22  and  C_23
REMARK   10  A    between atoms: C_23  and  C_24
REMARK                            x       y       z     vdW  Elec       q    Type
REMARK                         _______ _______ _______ _____ _____    ______ ____
ROOT
ATOM      1  N   UNL     1      -0.412  10.460  19.342  0.00  0.00    +0.000 N 
ATOM      2  C   UNL     1       0.740   9.808  18.828  0.00  0.00    +0.000 A 
ATOM      3  O   UNL     1       1.085   9.786  17.657  0.00  0.00    +0.000 OA
ATOM      4  N   UNL     1       1.450   9.259  19.882  0.00  0.00    +0.000 N 
ATOM      5  C   UNL     1       0.762   9.518  21.071  0.00  0.00    +0.000 A 
ATOM      6  C   UNL     1       1.064   9.139  22.366  0.00  0.00    +0.000 A 
ATOM      7  C   UNL     1       0.206   9.564  23.379  0.00  0.00    +0.000 A 
ATOM      8  C   UNL     1      -0.923  10.341  23.082  0.00  0.00    +0.000 A 
ATOM      9  C   UNL     1      -1.219  10.704  21.763  0.00  0.00    +0.000 A 
ATOM     10  C   UNL     1      -0.371  10.275  20.761  0.00  0.00    +0.000 A 
ENDROOT
BRANCH   1  11
ATOM     11  S   UNL     1      -1.587  11.241  18.484  0.00  0.00    +0.000 S 
ATOM     12  O   UNL     1      -0.999  12.274  17.654  0.00  0.00    +0.000 OA
ATOM     13  O   UNL     1      -2.658  11.592  19.396  0.00  0.00    +0.000 OA
BRANCH  11  15
ATOM     14  C   UNL     1      -3.553   9.423  17.934  0.00  0.00    +0.000 C 
ATOM     15  C   UNL     1      -2.225   9.952  17.389  0.00  0.00    +0.000 C 
ATOM     16  C   UNL     1      -2.411  10.443  15.959  0.00  0.00    +0.000 C 
ENDBRANCH  11  15
ENDBRANCH   1  11
BRANCH   4  17
ATOM     17  C   UNL     1       2.642   8.457  19.751  0.00  0.00    +0.000 C 
BRANCH  17  18
ATOM     18  C   UNL     1       2.326   6.998  19.589  0.00  0.00    +0.000 A 
ATOM     19  N   UNL     1       1.684   6.273  20.490  0.00  0.00    +0.000 NA
ATOM     20  C   UNL     1       1.505   5.035  19.937  0.00  0.00    +0.000 A 
ATOM     21  C   UNL     1       0.870   3.905  20.474  0.00  0.00    +0.000 A 
ATOM     22  C   UNL     1       0.780   2.746  19.696  0.00  0.00    +0.000 A 
ATOM     23  C   UNL     1       1.315   2.714  18.409  0.00  0.00    +0.000 A 
ATOM     24  C   UNL     1       1.962   3.830  17.860  0.00  0.00    +0.000 A 
ATOM     25  C   UNL     1       2.046   4.982  18.657  0.00  0.00    +0.000 A 
ATOM     26  N   UNL     1       2.607   6.232  18.473  0.00  0.00    +0.000 N 
BRANCH  26  27
ATOM     27  C   UNL     1       3.338   6.649  17.291  0.00  0.00    +0.000 C 
BRANCH  27  28
ATOM     28  C   UNL     1       4.853   6.492  17.418  0.00  0.00    +0.000 C 
BRANCH  28  29
ATOM     29  C   UNL     1       5.355   5.110  17.014  0.00  0.00    +0.000 C 
BRANCH  29  30
ATOM     30  C   UNL     1       6.503   5.240  16.027  0.00  0.00    +0.000 C 
ATOM     31  N   UNL     1       7.457   5.347  15.208  0.00  0.00    +0.000 NA
ENDBRANCH  29  30
ENDBRANCH  28  29
ENDBRANCH  27  28
ENDBRANCH  26  27
ENDBRANCH  17  18
ENDBRANCH   4  17
TORSDOF 8
ENDMDL
MODEL 2
REMARK VINA RESULT:      -6.9      2.437      4.215
REMARK  Name = 
REMARK  10 active torsions:
REMARK  status: ('A' for Active; 'I' for Inactive)
REMARK    1  A    between atoms: C_1  and  C_2
REMARK    2  A    between atoms: C_2  and  C_3
REMARK    3  A    between atoms: C_2  and  S_4
REMARK    4  A    between atoms: S_4  and  N_7
REMARK    5  A    between atoms: N_10  and  C_11
REMARK    6  A    between atoms: C_11  and  C_12
REMARK    7  A    between atoms: N_20  and  C_21
REMARK    8  A    between atoms: C_21  and  C_22
REMARK    9  A    between atoms: C_22  and  C_23
REMARK   10  A    between atoms: C_23  and  C_24
REMARK                            x       y       z     vdW  Elec       q    Type
REMARK                         _______ _______ _______ _____ _____    ______ ____
ROOT
ATOM      1  N   UNL     1       1.499  11.321  19.585  0.00  0.00    +0.000 N 
ATOM      2  C   UNL     1       1.755  10.411  18.526  0.00  0.00    +0.000 A 
ATOM      3  O   UNL     1       2.322  10.677  17.478  0.00  0.00    +0.000 OA
ATOM      4  N   UNL     1       1.319   9.153  18.904  0.00  0.00    +0.000 N 
ATOM      5  C   UNL     1       0.756   9.235  20.181  0.00  0.00    +0.000 A 
ATOM      6  C   UNL     1       0.161   8.252  20.949  0.00  0.00    +0.000 A 
ATOM      7  C   UNL     1      -0.297   8.611  22.215  0.00  0.00    +0.000 A 
ATOM      8  C   UNL     1      -0.160   9.928  22.680  0.00  0.00    +0.000 A 
ATOM      9  C   UNL     1       0.434  10.913  21.881  0.00  0.00    +0.000 A 
ATOM     10  C   UNL     1       0.880  10.556  20.625  0.00  0.00    +0.000 A 
ENDROOT
BRANCH   1  11
ATOM     11  S   UNL     1       1.810  12.943  19.610  0.00  0.00    +0.000 S 
ATOM     12  O   UNL     1       2.576  13.323  18.440  0.00  0.00    +0.000 OA
ATOM     13  O   UNL     1       2.311  13.290  20.926  0.00  0.00    +0.000 OA
BRANCH  11  15
ATOM     14  C   UNL     1       0.292  15.202  19.361  0.00  0.00    +0.000 C 
ATOM     15  C   UNL     1       0.167  13.681  19.457  0.00  0.00    +0.000 C 
ATOM     16  C   UNL     1      -0.601  13.147  18.254  0.00  0.00    +0.000 C 
ENDBRANCH  11  15
ENDBRANCH   1  11
BRANCH   4  17
ATOM     17  C   UNL     1       1.345   7.980  18.065  0.00  0.00    +0.000 C 
BRANCH  17  18
ATOM     18  C   UNL     1       2.692   7.316  18.062  0.00  0.00    +0.000 A 
ATOM     19  N   UNL     1       3.732   7.750  17.371  0.00  0.00    +0.000 NA
ATOM     20  C   UNL     1       4.786   6.947  17.708  0.00  0.00    +0.000 A 
ATOM     21  C   UNL     1       6.117   6.993  17.265  0.00  0.00    +0.000 A 
ATOM     22  C   UNL     1       7.035   6.074  17.784  0.00  0.00    +0.000 A 
ATOM     23  C   UNL     1       6.633   5.125  18.724  0.00  0.00    +0.000 A 
ATOM     24  C   UNL     1       5.306   5.059  19.170  0.00  0.00    +0.000 A 
ATOM     25  C   UNL     1       4.399   5.986  18.635  0.00  0.00    +0.000 A 
ATOM     26  N   UNL     1       3.047   6.210  18.812  0.00  0.00    +0.000 N 
BRANCH  26  27
ATOM     27  C   UNL     1       2.177   5.419  19.664  0.00  0.00    +0.000 C 
BRANCH  27  28
ATOM     28  C   UNL     1       1.526   4.236  18.948  0.00  0.00    +0.000 C 
BRANCH  28  29
ATOM     29  C   UNL     1       1.983   2.882  19.477  0.00  0.00    +0.000 C 
BRANCH  29  30
ATOM     30  C   UNL     1       2.159   2.942  20.985  0.00  0.00    +0.000 C 
ATOM     31  N   UNL     1       2.305   2.991  22.237  0.00  0.00    +0.000 NA
ENDBRANCH  29  30
ENDBRANCH  28  29
ENDBRANCH  27  28
ENDBRANCH  26  27
ENDBRANCH  17  18
ENDBRANCH   4  17
TORSDOF 8
ENDMDL
MODEL 3
REMARK VINA RESULT:      -6.9      3.223      7.824
REMARK  Name = 
REMARK  10 active torsions:
REMARK  status: ('A' for Active; 'I' for Inactive)
REMARK    1  A    between atoms: C_1  and  C_2
REMARK    2  A    between atoms: C_2  and  C_3
REMARK    3  A    between atoms: C_2  and  S_4
REMARK    4  A    between atoms: S_4  and  N_7
REMARK    5  A    between atoms: N_10  and  C_11
REMARK    6  A    between atoms: C_11  and  C_12
REMARK    7  A    between atoms: N_20  and  C_21
REMARK    8  A    between atoms: C_21  and  C_22
REMARK    9  A    between atoms: C_22  and  C_23
REMARK   10  A    between atoms: C_23  and  C_24
REMARK                            x       y       z     vdW  Elec       q    Type
REMARK                         _______ _______ _______ _____ _____    ______ ____
ROOT
ATOM      1  N   UNL     1       3.830   4.503  18.596  0.00  0.00    +0.000 N 
ATOM      2  C   UNL     1       2.793   5.466  18.475  0.00  0.00    +0.000 A 
ATOM      3  O   UNL     1       1.621   5.293  18.769  0.00  0.00    +0.000 OA
ATOM      4  N   UNL     1       3.340   6.658  18.034  0.00  0.00    +0.000 N 
ATOM      5  C   UNL     1       4.713   6.479  17.837  0.00  0.00    +0.000 A 
ATOM      6  C   UNL     1       5.662   7.370  17.372  0.00  0.00    +0.000 A 
ATOM      7  C   UNL     1       6.982   6.928  17.300  0.00  0.00    +0.000 A 
ATOM      8  C   UNL     1       7.321   5.621  17.681  0.00  0.00    +0.000 A 
ATOM      9  C   UNL     1       6.342   4.728  18.137  0.00  0.00    +0.000 A 
ATOM     10  C   UNL     1       5.035   5.168  18.200  0.00  0.00    +0.000 A 
ENDROOT
BRANCH   1  11
ATOM     11  S   UNL     1       3.683   2.925  19.058  0.00  0.00    +0.000 S 
ATOM     12  O   UNL     1       4.757   2.566  19.962  0.00  0.00    +0.000 OA
ATOM     13  O   UNL     1       3.461   2.122  17.871  0.00  0.00    +0.000 OA
BRANCH  11  15
ATOM     14  C   UNL     1       1.158   1.926  19.371  0.00  0.00    +0.000 C 
ATOM     15  C   UNL     1       2.141   2.912  20.002  0.00  0.00    +0.000 C 
ATOM     16  C   UNL     1       2.360   2.560  21.468  0.00  0.00    +0.000 C 
ENDBRANCH  11  15
ENDBRANCH   1  11
BRANCH   4  17
ATOM     17  C   UNL     1       2.589   7.850  17.724  0.00  0.00    +0.000 C 
BRANCH  17  18
ATOM     18  C   UNL     1       1.840   8.372  18.916  0.00  0.00    +0.000 A 
ATOM     19  N   UNL     1       2.100   8.028  20.165  0.00  0.00    +0.000 NA
ATOM     20  C   UNL     1       1.280   8.784  20.956  0.00  0.00    +0.000 A 
ATOM     21  C   UNL     1       1.172   8.812  22.355  0.00  0.00    +0.000 A 
ATOM     22  C   UNL     1       0.273   9.705  22.947  0.00  0.00    +0.000 A 
ATOM     23  C   UNL     1      -0.505  10.553  22.159  0.00  0.00    +0.000 A 
ATOM     24  C   UNL     1      -0.416  10.532  20.759  0.00  0.00    +0.000 A 
ATOM     25  C   UNL     1       0.487   9.626  20.185  0.00  0.00    +0.000 A 
ATOM     26  N   UNL     1       0.828   9.313  18.882  0.00  0.00    +0.000 N 
BRANCH  26  27
ATOM     27  C   UNL     1       0.226   9.904  17.701  0.00  0.00    +0.000 C 
BRANCH  27  28
ATOM     28  C   UNL     1      -1.118  10.581  17.969  0.00  0.00    +0.000 C 
BRANCH  28  29
ATOM     29  C   UNL     1      -2.308   9.809  17.409  0.00  0.00    +0.000 C 
BRANCH  29  30
ATOM     30  C   UNL     1      -2.680  10.345  16.038  0.00  0.00    +0.000 C 
ATOM     31  N   UNL     1      -2.988  10.790  14.898  0.00  0.00    +0.000 NA
ENDBRANCH  29  30
ENDBRANCH  28  29
ENDBRANCH  27  28
ENDBRANCH  26  27
ENDBRANCH  17  18
ENDBRANCH   4  17
TORSDOF 8
ENDMDL
MODEL 4
REMARK VINA RESULT:      -6.9      3.213      7.820
REMARK  Name = 
REMARK  10 active torsions:
REMARK  status: ('A' for Active; 'I' for Inactive)
REMARK    1  A    between atoms: C_1  and  C_2
REMARK    2  A    between atoms: C_2  and  C_3
REMARK    3  A    between atoms: C_2  and  S_4
REMARK    4  A    between atoms: S_4  and  N_7
REMARK    5  A    between atoms: N_10  and  C_11
REMARK    6  A    between atoms: C_11  and  C_12
REMARK    7  A    between atoms: N_20  and  C_21
REMARK    8  A    between atoms: C_21  and  C_22
REMARK    9  A    between atoms: C_22  and  C_23
REMARK   10  A    between atoms: C_23  and  C_24
REMARK                            x       y       z     vdW  Elec       q    Type
REMARK                         _______ _______ _______ _____ _____    ______ ____
ROOT
ATOM      1  N   UNL     1       3.672   4.515  19.229  0.00  0.00    +0.000 N 
ATOM      2  C   UNL     1       2.640   5.476  19.063  0.00  0.00    +0.000 A 
ATOM      3  O   UNL     1       1.493   5.370  19.469  0.00  0.00    +0.000 OA
ATOM      4  N   UNL     1       3.164   6.588  18.426  0.00  0.00    +0.000 N 
ATOM      5  C   UNL     1       4.514   6.354  18.148  0.00  0.00    +0.000 A 
ATOM      6  C   UNL     1       5.433   7.155  17.497  0.00  0.00    +0.000 A 
ATOM      7  C   UNL     1       6.737   6.678  17.381  0.00  0.00    +0.000 A 
ATOM      8  C   UNL     1       7.091   5.425  17.904  0.00  0.00    +0.000 A 
ATOM      9  C   UNL     1       6.142   4.622  18.549  0.00  0.00    +0.000 A 
ATOM     10  C   UNL     1       4.849   5.095  18.656  0.00  0.00    +0.000 A 
ENDROOT
BRANCH   1  11
ATOM     11  S   UNL     1       3.544   3.015  19.906  0.00  0.00    +0.000 S 
ATOM     12  O   UNL     1       2.728   3.074  21.103  0.00  0.00    +0.000 OA
ATOM     13  O   UNL     1       4.871   2.436  19.984  0.00  0.00    +0.000 OA
BRANCH  11  15
ATOM     14  C   UNL     1       1.131   2.150  18.958  0.00  0.00    +0.000 C 
ATOM     15  C   UNL     1       2.629   2.076  18.662  0.00  0.00    +0.000 C 
ATOM     16  C   UNL     1       2.902   2.568  17.246  0.00  0.00    +0.000 C 
ENDBRANCH  11  15
ENDBRANCH   1  11
BRANCH   4  17
ATOM     17  C   UNL     1       2.405   7.746  18.021  0.00  0.00    +0.000 C 
BRANCH  17  18
ATOM     18  C   UNL     1       1.671   8.372  19.172  0.00  0.00    +0.000 A 
ATOM     19  N   UNL     1       1.821   8.009  20.434  0.00  0.00    +0.000 NA
ATOM     20  C   UNL     1       1.068   8.873  21.180  0.00  0.00    +0.000 A 
ATOM     21  C   UNL     1       0.894   8.928  22.571  0.00  0.00    +0.000 A 
ATOM     22  C   UNL     1       0.090   9.936  23.113  0.00  0.00    +0.000 A 
ATOM     23  C   UNL     1      -0.531  10.869  22.284  0.00  0.00    +0.000 A 
ATOM     24  C   UNL     1      -0.376  10.823  20.891  0.00  0.00    +0.000 A 
ATOM     25  C   UNL     1       0.430   9.802  20.366  0.00  0.00    +0.000 A 
ATOM     26  N   UNL     1       0.792   9.436  19.084  0.00  0.00    +0.000 N 
BRANCH  26  27
ATOM     27  C   UNL     1       0.332  10.088  17.871  0.00  0.00    +0.000 C 
BRANCH  27  28
ATOM     28  C   UNL     1      -1.083   9.686  17.456  0.00  0.00    +0.000 C 
BRANCH  28  29
ATOM     29  C   UNL     1      -2.094  10.821  17.570  0.00  0.00    +0.000 C 
BRANCH  29  30
ATOM     30  C   UNL     1      -2.985  10.852  16.339  0.00  0.00    +0.000 C 
ATOM     31  N   UNL     1      -3.724  10.879  15.317  0.00  0.00    +0.000 NA
ENDBRANCH  29  30
ENDBRANCH  28  29
ENDBRANCH  27  28
ENDBRANCH  26  27
ENDBRANCH  17  18
ENDBRANCH   4  17
TORSDOF 8
ENDMDL
MODEL 5
REMARK VINA RESULT:      -6.9      3.181      7.835
REMARK  Name = 
REMARK  10 active torsions:
REMARK  status: ('A' for Active; 'I' for Inactive)
REMARK    1  A    between atoms: C_1  and  C_2
REMARK    2  A    between atoms: C_2  and  C_3
REMARK    3  A    between atoms: C_2  and  S_4
REMARK    4  A    between atoms: S_4  and  N_7
REMARK    5  A    between atoms: N_10  and  C_11
REMARK    6  A    between atoms: C_11  and  C_12
REMARK    7  A    between atoms: N_20  and  C_21
REMARK    8  A    between atoms: C_21  and  C_22
REMARK    9  A    between atoms: C_22  and  C_23
REMARK   10  A    between atoms: C_23  and  C_24
REMARK                            x       y       z     vdW  Elec       q    Type
REMARK                         _______ _______ _______ _____ _____    ______ ____
ROOT
ATOM      1  N   UNL     1       3.864   4.534  18.577  0.00  0.00    +0.000 N 
ATOM      2  C   UNL     1       2.803   5.472  18.469  0.00  0.00    +0.000 A 
ATOM      3  O   UNL     1       1.635   5.266  18.758  0.00  0.00    +0.000 OA
ATOM      4  N   UNL     1       3.322   6.684  18.047  0.00  0.00    +0.000 N 
ATOM      5  C   UNL     1       4.699   6.542  17.850  0.00  0.00    +0.000 A 
ATOM      6  C   UNL     1       5.626   7.463  17.401  0.00  0.00    +0.000 A 
ATOM      7  C   UNL     1       6.957   7.055  17.325  0.00  0.00    +0.000 A 
ATOM      8  C   UNL     1       7.327   5.751  17.687  0.00  0.00    +0.000 A 
ATOM      9  C   UNL     1       6.370   4.828  18.127  0.00  0.00    +0.000 A 
ATOM     10  C   UNL     1       5.053   5.234  18.194  0.00  0.00    +0.000 A 
ENDROOT
BRANCH   1  11
ATOM     11  S   UNL     1       3.755   2.946  19.015  0.00  0.00    +0.000 S 
ATOM     12  O   UNL     1       4.813   2.610  19.947  0.00  0.00    +0.000 OA
ATOM     13  O   UNL     1       3.593   2.152  17.813  0.00  0.00    +0.000 OA
BRANCH  11  15
ATOM     14  C   UNL     1       1.246   1.882  19.225  0.00  0.00    +0.000 C 
ATOM     15  C   UNL     1       2.188   2.871  19.913  0.00  0.00    +0.000 C 
ATOM     16  C   UNL     1       2.372   2.480  21.374  0.00  0.00    +0.000 C 
ENDBRANCH  11  15
ENDBRANCH   1  11
BRANCH   4  17
ATOM     17  C   UNL     1       2.543   7.862  17.754  0.00  0.00    +0.000 C 
BRANCH  17  18
ATOM     18  C   UNL     1       1.804   8.366  18.961  0.00  0.00    +0.000 A 
ATOM     19  N   UNL     1       2.034   7.957  20.196  0.00  0.00    +0.000 NA
ATOM     20  C   UNL     1       1.240   8.716  21.011  0.00  0.00    +0.000 A 
ATOM     21  C   UNL     1       1.118   8.688  22.409  0.00  0.00    +0.000 A 
ATOM     22  C   UNL     1       0.253   9.596  23.030  0.00  0.00    +0.000 A 
ATOM     23  C   UNL     1      -0.476  10.512  22.272  0.00  0.00    +0.000 A 
ATOM     24  C   UNL     1      -0.373  10.546  20.875  0.00  0.00    +0.000 A 
ATOM     25  C   UNL     1       0.495   9.625  20.270  0.00  0.00    +0.000 A 
ATOM     26  N   UNL     1       0.836   9.353  18.958  0.00  0.00    +0.000 N 
BRANCH  26  27
ATOM     27  C   UNL     1       0.275  10.021  17.798  0.00  0.00    +0.000 C 
BRANCH  27  28
ATOM     28  C   UNL     1      -1.245   9.898  17.692  0.00  0.00    +0.000 C 
BRANCH  28  29
ATOM     29  C   UNL     1      -1.940  11.218  17.381  0.00  0.00    +0.000 C 
BRANCH  29  30
ATOM     30  C   UNL     1      -1.159  12.374  17.983  0.00  0.00    +0.000 C 
ATOM     31  N   UNL     1      -0.511  13.334  18.483  0.00  0.00    +0.000 NA
ENDBRANCH  29  30
ENDBRANCH  28  29
ENDBRANCH  27  28
ENDBRANCH  26  27
ENDBRANCH  17  18
ENDBRANCH   4  17
TORSDOF 8
ENDMDL
MODEL 6
REMARK VINA RESULT:      -6.7      3.077      7.893
REMARK  Name = 
REMARK  10 active torsions:
REMARK  status: ('A' for Active; 'I' for Inactive)
REMARK    1  A    between atoms: C_1  and  C_2
REMARK    2  A    between atoms: C_2  and  C_3
REMARK    3  A    between atoms: C_2  and  S_4
REMARK    4  A    between atoms: S_4  and  N_7
REMARK    5  A    between atoms: N_10  and  C_11
REMARK    6  A    between atoms: C_11  and  C_12
REMARK    7  A    between atoms: N_20  and  C_21
REMARK    8  A    between atoms: C_21  and  C_22
REMARK    9  A    between atoms: C_22  and  C_23
REMARK   10  A    between atoms: C_23  and  C_24
REMARK                            x       y       z     vdW  Elec       q    Type
REMARK                         _______ _______ _______ _____ _____    ______ ____
ROOT
ATOM      1  N   UNL     1       3.234   4.443  18.091  0.00  0.00    +0.000 N 
ATOM      2  C   UNL     1       2.346   5.551  18.048  0.00  0.00    +0.000 A 
ATOM      3  O   UNL     1       1.134   5.500  18.189  0.00  0.00    +0.000 OA
ATOM      4  N   UNL     1       3.086   6.710  17.890  0.00  0.00    +0.000 N 
ATOM      5  C   UNL     1       4.440   6.372  17.799  0.00  0.00    +0.000 A 
ATOM      6  C   UNL     1       5.541   7.183  17.602  0.00  0.00    +0.000 A 
ATOM      7  C   UNL     1       6.795   6.576  17.579  0.00  0.00    +0.000 A 
ATOM      8  C   UNL     1       6.921   5.188  17.745  0.00  0.00    +0.000 A 
ATOM      9  C   UNL     1       5.792   4.381  17.930  0.00  0.00    +0.000 A 
ATOM     10  C   UNL     1       4.551   4.986  17.945  0.00  0.00    +0.000 A 
ENDROOT
BRANCH   1  11
ATOM     11  S   UNL     1       2.838   2.847  18.238  0.00  0.00    +0.000 S 
ATOM     12  O   UNL     1       3.835   2.022  17.585  0.00  0.00    +0.000 OA
ATOM     13  O   UNL     1       1.443   2.689  17.877  0.00  0.00    +0.000 OA
BRANCH  11  15
ATOM     14  C   UNL     1       4.408   2.228  20.388  0.00  0.00    +0.000 C 
ATOM     15  C   UNL     1       2.960   2.553  20.017  0.00  0.00    +0.000 C 
ATOM     16  C   UNL     1       2.468   3.739  20.838  0.00  0.00    +0.000 C 
ENDBRANCH  11  15
ENDBRANCH   1  11
BRANCH   4  17
ATOM     17  C   UNL     1       2.532   8.032  17.733  0.00  0.00    +0.000 C 
BRANCH  17  18
ATOM     18  C   UNL     1       1.785   8.481  18.957  0.00  0.00    +0.000 A 
ATOM     19  N   UNL     1       2.021   8.030  20.177  0.00  0.00    +0.000 NA
ATOM     20  C   UNL     1       1.216   8.747  21.018  0.00  0.00    +0.000 A 
ATOM     21  C   UNL     1       1.093   8.667  22.414  0.00  0.00    +0.000 A 
ATOM     22  C   UNL     1       0.215   9.539  23.067  0.00  0.00    +0.000 A 
ATOM     23  C   UNL     1      -0.527  10.471  22.342  0.00  0.00    +0.000 A 
ATOM     24  C   UNL     1      -0.423  10.559  20.947  0.00  0.00    +0.000 A 
ATOM     25  C   UNL     1       0.458   9.673  20.309  0.00  0.00    +0.000 A 
ATOM     26  N   UNL     1       0.803   9.454  18.989  0.00  0.00    +0.000 N 
BRANCH  26  27
ATOM     27  C   UNL     1       0.233  10.156  17.853  0.00  0.00    +0.000 C 
BRANCH  27  28
ATOM     28  C   UNL     1      -1.220   9.780  17.565  0.00  0.00    +0.000 C 
BRANCH  28  29
ATOM     29  C   UNL     1      -2.074  10.962  17.118  0.00  0.00    +0.000 C 
BRANCH  29  30
ATOM     30  C   UNL     1      -2.769  11.586  18.315  0.00  0.00    +0.000 C 
ATOM     31  N   UNL     1      -3.346  12.105  19.310  0.00  0.00    +0.000 NA
ENDBRANCH  29  30
ENDBRANCH  28  29
ENDBRANCH  27  28
ENDBRANCH  26  27
ENDBRANCH  17  18
ENDBRANCH   4  17
TORSDOF 8
ENDMDL
MODEL 7
REMARK VINA RESULT:      -6.7      2.455      3.934
REMARK  Name = 
REMARK  10 active torsions:
REMARK  status: ('A' for Active; 'I' for Inactive)
REMARK    1  A    between atoms: C_1  and  C_2
REMARK    2  A    between atoms: C_2  and  C_3
REMARK    3  A    between atoms: C_2  and  S_4
REMARK    4  A    between atoms: S_4  and  N_7
REMARK    5  A    between atoms: N_10  and  C_11
REMARK    6  A    between atoms: C_11  and  C_12
REMARK    7  A    between atoms: N_20  and  C_21
REMARK    8  A    between atoms: C_21  and  C_22
REMARK    9  A    between atoms: C_22  and  C_23
REMARK   10  A    between atoms: C_23  and  C_24
REMARK                            x       y       z     vdW  Elec       q    Type
REMARK                         _______ _______ _______ _____ _____    ______ ____
ROOT
ATOM      1  N   UNL     1       1.511  11.341  19.643  0.00  0.00    +0.000 N 
ATOM      2  C   UNL     1       1.768  10.429  18.585  0.00  0.00    +0.000 A 
ATOM      3  O   UNL     1       2.353  10.688  17.545  0.00  0.00    +0.000 OA
ATOM      4  N   UNL     1       1.308   9.177  18.955  0.00  0.00    +0.000 N 
ATOM      5  C   UNL     1       0.729   9.265  20.224  0.00  0.00    +0.000 A 
ATOM      6  C   UNL     1       0.110   8.290  20.982  0.00  0.00    +0.000 A 
ATOM      7  C   UNL     1      -0.360   8.653  22.243  0.00  0.00    +0.000 A 
ATOM      8  C   UNL     1      -0.210   9.967  22.712  0.00  0.00    +0.000 A 
ATOM      9  C   UNL     1       0.409  10.944  21.923  0.00  0.00    +0.000 A 
ATOM     10  C   UNL     1       0.866  10.583  20.672  0.00  0.00    +0.000 A 
ENDROOT
BRANCH   1  11
ATOM     11  S   UNL     1       1.846  12.957  19.675  0.00  0.00    +0.000 S 
ATOM     12  O   UNL     1       2.614  13.333  18.505  0.00  0.00    +0.000 OA
ATOM     13  O   UNL     1       2.355  13.291  20.991  0.00  0.00    +0.000 OA
BRANCH  11  15
ATOM     14  C   UNL     1       0.357  15.243  19.494  0.00  0.00    +0.000 C 
ATOM     15  C   UNL     1       0.214  13.721  19.530  0.00  0.00    +0.000 C 
ATOM     16  C   UNL     1      -0.545  13.243  18.298  0.00  0.00    +0.000 C 
ENDBRANCH  11  15
ENDBRANCH   1  11
BRANCH   4  17
ATOM     17  C   UNL     1       1.328   8.005  18.113  0.00  0.00    +0.000 C 
BRANCH  17  18
ATOM     18  C   UNL     1       2.676   7.343  18.097  0.00  0.00    +0.000 A 
ATOM     19  N   UNL     1       3.678   7.717  17.321  0.00  0.00    +0.000 NA
ATOM     20  C   UNL     1       4.750   6.944  17.669  0.00  0.00    +0.000 A 
ATOM     21  C   UNL     1       6.057   6.953  17.157  0.00  0.00    +0.000 A 
ATOM     22  C   UNL     1       7.003   6.080  17.703  0.00  0.00    +0.000 A 
ATOM     23  C   UNL     1       6.654   5.214  18.739  0.00  0.00    +0.000 A 
ATOM     24  C   UNL     1       5.351   5.185  19.256  0.00  0.00    +0.000 A 
ATOM     25  C   UNL     1       4.414   6.064  18.692  0.00  0.00    +0.000 A 
ATOM     26  N   UNL     1       3.072   6.303  18.918  0.00  0.00    +0.000 N 
BRANCH  26  27
ATOM     27  C   UNL     1       2.250   5.587  19.876  0.00  0.00    +0.000 C 
BRANCH  27  28
ATOM     28  C   UNL     1       1.488   4.408  19.272  0.00  0.00    +0.000 C 
BRANCH  28  29
ATOM     29  C   UNL     1       1.982   4.015  17.884  0.00  0.00    +0.000 C 
BRANCH  29  30
ATOM     30  C   UNL     1       2.784   2.727  17.960  0.00  0.00    +0.000 C 
ATOM     31  N   UNL     1       3.450   1.657  18.022  0.00  0.00    +0.000 NA
ENDBRANCH  29  30
ENDBRANCH  28  29
ENDBRANCH  27  28
ENDBRANCH  26  27
ENDBRANCH  17  18
ENDBRANCH   4  17
TORSDOF 8
ENDMDL
MODEL 8
REMARK VINA RESULT:      -6.5      3.399      7.996
REMARK  Name = 
REMARK  10 active torsions:
REMARK  status: ('A' for Active; 'I' for Inactive)
REMARK    1  A    between atoms: C_1  and  C_2
REMARK    2  A    between atoms: C_2  and  C_3
REMARK    3  A    between atoms: C_2  and  S_4
REMARK    4  A    between atoms: S_4  and  N_7
REMARK    5  A    between atoms: N_10  and  C_11
REMARK    6  A    between atoms: C_11  and  C_12
REMARK    7  A    between atoms: N_20  and  C_21
REMARK    8  A    between atoms: C_21  and  C_22
REMARK    9  A    between atoms: C_22  and  C_23
REMARK   10  A    between atoms: C_23  and  C_24
REMARK                            x       y       z     vdW  Elec       q    Type
REMARK                         _______ _______ _______ _____ _____    ______ ____
ROOT
ATOM      1  N   UNL     1       4.588   5.741  18.469  0.00  0.00    +0.000 N 
ATOM      2  C   UNL     1       3.797   6.729  17.825  0.00  0.00    +0.000 A 
ATOM      3  O   UNL     1       4.188   7.514  16.976  0.00  0.00    +0.000 OA
ATOM      4  N   UNL     1       2.490   6.610  18.265  0.00  0.00    +0.000 N 
ATOM      5  C   UNL     1       2.423   5.580  19.208  0.00  0.00    +0.000 A 
ATOM      6  C   UNL     1       1.345   5.123  19.942  0.00  0.00    +0.000 A 
ATOM      7  C   UNL     1       1.558   4.048  20.803  0.00  0.00    +0.000 A 
ATOM      8  C   UNL     1       2.829   3.464  20.917  0.00  0.00    +0.000 A 
ATOM      9  C   UNL     1       3.912   3.950  20.175  0.00  0.00    +0.000 A 
ATOM     10  C   UNL     1       3.698   5.019  19.329  0.00  0.00    +0.000 A 
ENDROOT
BRANCH   1  11
ATOM     11  S   UNL     1       6.212   5.492  18.302  0.00  0.00    +0.000 S 
ATOM     12  O   UNL     1       6.722   4.740  19.431  0.00  0.00    +0.000 OA
ATOM     13  O   UNL     1       6.833   6.756  17.957  0.00  0.00    +0.000 OA
BRANCH  11  15
ATOM     14  C   UNL     1       4.955   3.803  16.559  0.00  0.00    +0.000 C 
ATOM     15  C   UNL     1       6.319   4.434  16.840  0.00  0.00    +0.000 C 
ATOM     16  C   UNL     1       6.804   5.190  15.609  0.00  0.00    +0.000 C 
ENDBRANCH  11  15
ENDBRANCH   1  11
BRANCH   4  17
ATOM     17  C   UNL     1       1.406   7.484  17.889  0.00  0.00    +0.000 C 
BRANCH  17  18
ATOM     18  C   UNL     1       1.622   8.891  18.368  0.00  0.00    +0.000 A 
ATOM     19  N   UNL     1       1.999   9.891  17.590  0.00  0.00    +0.000 NA
ATOM     20  C   UNL     1       1.986  11.015  18.368  0.00  0.00    +0.000 A 
ATOM     21  C   UNL     1       2.292  12.340  18.021  0.00  0.00    +0.000 A 
ATOM     22  C   UNL     1       2.172  13.339  18.993  0.00  0.00    +0.000 A 
ATOM     23  C   UNL     1       1.758  13.023  20.286  0.00  0.00    +0.000 A 
ATOM     24  C   UNL     1       1.458  11.703  20.653  0.00  0.00    +0.000 A 
ATOM     25  C   UNL     1       1.589  10.715  19.666  0.00  0.00    +0.000 A 
ATOM     26  N   UNL     1       1.406   9.345  19.656  0.00  0.00    +0.000 N 
BRANCH  26  27
ATOM     27  C   UNL     1       1.029   8.548  20.809  0.00  0.00    +0.000 C 
BRANCH  27  28
ATOM     28  C   UNL     1      -0.352   8.891  21.368  0.00  0.00    +0.000 C 
BRANCH  28  29
ATOM     29  C   UNL     1      -0.329   9.289  22.839  0.00  0.00    +0.000 C 
BRANCH  29  30
ATOM     30  C   UNL     1      -1.043  10.616  23.032  0.00  0.00    +0.000 C 
ATOM     31  N   UNL     1      -1.635  11.719  23.192  0.00  0.00    +0.000 NA
ENDBRANCH  29  30
ENDBRANCH  28  29
ENDBRANCH  27  28
ENDBRANCH  26  27
ENDBRANCH  17  18
ENDBRANCH   4  17
TORSDOF 8
ENDMDL
MODEL 9
REMARK VINA RESULT:      -6.5      1.234      1.520
REMARK  Name = 
REMARK  10 active torsions:
REMARK  status: ('A' for Active; 'I' for Inactive)
REMARK    1  A    between atoms: C_1  and  C_2
REMARK    2  A    between atoms: C_2  and  C_3
REMARK    3  A    between atoms: C_2  and  S_4
REMARK    4  A    between atoms: S_4  and  N_7
REMARK    5  A    between atoms: N_10  and  C_11
REMARK    6  A    between atoms: C_11  and  C_12
REMARK    7  A    between atoms: N_20  and  C_21
REMARK    8  A    between atoms: C_21  and  C_22
REMARK    9  A    between atoms: C_22  and  C_23
REMARK   10  A    between atoms: C_23  and  C_24
REMARK                            x       y       z     vdW  Elec       q    Type
REMARK                         _______ _______ _______ _____ _____    ______ ____
ROOT
ATOM      1  N   UNL     1      -0.433  10.362  19.451  0.00  0.00    +0.000 N 
ATOM      2  C   UNL     1       0.712   9.703  18.930  0.00  0.00    +0.000 A 
ATOM      3  O   UNL     1       1.040   9.662  17.755  0.00  0.00    +0.000 OA
ATOM      4  N   UNL     1       1.439   9.173  19.983  0.00  0.00    +0.000 N 
ATOM      5  C   UNL     1       0.769   9.450  21.178  0.00  0.00    +0.000 A 
ATOM      6  C   UNL     1       1.091   9.093  22.474  0.00  0.00    +0.000 A 
ATOM      7  C   UNL     1       0.248   9.533  23.493  0.00  0.00    +0.000 A 
ATOM      8  C   UNL     1      -0.888  10.304  23.200  0.00  0.00    +0.000 A 
ATOM      9  C   UNL     1      -1.204  10.644  21.880  0.00  0.00    +0.000 A 
ATOM     10  C   UNL     1      -0.371  10.200  20.873  0.00  0.00    +0.000 A 
ENDROOT
BRANCH   1  11
ATOM     11  S   UNL     1      -1.623  11.126  18.599  0.00  0.00    +0.000 S 
ATOM     12  O   UNL     1      -2.622  10.170  18.166  0.00  0.00    +0.000 OA
ATOM     13  O   UNL     1      -0.996  11.987  17.614  0.00  0.00    +0.000 OA
BRANCH  11  15
ATOM     14  C   UNL     1      -1.688  13.563  19.835  0.00  0.00    +0.000 C 
ATOM     15  C   UNL     1      -2.388  12.203  19.832  0.00  0.00    +0.000 C 
ATOM     16  C   UNL     1      -3.882  12.390  19.595  0.00  0.00    +0.000 C 
ENDBRANCH  11  15
ENDBRANCH   1  11
BRANCH   4  17
ATOM     17  C   UNL     1       2.630   8.371  19.847  0.00  0.00    +0.000 C 
BRANCH  17  18
ATOM     18  C   UNL     1       2.313   6.915  19.660  0.00  0.00    +0.000 A 
ATOM     19  N   UNL     1       1.677   6.174  20.551  0.00  0.00    +0.000 NA
ATOM     20  C   UNL     1       1.495   4.947  19.976  0.00  0.00    +0.000 A 
ATOM     21  C   UNL     1       0.863   3.806  20.496  0.00  0.00    +0.000 A 
ATOM     22  C   UNL     1       0.768   2.662  19.698  0.00  0.00    +0.000 A 
ATOM     23  C   UNL     1       1.294   2.654  18.406  0.00  0.00    +0.000 A 
ATOM     24  C   UNL     1       1.937   3.781  17.875  0.00  0.00    +0.000 A 
ATOM     25  C   UNL     1       2.027   4.917  18.693  0.00  0.00    +0.000 A 
ATOM     26  N   UNL     1       2.586   6.170  18.528  0.00  0.00    +0.000 N 
BRANCH  26  27
ATOM     27  C   UNL     1       3.310   6.609  17.349  0.00  0.00    +0.000 C 
BRANCH  27  28
ATOM     28  C   UNL     1       4.732   6.058  17.260  0.00  0.00    +0.000 C 
BRANCH  28  29
ATOM     29  C   UNL     1       5.295   6.056  15.843  0.00  0.00    +0.000 C 
BRANCH  29  30
ATOM     30  C   UNL     1       6.609   5.296  15.803  0.00  0.00    +0.000 C 
ATOM     31  N   UNL     1       7.701   4.665  15.771  0.00  0.00    +0.000 NA
ENDBRANCH  29  30
ENDBRANCH  28  29
ENDBRANCH  27  28
ENDBRANCH  26  27
ENDBRANCH  17  18
ENDBRANCH   4  17
TORSDOF 8
ENDMDL
