MODEL 1
REMARK VINA RESULT:      -6.0      0.000      0.000
REMARK  Name = 
REMARK  16 active torsions:
REMARK  status: ('A' for Active; 'I' for Inactive)
REMARK    1  A    between atoms: C_1  and  O_2
REMARK    2  A    between atoms: O_2  and  C_3
REMARK    3  A    between atoms: C_6  and  C_7
REMARK    4  A    between atoms: C_7  and  C_8
REMARK    5  A    between atoms: N_10  and  O_11
REMARK    6  A    between atoms: N_10  and  C_12
REMARK    7  A    between atoms: C_12  and  C_13
REMARK    8  A    between atoms: C_13  and  O_14
REMARK    9  A    between atoms: O_14  and  C_15
REMARK   10  A    between atoms: C_15  and  C_17
REMARK   11  A    between atoms: C_17  and  N_18
REMARK   12  A    between atoms: C_17  and  C_19
REMARK   13  A    between atoms: C_19  and  C_20
REMARK   14  A    between atoms: C_20  and  S_21
REMARK   15  A    between atoms: S_21  and  C_22
REMARK   16  A    between atoms: C_24  and  O_25
REMARK                            x       y       z     vdW  Elec       q    Type
REMARK                         _______ _______ _______ _____ _____    ______ ____
ROOT
ATOM      1  C   UNL     1       3.293   3.211  18.644  0.00  0.00    +0.000 C 
ATOM      2  O   UNL     1       3.713   2.535  19.588  0.00  0.00    +0.000 OA
ATOM      3  N   UNL     1       2.245   4.080  18.798  0.00  0.00    +0.000 N 
ENDROOT
BRANCH   3   4
ATOM      4  O   UNL     1       1.689   4.765  17.706  0.00  0.00    +0.000 OA
ATOM      5  H   UNL     1       1.554   5.671  18.042  0.00  0.00    +0.000 HD
ENDBRANCH   3   4
BRANCH   1   6
ATOM      6  C   UNL     1       3.974   3.147  17.285  0.00  0.00    +0.000 C 
BRANCH   6  10
ATOM      7  C   UNL     1       6.996   6.217  16.664  0.00  0.00    +0.000 A 
ATOM      8  C   UNL     1       6.166   6.224  17.791  0.00  0.00    +0.000 A 
ATOM      9  C   UNL     1       5.208   5.226  17.998  0.00  0.00    +0.000 A 
ATOM     10  C   UNL     1       5.058   4.184  17.074  0.00  0.00    +0.000 A 
ATOM     11  C   UNL     1       5.867   4.196  15.927  0.00  0.00    +0.000 A 
ATOM     12  C   UNL     1       6.833   5.192  15.729  0.00  0.00    +0.000 A 
BRANCH   7  14
ATOM     13  C   UNL     1       7.795   8.235  17.672  0.00  0.00    +0.000 C 
ATOM     14  O   UNL     1       7.876   7.266  16.635  0.00  0.00    +0.000 OA
ENDBRANCH   7  14
BRANCH  12  15
ATOM     15  O   UNL     1       7.598   5.128  14.596  0.00  0.00    +0.000 OA
ATOM     16  H   UNL     1       8.478   5.493  14.782  0.00  0.00    +0.000 HD
ENDBRANCH  12  15
ENDBRANCH   6  10
ENDBRANCH   1   6
BRANCH   3  17
ATOM     17  C   UNL     1       1.401   4.104  19.988  0.00  0.00    +0.000 C 
BRANCH  17  18
ATOM     18  C   UNL     1       1.485   5.422  20.756  0.00  0.00    +0.000 C 
BRANCH  18  19
ATOM     19  O   UNL     1       2.184   6.410  19.969  0.00  0.00    +0.000 OA
BRANCH  19  20
ATOM     20  C   UNL     1       1.813   7.697  20.196  0.00  0.00    +0.000 C 
ATOM     21  O   UNL     1       1.339   8.124  21.244  0.00  0.00    +0.000 OA
BRANCH  20  22
ATOM     22  C   UNL     1       2.079   8.587  18.972  0.00  0.00    +0.000 C 
BRANCH  22  23
ATOM     23  N   UNL     1       2.440   7.727  17.818  0.00  0.00    +0.000 NA
ATOM     24  H   UNL     1       1.612   7.619  17.226  0.00  0.00    +0.000 HD
ATOM     25  H   UNL     1       2.648   6.789  18.162  0.00  0.00    +0.000 HD
ENDBRANCH  22  23
BRANCH  22  26
ATOM     26  C   UNL     1       0.815   9.390  18.623  0.00  0.00    +0.000 C 
BRANCH  26  27
ATOM     27  C   UNL     1       0.689  10.738  19.344  0.00  0.00    +0.000 C 
BRANCH  27  28
ATOM     28  S   UNL     1      -0.955  11.480  19.101  0.00  0.00    +0.000 S 
ATOM     29  C   UNL     1      -0.459  13.048  18.356  0.00  0.00    +0.000 C 
ENDBRANCH  27  28
ENDBRANCH  26  27
ENDBRANCH  22  26
ENDBRANCH  20  22
ENDBRANCH  19  20
ENDBRANCH  18  19
ENDBRANCH  17  18
ENDBRANCH   3  17
TORSDOF 14
ENDMDL
MODEL 2
REMARK VINA RESULT:      -5.9      2.397      3.120
REMARK  Name = 
REMARK  16 active torsions:
REMARK  status: ('A' for Active; 'I' for Inactive)
REMARK    1  A    between atoms: C_1  and  O_2
REMARK    2  A    between atoms: O_2  and  C_3
REMARK    3  A    between atoms: C_6  and  C_7
REMARK    4  A    between atoms: C_7  and  C_8
REMARK    5  A    between atoms: N_10  and  O_11
REMARK    6  A    between atoms: N_10  and  C_12
REMARK    7  A    between atoms: C_12  and  C_13
REMARK    8  A    between atoms: C_13  and  O_14
REMARK    9  A    between atoms: O_14  and  C_15
REMARK   10  A    between atoms: C_15  and  C_17
REMARK   11  A    between atoms: C_17  and  N_18
REMARK   12  A    between atoms: C_17  and  C_19
REMARK   13  A    between atoms: C_19  and  C_20
REMARK   14  A    between atoms: C_20  and  S_21
REMARK   15  A    between atoms: S_21  and  C_22
REMARK   16  A    between atoms: C_24  and  O_25
REMARK                            x       y       z     vdW  Elec       q    Type
REMARK                         _______ _______ _______ _____ _____    ______ ____
ROOT
ATOM      1  C   UNL     1       4.220   3.087  18.040  0.00  0.00    +0.000 C 
ATOM      2  O   UNL     1       4.846   2.700  19.032  0.00  0.00    +0.000 OA
ATOM      3  N   UNL     1       2.880   2.843  17.900  0.00  0.00    +0.000 N 
ENDROOT
BRANCH   3   4
ATOM      4  O   UNL     1       2.189   3.178  16.726  0.00  0.00    +0.000 OA
ATOM      5  H   UNL     1       1.486   2.503  16.668  0.00  0.00    +0.000 HD
ENDBRANCH   3   4
BRANCH   1   6
ATOM      6  C   UNL     1       4.913   3.912  16.965  0.00  0.00    +0.000 C 
BRANCH   6  10
ATOM      7  C   UNL     1       7.706   6.931  18.390  0.00  0.00    +0.000 A 
ATOM      8  C   UNL     1       7.015   7.084  17.182  0.00  0.00    +0.000 A 
ATOM      9  C   UNL     1       6.104   6.122  16.735  0.00  0.00    +0.000 A 
ATOM     10  C   UNL     1       5.857   4.972  17.495  0.00  0.00    +0.000 A 
ATOM     11  C   UNL     1       6.575   4.801  18.689  0.00  0.00    +0.000 A 
ATOM     12  C   UNL     1       7.479   5.774  19.139  0.00  0.00    +0.000 A 
BRANCH   7  14
ATOM     13  C   UNL     1       8.294   9.223  18.037  0.00  0.00    +0.000 C 
ATOM     14  O   UNL     1       8.547   7.975  18.667  0.00  0.00    +0.000 OA
ENDBRANCH   7  14
BRANCH  12  15
ATOM     15  O   UNL     1       8.129   5.547  20.322  0.00  0.00    +0.000 OA
ATOM     16  H   UNL     1       7.835   4.699  20.693  0.00  0.00    +0.000 HD
ENDBRANCH  12  15
ENDBRANCH   6  10
ENDBRANCH   1   6
BRANCH   3  17
ATOM     17  C   UNL     1       2.147   1.921  18.762  0.00  0.00    +0.000 C 
BRANCH  17  18
ATOM     18  C   UNL     1       0.772   2.449  19.171  0.00  0.00    +0.000 C 
BRANCH  18  19
ATOM     19  O   UNL     1       0.884   3.809  19.642  0.00  0.00    +0.000 OA
BRANCH  19  20
ATOM     20  C   UNL     1       1.462   3.952  20.863  0.00  0.00    +0.000 C 
ATOM     21  O   UNL     1       1.450   3.111  21.756  0.00  0.00    +0.000 OA
BRANCH  20  22
ATOM     22  C   UNL     1       2.172   5.308  20.998  0.00  0.00    +0.000 C 
BRANCH  22  23
ATOM     23  N   UNL     1       3.494   5.230  20.327  0.00  0.00    +0.000 NA
ATOM     24  H   UNL     1       4.049   6.039  20.618  0.00  0.00    +0.000 HD
ATOM     25  H   UNL     1       3.357   5.345  19.322  0.00  0.00    +0.000 HD
ENDBRANCH  22  23
BRANCH  22  26
ATOM     26  C   UNL     1       1.333   6.407  20.328  0.00  0.00    +0.000 C 
BRANCH  26  27
ATOM     27  C   UNL     1       2.105   7.687  19.985  0.00  0.00    +0.000 C 
BRANCH  27  28
ATOM     28  S   UNL     1       2.353   7.864  18.190  0.00  0.00    +0.000 S 
ATOM     29  C   UNL     1       1.645   9.509  17.959  0.00  0.00    +0.000 C 
ENDBRANCH  27  28
ENDBRANCH  26  27
ENDBRANCH  22  26
ENDBRANCH  20  22
ENDBRANCH  19  20
ENDBRANCH  18  19
ENDBRANCH  17  18
ENDBRANCH   3  17
TORSDOF 14
ENDMDL
MODEL 3
REMARK VINA RESULT:      -5.8      3.582      7.401
REMARK  Name = 
REMARK  16 active torsions:
REMARK  status: ('A' for Active; 'I' for Inactive)
REMARK    1  A    between atoms: C_1  and  O_2
REMARK    2  A    between atoms: O_2  and  C_3
REMARK    3  A    between atoms: C_6  and  C_7
REMARK    4  A    between atoms: C_7  and  C_8
REMARK    5  A    between atoms: N_10  and  O_11
REMARK    6  A    between atoms: N_10  and  C_12
REMARK    7  A    between atoms: C_12  and  C_13
REMARK    8  A    between atoms: C_13  and  O_14
REMARK    9  A    between atoms: O_14  and  C_15
REMARK   10  A    between atoms: C_15  and  C_17
REMARK   11  A    between atoms: C_17  and  N_18
REMARK   12  A    between atoms: C_17  and  C_19
REMARK   13  A    between atoms: C_19  and  C_20
REMARK   14  A    between atoms: C_20  and  S_21
REMARK   15  A    between atoms: S_21  and  C_22
REMARK   16  A    between atoms: C_24  and  O_25
REMARK                            x       y       z     vdW  Elec       q    Type
REMARK                         _______ _______ _______ _____ _____    ______ ____
ROOT
ATOM      1  C   UNL     1       2.329   5.022  19.608  0.00  0.00    +0.000 C 
ATOM      2  O   UNL     1       1.385   4.454  19.050  0.00  0.00    +0.000 OA
ATOM      3  N   UNL     1       3.621   4.833  19.196  0.00  0.00    +0.000 N 
ENDROOT
BRANCH   3   4
ATOM      4  O   UNL     1       4.706   5.383  19.897  0.00  0.00    +0.000 OA
ATOM      5  H   UNL     1       5.273   4.612  20.092  0.00  0.00    +0.000 HD
ENDBRANCH   3   4
BRANCH   1   6
ATOM      6  C   UNL     1       2.077   6.009  20.739  0.00  0.00    +0.000 C 
BRANCH   6  10
ATOM      7  C   UNL     1       0.963  10.009  19.435  0.00  0.00    +0.000 A 
ATOM      8  C   UNL     1       0.640   9.540  20.713  0.00  0.00    +0.000 A 
ATOM      9  C   UNL     1       1.015   8.260  21.137  0.00  0.00    +0.000 A 
ATOM     10  C   UNL     1       1.733   7.412  20.284  0.00  0.00    +0.000 A 
ATOM     11  C   UNL     1       2.027   7.871  18.990  0.00  0.00    +0.000 A 
ATOM     12  C   UNL     1       1.659   9.157  18.573  0.00  0.00    +0.000 A 
BRANCH   7  14
ATOM     13  C   UNL     1      -0.810  11.456  18.738  0.00  0.00    +0.000 C 
ATOM     14  O   UNL     1       0.523  11.284  19.201  0.00  0.00    +0.000 OA
ENDBRANCH   7  14
BRANCH  12  15
ATOM     15  O   UNL     1       1.996   9.542  17.304  0.00  0.00    +0.000 OA
ATOM     16  H   UNL     1       2.812  10.068  17.334  0.00  0.00    +0.000 HD
ENDBRANCH  12  15
ENDBRANCH   6  10
ENDBRANCH   1   6
BRANCH   3  17
ATOM     17  C   UNL     1       4.009   3.788  18.253  0.00  0.00    +0.000 C 
BRANCH  17  18
ATOM     18  C   UNL     1       4.273   4.322  16.845  0.00  0.00    +0.000 C 
BRANCH  18  19
ATOM     19  O   UNL     1       5.316   5.319  16.880  0.00  0.00    +0.000 OA
BRANCH  19  20
ATOM     20  C   UNL     1       5.668   5.830  15.672  0.00  0.00    +0.000 C 
ATOM     21  O   UNL     1       5.174   6.828  15.154  0.00  0.00    +0.000 OA
BRANCH  20  22
ATOM     22  C   UNL     1       6.796   5.018  15.019  0.00  0.00    +0.000 C 
BRANCH  22  23
ATOM     23  N   UNL     1       7.707   4.517  16.079  0.00  0.00    +0.000 NA
ATOM     24  H   UNL     1       7.524   3.519  16.213  0.00  0.00    +0.000 HD
ATOM     25  H   UNL     1       7.453   4.959  16.963  0.00  0.00    +0.000 HD
ENDBRANCH  22  23
BRANCH  22  26
ATOM     26  C   UNL     1       6.206   3.820  14.258  0.00  0.00    +0.000 C 
BRANCH  26  27
ATOM     27  C   UNL     1       6.472   3.823  12.747  0.00  0.00    +0.000 C 
BRANCH  27  28
ATOM     28  S   UNL     1       5.129   3.010  11.826  0.00  0.00    +0.000 S 
ATOM     29  C   UNL     1       5.989   1.501  11.330  0.00  0.00    +0.000 C 
ENDBRANCH  27  28
ENDBRANCH  26  27
ENDBRANCH  22  26
ENDBRANCH  20  22
ENDBRANCH  19  20
ENDBRANCH  18  19
ENDBRANCH  17  18
ENDBRANCH   3  17
TORSDOF 14
ENDMDL
MODEL 4
REMARK VINA RESULT:      -5.8      0.901      1.383
REMARK  Name = 
REMARK  16 active torsions:
REMARK  status: ('A' for Active; 'I' for Inactive)
REMARK    1  A    between atoms: C_1  and  O_2
REMARK    2  A    between atoms: O_2  and  C_3
REMARK    3  A    between atoms: C_6  and  C_7
REMARK    4  A    between atoms: C_7  and  C_8
REMARK    5  A    between atoms: N_10  and  O_11
REMARK    6  A    between atoms: N_10  and  C_12
REMARK    7  A    between atoms: C_12  and  C_13
REMARK    8  A    between atoms: C_13  and  O_14
REMARK    9  A    between atoms: O_14  and  C_15
REMARK   10  A    between atoms: C_15  and  C_17
REMARK   11  A    between atoms: C_17  and  N_18
REMARK   12  A    between atoms: C_17  and  C_19
REMARK   13  A    between atoms: C_19  and  C_20
REMARK   14  A    between atoms: C_20  and  S_21
REMARK   15  A    between atoms: S_21  and  C_22
REMARK   16  A    between atoms: C_24  and  O_25
REMARK                            x       y       z     vdW  Elec       q    Type
REMARK                         _______ _______ _______ _____ _____    ______ ____
ROOT
ATOM      1  C   UNL     1       2.678   3.421  17.972  0.00  0.00    +0.000 C 
ATOM      2  O   UNL     1       1.726   3.840  17.306  0.00  0.00    +0.000 OA
ATOM      3  N   UNL     1       2.578   3.240  19.326  0.00  0.00    +0.000 N 
ENDROOT
BRANCH   3   4
ATOM      4  O   UNL     1       3.687   2.875  20.104  0.00  0.00    +0.000 OA
ATOM      5  H   UNL     1       4.453   3.128  19.553  0.00  0.00    +0.000 HD
ENDBRANCH   3   4
BRANCH   1   6
ATOM      6  C   UNL     1       3.981   3.026  17.292  0.00  0.00    +0.000 C 
BRANCH   6  10
ATOM      7  C   UNL     1       6.720   6.365  16.751  0.00  0.00    +0.000 A 
ATOM      8  C   UNL     1       5.742   6.375  17.752  0.00  0.00    +0.000 A 
ATOM      9  C   UNL     1       4.875   5.293  17.936  0.00  0.00    +0.000 A 
ATOM     10  C   UNL     1       4.968   4.161  17.117  0.00  0.00    +0.000 A 
ATOM     11  C   UNL     1       5.926   4.166  16.090  0.00  0.00    +0.000 A 
ATOM     12  C   UNL     1       6.801   5.247  15.916  0.00  0.00    +0.000 A 
BRANCH   7  14
ATOM     13  C   UNL     1       8.028   7.968  17.953  0.00  0.00    +0.000 C 
ATOM     14  O   UNL     1       7.479   7.504  16.726  0.00  0.00    +0.000 OA
ENDBRANCH   7  14
BRANCH  12  15
ATOM     15  O   UNL     1       7.721   5.172  14.906  0.00  0.00    +0.000 OA
ATOM     16  H   UNL     1       7.418   4.530  14.244  0.00  0.00    +0.000 HD
ENDBRANCH  12  15
ENDBRANCH   6  10
ENDBRANCH   1   6
BRANCH   3  17
ATOM     17  C   UNL     1       1.457   3.743  20.114  0.00  0.00    +0.000 C 
BRANCH  17  18
ATOM     18  C   UNL     1       1.766   5.063  20.820  0.00  0.00    +0.000 C 
BRANCH  18  19
ATOM     19  O   UNL     1       1.992   6.105  19.847  0.00  0.00    +0.000 OA
BRANCH  19  20
ATOM     20  C   UNL     1       1.698   7.362  20.268  0.00  0.00    +0.000 C 
ATOM     21  O   UNL     1       1.191   7.647  21.349  0.00  0.00    +0.000 OA
BRANCH  20  22
ATOM     22  C   UNL     1       2.100   8.417  19.226  0.00  0.00    +0.000 C 
BRANCH  22  23
ATOM     23  N   UNL     1       2.032   7.811  17.874  0.00  0.00    +0.000 NA
ATOM     24  H   UNL     1       1.084   7.938  17.511  0.00  0.00    +0.000 HD
ATOM     25  H   UNL     1       2.154   6.801  17.962  0.00  0.00    +0.000 HD
ENDBRANCH  22  23
BRANCH  22  26
ATOM     26  C   UNL     1       1.133   9.611  19.289  0.00  0.00    +0.000 C 
BRANCH  26  27
ATOM     27  C   UNL     1       0.260   9.799  18.043  0.00  0.00    +0.000 C 
BRANCH  27  28
ATOM     28  S   UNL     1      -1.244  10.756  18.412  0.00  0.00    +0.000 S 
ATOM     29  C   UNL     1      -2.424   9.847  17.390  0.00  0.00    +0.000 C 
ENDBRANCH  27  28
ENDBRANCH  26  27
ENDBRANCH  22  26
ENDBRANCH  20  22
ENDBRANCH  19  20
ENDBRANCH  18  19
ENDBRANCH  17  18
ENDBRANCH   3  17
TORSDOF 14
ENDMDL
MODEL 5
REMARK VINA RESULT:      -5.7      3.098      6.870
REMARK  Name = 
REMARK  16 active torsions:
REMARK  status: ('A' for Active; 'I' for Inactive)
REMARK    1  A    between atoms: C_1  and  O_2
REMARK    2  A    between atoms: O_2  and  C_3
REMARK    3  A    between atoms: C_6  and  C_7
REMARK    4  A    between atoms: C_7  and  C_8
REMARK    5  A    between atoms: N_10  and  O_11
REMARK    6  A    between atoms: N_10  and  C_12
REMARK    7  A    between atoms: C_12  and  C_13
REMARK    8  A    between atoms: C_13  and  O_14
REMARK    9  A    between atoms: O_14  and  C_15
REMARK   10  A    between atoms: C_15  and  C_17
REMARK   11  A    between atoms: C_17  and  N_18
REMARK   12  A    between atoms: C_17  and  C_19
REMARK   13  A    between atoms: C_19  and  C_20
REMARK   14  A    between atoms: C_20  and  S_21
REMARK   15  A    between atoms: S_21  and  C_22
REMARK   16  A    between atoms: C_24  and  O_25
REMARK                            x       y       z     vdW  Elec       q    Type
REMARK                         _______ _______ _______ _____ _____    ______ ____
ROOT
ATOM      1  C   UNL     1       2.097   4.868  19.300  0.00  0.00    +0.000 C 
ATOM      2  O   UNL     1       1.015   4.283  19.195  0.00  0.00    +0.000 OA
ATOM      3  N   UNL     1       3.095   4.695  18.378  0.00  0.00    +0.000 N 
ENDROOT
BRANCH   3   4
ATOM      4  O   UNL     1       4.366   5.264  18.552  0.00  0.00    +0.000 OA
ATOM      5  H   UNL     1       4.186   6.095  19.033  0.00  0.00    +0.000 HD
ENDBRANCH   3   4
BRANCH   1   6
ATOM      6  C   UNL     1       2.333   5.858  20.431  0.00  0.00    +0.000 C 
BRANCH   6  10
ATOM      7  C   UNL     1       0.981   9.902  19.558  0.00  0.00    +0.000 A 
ATOM      8  C   UNL     1       0.782   9.319  20.815  0.00  0.00    +0.000 A 
ATOM      9  C   UNL     1       1.233   8.026  21.099  0.00  0.00    +0.000 A 
ATOM     10  C   UNL     1       1.906   7.279  20.124  0.00  0.00    +0.000 A 
ATOM     11  C   UNL     1       2.076   7.851  18.853  0.00  0.00    +0.000 A 
ATOM     12  C   UNL     1       1.632   9.151  18.576  0.00  0.00    +0.000 A 
BRANCH   7  14
ATOM     13  C   UNL     1       0.755  12.078  20.528  0.00  0.00    +0.000 C 
ATOM     14  O   UNL     1       0.480  11.173  19.467  0.00  0.00    +0.000 OA
ENDBRANCH   7  14
BRANCH  12  15
ATOM     15  O   UNL     1       1.849   9.649  17.320  0.00  0.00    +0.000 OA
ATOM     16  H   UNL     1       2.639  10.213  17.331  0.00  0.00    +0.000 HD
ENDBRANCH  12  15
ENDBRANCH   6  10
ENDBRANCH   1   6
BRANCH   3  17
ATOM     17  C   UNL     1       3.062   3.651  17.358  0.00  0.00    +0.000 C 
BRANCH  17  18
ATOM     18  C   UNL     1       4.406   3.454  16.658  0.00  0.00    +0.000 C 
BRANCH  18  19
ATOM     19  O   UNL     1       4.707   4.600  15.834  0.00  0.00    +0.000 OA
BRANCH  19  20
ATOM     20  C   UNL     1       5.575   4.367  14.815  0.00  0.00    +0.000 C 
ATOM     21  O   UNL     1       5.261   4.000  13.687  0.00  0.00    +0.000 OA
BRANCH  20  22
ATOM     22  C   UNL     1       7.027   4.643  15.233  0.00  0.00    +0.000 C 
BRANCH  22  23
ATOM     23  N   UNL     1       7.697   5.426  14.165  0.00  0.00    +0.000 NA
ATOM     24  H   UNL     1       8.709   5.325  14.280  0.00  0.00    +0.000 HD
ATOM     25  H   UNL     1       7.506   6.417  14.318  0.00  0.00    +0.000 HD
ENDBRANCH  22  23
BRANCH  22  26
ATOM     26  C   UNL     1       7.051   5.453  16.540  0.00  0.00    +0.000 C 
BRANCH  26  27
ATOM     27  C   UNL     1       7.634   4.709  17.747  0.00  0.00    +0.000 C 
BRANCH  27  28
ATOM     28  S   UNL     1       7.890   5.822  19.165  0.00  0.00    +0.000 S 
ATOM     29  C   UNL     1       7.976   7.397  18.285  0.00  0.00    +0.000 C 
ENDBRANCH  27  28
ENDBRANCH  26  27
ENDBRANCH  22  26
ENDBRANCH  20  22
ENDBRANCH  19  20
ENDBRANCH  18  19
ENDBRANCH  17  18
ENDBRANCH   3  17
TORSDOF 14
ENDMDL
MODEL 6
REMARK VINA RESULT:      -5.7      3.402      8.469
REMARK  Name = 
REMARK  16 active torsions:
REMARK  status: ('A' for Active; 'I' for Inactive)
REMARK    1  A    between atoms: C_1  and  O_2
REMARK    2  A    between atoms: O_2  and  C_3
REMARK    3  A    between atoms: C_6  and  C_7
REMARK    4  A    between atoms: C_7  and  C_8
REMARK    5  A    between atoms: N_10  and  O_11
REMARK    6  A    between atoms: N_10  and  C_12
REMARK    7  A    between atoms: C_12  and  C_13
REMARK    8  A    between atoms: C_13  and  O_14
REMARK    9  A    between atoms: O_14  and  C_15
REMARK   10  A    between atoms: C_15  and  C_17
REMARK   11  A    between atoms: C_17  and  N_18
REMARK   12  A    between atoms: C_17  and  C_19
REMARK   13  A    between atoms: C_19  and  C_20
REMARK   14  A    between atoms: C_20  and  S_21
REMARK   15  A    between atoms: S_21  and  C_22
REMARK   16  A    between atoms: C_24  and  O_25
REMARK                            x       y       z     vdW  Elec       q    Type
REMARK                         _______ _______ _______ _____ _____    ______ ____
ROOT
ATOM      1  C   UNL     1       1.256   8.900  20.004  0.00  0.00    +0.000 C 
ATOM      2  O   UNL     1       0.738   8.575  21.076  0.00  0.00    +0.000 OA
ATOM      3  N   UNL     1       1.940   7.995  19.238  0.00  0.00    +0.000 N 
ENDROOT
BRANCH   3   4
ATOM      4  O   UNL     1       2.629   8.382  18.078  0.00  0.00    +0.000 OA
ATOM      5  H   UNL     1       2.010   8.164  17.355  0.00  0.00    +0.000 HD
ENDBRANCH   3   4
BRANCH   1   6
ATOM      6  C   UNL     1       1.093  10.314  19.465  0.00  0.00    +0.000 C 
BRANCH   6  10
ATOM      7  C   UNL     1      -2.866  11.310  17.957  0.00  0.00    +0.000 A 
ATOM      8  C   UNL     1      -2.095  10.296  17.376  0.00  0.00    +0.000 A 
ATOM      9  C   UNL     1      -0.831   9.965  17.874  0.00  0.00    +0.000 A 
ATOM     10  C   UNL     1      -0.303  10.645  18.979  0.00  0.00    +0.000 A 
ATOM     11  C   UNL     1      -1.062  11.685  19.540  0.00  0.00    +0.000 A 
ATOM     12  C   UNL     1      -2.333  12.006  19.045  0.00  0.00    +0.000 A 
BRANCH   7  14
ATOM     13  C   UNL     1      -5.230  10.937  17.966  0.00  0.00    +0.000 C 
ATOM     14  O   UNL     1      -4.077  11.487  17.342  0.00  0.00    +0.000 OA
ENDBRANCH   7  14
BRANCH  12  15
ATOM     15  O   UNL     1      -3.022  13.018  19.655  0.00  0.00    +0.000 OA
ATOM     16  H   UNL     1      -2.746  13.868  19.275  0.00  0.00    +0.000 HD
ENDBRANCH  12  15
ENDBRANCH   6  10
ENDBRANCH   1   6
BRANCH   3  17
ATOM     17  C   UNL     1       2.317   6.670  19.720  0.00  0.00    +0.000 C 
BRANCH  17  18
ATOM     18  C   UNL     1       3.563   6.113  19.032  0.00  0.00    +0.000 C 
BRANCH  18  19
ATOM     19  O   UNL     1       3.186   5.355  17.863  0.00  0.00    +0.000 OA
BRANCH  19  20
ATOM     20  C   UNL     1       4.197   4.671  17.267  0.00  0.00    +0.000 C 
ATOM     21  O   UNL     1       5.099   5.174  16.604  0.00  0.00    +0.000 OA
BRANCH  20  22
ATOM     22  C   UNL     1       4.099   3.163  17.542  0.00  0.00    +0.000 C 
BRANCH  22  23
ATOM     23  N   UNL     1       4.862   2.845  18.775  0.00  0.00    +0.000 NA
ATOM     24  H   UNL     1       5.292   1.925  18.658  0.00  0.00    +0.000 HD
ATOM     25  H   UNL     1       4.204   2.739  19.548  0.00  0.00    +0.000 HD
ENDBRANCH  22  23
BRANCH  22  26
ATOM     26  C   UNL     1       2.629   2.762  17.744  0.00  0.00    +0.000 C 
BRANCH  26  27
ATOM     27  C   UNL     1       2.340   2.014  19.052  0.00  0.00    +0.000 C 
BRANCH  27  28
ATOM     28  S   UNL     1       1.164   2.925  20.102  0.00  0.00    +0.000 S 
ATOM     29  C   UNL     1       2.262   3.339  21.475  0.00  0.00    +0.000 C 
ENDBRANCH  27  28
ENDBRANCH  26  27
ENDBRANCH  22  26
ENDBRANCH  20  22
ENDBRANCH  19  20
ENDBRANCH  18  19
ENDBRANCH  17  18
ENDBRANCH   3  17
TORSDOF 14
ENDMDL
MODEL 7
REMARK VINA RESULT:      -5.6      4.507      7.640
REMARK  Name = 
REMARK  16 active torsions:
REMARK  status: ('A' for Active; 'I' for Inactive)
REMARK    1  A    between atoms: C_1  and  O_2
REMARK    2  A    between atoms: O_2  and  C_3
REMARK    3  A    between atoms: C_6  and  C_7
REMARK    4  A    between atoms: C_7  and  C_8
REMARK    5  A    between atoms: N_10  and  O_11
REMARK    6  A    between atoms: N_10  and  C_12
REMARK    7  A    between atoms: C_12  and  C_13
REMARK    8  A    between atoms: C_13  and  O_14
REMARK    9  A    between atoms: O_14  and  C_15
REMARK   10  A    between atoms: C_15  and  C_17
REMARK   11  A    between atoms: C_17  and  N_18
REMARK   12  A    between atoms: C_17  and  C_19
REMARK   13  A    between atoms: C_19  and  C_20
REMARK   14  A    between atoms: C_20  and  S_21
REMARK   15  A    between atoms: S_21  and  C_22
REMARK   16  A    between atoms: C_24  and  O_25
REMARK                            x       y       z     vdW  Elec       q    Type
REMARK                         _______ _______ _______ _____ _____    ______ ____
ROOT
ATOM      1  C   UNL     1       6.766   6.624  17.284  0.00  0.00    +0.000 C 
ATOM      2  O   UNL     1       6.144   7.024  16.295  0.00  0.00    +0.000 OA
ATOM      3  N   UNL     1       7.591   7.456  17.993  0.00  0.00    +0.000 N 
ENDROOT
BRANCH   3   4
ATOM      4  O   UNL     1       8.388   6.980  19.046  0.00  0.00    +0.000 OA
ATOM      5  H   UNL     1       8.150   6.035  19.111  0.00  0.00    +0.000 HD
ENDBRANCH   3   4
BRANCH   1   6
ATOM      6  C   UNL     1       6.582   5.200  17.787  0.00  0.00    +0.000 C 
BRANCH   6  10
ATOM      7  C   UNL     1       2.548   4.120  19.014  0.00  0.00    +0.000 A 
ATOM      8  C   UNL     1       3.375   4.906  19.826  0.00  0.00    +0.000 A 
ATOM      9  C   UNL     1       4.665   5.267  19.421  0.00  0.00    +0.000 A 
ATOM     10  C   UNL     1       5.162   4.850  18.180  0.00  0.00    +0.000 A 
ATOM     11  C   UNL     1       4.345   4.034  17.381  0.00  0.00    +0.000 A 
ATOM     12  C   UNL     1       3.050   3.683  17.785  0.00  0.00    +0.000 A 
BRANCH   7  14
ATOM     13  C   UNL     1       1.278   3.347  20.888  0.00  0.00    +0.000 C 
ATOM     14  O   UNL     1       1.321   3.875  19.569  0.00  0.00    +0.000 OA
ENDBRANCH   7  14
BRANCH  12  15
ATOM     15  O   UNL     1       2.305   2.901  16.945  0.00  0.00    +0.000 OA
ATOM     16  H   UNL     1       2.864   2.191  16.589  0.00  0.00    +0.000 HD
ENDBRANCH  12  15
ENDBRANCH   6  10
ENDBRANCH   1   6
BRANCH   3  17
ATOM     17  C   UNL     1       7.988   8.777  17.517  0.00  0.00    +0.000 C 
BRANCH  17  18
ATOM     18  C   UNL     1       8.717   9.602  18.576  0.00  0.00    +0.000 C 
BRANCH  18  19
ATOM     19  O   UNL     1       9.896  10.210  18.006  0.00  0.00    +0.000 OA
BRANCH  19  20
ATOM     20  C   UNL     1       9.925  11.567  18.051  0.00  0.00    +0.000 C 
ATOM     21  O   UNL     1       8.990  12.306  17.757  0.00  0.00    +0.000 OA
BRANCH  20  22
ATOM     22  C   UNL     1      11.282  12.089  18.545  0.00  0.00    +0.000 C 
BRANCH  22  23
ATOM     23  N   UNL     1      12.111  12.465  17.373  0.00  0.00    +0.000 NA
ATOM     24  H   UNL     1      11.940  11.785  16.627  0.00  0.00    +0.000 HD
ATOM     25  H   UNL     1      13.095  12.353  17.619  0.00  0.00    +0.000 HD
ENDBRANCH  22  23
BRANCH  22  26
ATOM     26  C   UNL     1      11.077  13.327  19.432  0.00  0.00    +0.000 C 
BRANCH  26  27
ATOM     27  C   UNL     1      10.412  13.047  20.785  0.00  0.00    +0.000 C 
BRANCH  27  28
ATOM     28  S   UNL     1       8.950  14.100  21.048  0.00  0.00    +0.000 S 
ATOM     29  C   UNL     1       9.178  15.260  19.682  0.00  0.00    +0.000 C 
ENDBRANCH  27  28
ENDBRANCH  26  27
ENDBRANCH  22  26
ENDBRANCH  20  22
ENDBRANCH  19  20
ENDBRANCH  18  19
ENDBRANCH  17  18
ENDBRANCH   3  17
TORSDOF 14
ENDMDL
MODEL 8
REMARK VINA RESULT:      -5.6      2.505      3.647
REMARK  Name = 
REMARK  16 active torsions:
REMARK  status: ('A' for Active; 'I' for Inactive)
REMARK    1  A    between atoms: C_1  and  O_2
REMARK    2  A    between atoms: O_2  and  C_3
REMARK    3  A    between atoms: C_6  and  C_7
REMARK    4  A    between atoms: C_7  and  C_8
REMARK    5  A    between atoms: N_10  and  O_11
REMARK    6  A    between atoms: N_10  and  C_12
REMARK    7  A    between atoms: C_12  and  C_13
REMARK    8  A    between atoms: C_13  and  O_14
REMARK    9  A    between atoms: O_14  and  C_15
REMARK   10  A    between atoms: C_15  and  C_17
REMARK   11  A    between atoms: C_17  and  N_18
REMARK   12  A    between atoms: C_17  and  C_19
REMARK   13  A    between atoms: C_19  and  C_20
REMARK   14  A    between atoms: C_20  and  S_21
REMARK   15  A    between atoms: S_21  and  C_22
REMARK   16  A    between atoms: C_24  and  O_25
REMARK                            x       y       z     vdW  Elec       q    Type
REMARK                         _______ _______ _______ _____ _____    ______ ____
ROOT
ATOM      1  C   UNL     1       2.499   6.635  18.590  0.00  0.00    +0.000 C 
ATOM      2  O   UNL     1       2.316   7.422  17.656  0.00  0.00    +0.000 OA
ATOM      3  N   UNL     1       2.061   6.917  19.857  0.00  0.00    +0.000 N 
ENDROOT
BRANCH   3   4
ATOM      4  O   UNL     1       2.366   6.083  20.944  0.00  0.00    +0.000 OA
ATOM      5  H   UNL     1       2.306   5.183  20.571  0.00  0.00    +0.000 HD
ENDBRANCH   3   4
BRANCH   1   6
ATOM      6  C   UNL     1       3.163   5.288  18.346  0.00  0.00    +0.000 C 
BRANCH   6  10
ATOM      7  C   UNL     1       6.644   5.312  15.733  0.00  0.00    +0.000 A 
ATOM      8  C   UNL     1       5.630   4.357  15.594  0.00  0.00    +0.000 A 
ATOM      9  C   UNL     1       4.504   4.362  16.422  0.00  0.00    +0.000 A 
ATOM     10  C   UNL     1       4.360   5.336  17.419  0.00  0.00    +0.000 A 
ATOM     11  C   UNL     1       5.393   6.273  17.581  0.00  0.00    +0.000 A 
ATOM     12  C   UNL     1       6.515   6.271  16.741  0.00  0.00    +0.000 A 
BRANCH   7  14
ATOM     13  C   UNL     1       7.321   4.850  13.485  0.00  0.00    +0.000 C 
ATOM     14  O   UNL     1       7.662   5.155  14.831  0.00  0.00    +0.000 OA
ENDBRANCH   7  14
BRANCH  12  15
ATOM     15  O   UNL     1       7.472   7.227  16.947  0.00  0.00    +0.000 OA
ATOM     16  H   UNL     1       7.340   7.954  16.317  0.00  0.00    +0.000 HD
ENDBRANCH  12  15
ENDBRANCH   6  10
ENDBRANCH   1   6
BRANCH   3  17
ATOM     17  C   UNL     1       1.576   8.235  20.255  0.00  0.00    +0.000 C 
BRANCH  17  18
ATOM     18  C   UNL     1       1.113   8.288  21.710  0.00  0.00    +0.000 C 
BRANCH  18  19
ATOM     19  O   UNL     1      -0.177   8.929  21.797  0.00  0.00    +0.000 OA
BRANCH  19  20
ATOM     20  C   UNL     1      -0.285   9.884  22.757  0.00  0.00    +0.000 C 
ATOM     21  O   UNL     1       0.219   9.825  23.875  0.00  0.00    +0.000 OA
BRANCH  20  22
ATOM     22  C   UNL     1      -1.107  11.086  22.271  0.00  0.00    +0.000 C 
BRANCH  22  23
ATOM     23  N   UNL     1      -0.734  12.281  23.067  0.00  0.00    +0.000 NA
ATOM     24  H   UNL     1       0.266  12.226  23.279  0.00  0.00    +0.000 HD
ATOM     25  H   UNL     1      -1.204  12.232  23.971  0.00  0.00    +0.000 HD
ENDBRANCH  22  23
BRANCH  22  26
ATOM     26  C   UNL     1      -0.810  11.358  20.787  0.00  0.00    +0.000 C 
BRANCH  26  27
ATOM     27  C   UNL     1      -1.902  12.138  20.044  0.00  0.00    +0.000 C 
BRANCH  27  28
ATOM     28  S   UNL     1      -2.023  11.630  18.300  0.00  0.00    +0.000 S 
ATOM     29  C   UNL     1      -3.821  11.554  18.144  0.00  0.00    +0.000 C 
ENDBRANCH  27  28
ENDBRANCH  26  27
ENDBRANCH  22  26
ENDBRANCH  20  22
ENDBRANCH  19  20
ENDBRANCH  18  19
ENDBRANCH  17  18
ENDBRANCH   3  17
TORSDOF 14
ENDMDL
MODEL 9
REMARK VINA RESULT:      -5.6      4.733      7.818
REMARK  Name = 
REMARK  16 active torsions:
REMARK  status: ('A' for Active; 'I' for Inactive)
REMARK    1  A    between atoms: C_1  and  O_2
REMARK    2  A    between atoms: O_2  and  C_3
REMARK    3  A    between atoms: C_6  and  C_7
REMARK    4  A    between atoms: C_7  and  C_8
REMARK    5  A    between atoms: N_10  and  O_11
REMARK    6  A    between atoms: N_10  and  C_12
REMARK    7  A    between atoms: C_12  and  C_13
REMARK    8  A    between atoms: C_13  and  O_14
REMARK    9  A    between atoms: O_14  and  C_15
REMARK   10  A    between atoms: C_15  and  C_17
REMARK   11  A    between atoms: C_17  and  N_18
REMARK   12  A    between atoms: C_17  and  C_19
REMARK   13  A    between atoms: C_19  and  C_20
REMARK   14  A    between atoms: C_20  and  S_21
REMARK   15  A    between atoms: S_21  and  C_22
REMARK   16  A    between atoms: C_24  and  O_25
REMARK                            x       y       z     vdW  Elec       q    Type
REMARK                         _______ _______ _______ _____ _____    ______ ____
ROOT
ATOM      1  C   UNL     1       6.827   6.416  17.186  0.00  0.00    +0.000 C 
ATOM      2  O   UNL     1       6.238   6.870  16.200  0.00  0.00    +0.000 OA
ATOM      3  N   UNL     1       7.558   7.223  18.017  0.00  0.00    +0.000 N 
ENDROOT
BRANCH   3   4
ATOM      4  O   UNL     1       8.322   6.697  19.070  0.00  0.00    +0.000 OA
ATOM      5  H   UNL     1       8.792   5.943  18.664  0.00  0.00    +0.000 HD
ENDBRANCH   3   4
BRANCH   1   6
ATOM      6  C   UNL     1       6.702   4.943  17.548  0.00  0.00    +0.000 C 
BRANCH   6  10
ATOM      7  C   UNL     1       2.814   3.729  19.082  0.00  0.00    +0.000 A 
ATOM      8  C   UNL     1       3.465   4.873  19.559  0.00  0.00    +0.000 A 
ATOM      9  C   UNL     1       4.706   5.272  19.051  0.00  0.00    +0.000 A 
ATOM     10  C   UNL     1       5.331   4.530  18.041  0.00  0.00    +0.000 A 
ATOM     11  C   UNL     1       4.695   3.363  17.588  0.00  0.00    +0.000 A 
ATOM     12  C   UNL     1       3.446   2.974  18.091  0.00  0.00    +0.000 A 
BRANCH   7  14
ATOM     13  C   UNL     1       1.154   4.446  20.649  0.00  0.00    +0.000 C 
ATOM     14  O   UNL     1       1.609   3.501  19.689  0.00  0.00    +0.000 OA
ENDBRANCH   7  14
BRANCH  12  15
ATOM     15  O   UNL     1       2.878   1.835  17.588  0.00  0.00    +0.000 OA
ATOM     16  H   UNL     1       2.133   2.075  17.013  0.00  0.00    +0.000 HD
ENDBRANCH  12  15
ENDBRANCH   6  10
ENDBRANCH   1   6
BRANCH   3  17
ATOM     17  C   UNL     1       7.899   8.603  17.685  0.00  0.00    +0.000 C 
BRANCH  17  18
ATOM     18  C   UNL     1       8.810   9.260  18.721  0.00  0.00    +0.000 C 
BRANCH  18  19
ATOM     19  O   UNL     1       8.849  10.688  18.512  0.00  0.00    +0.000 OA
BRANCH  19  20
ATOM     20  C   UNL     1      10.091  11.239  18.525  0.00  0.00    +0.000 C 
ATOM     21  O   UNL     1      10.797  11.417  17.537  0.00  0.00    +0.000 OA
BRANCH  20  22
ATOM     22  C   UNL     1      10.514  11.649  19.943  0.00  0.00    +0.000 C 
BRANCH  22  23
ATOM     23  N   UNL     1      11.993  11.576  20.046  0.00  0.00    +0.000 NA
ATOM     24  H   UNL     1      12.231  10.854  20.731  0.00  0.00    +0.000 HD
ATOM     25  H   UNL     1      12.336  12.450  20.446  0.00  0.00    +0.000 HD
ENDBRANCH  22  23
BRANCH  22  26
ATOM     26  C   UNL     1      10.062  13.091  20.229  0.00  0.00    +0.000 C 
BRANCH  26  27
ATOM     27  C   UNL     1      11.057  14.175  19.795  0.00  0.00    +0.000 C 
BRANCH  27  28
ATOM     28  S   UNL     1      10.463  15.090  18.338  0.00  0.00    +0.000 S 
ATOM     29  C   UNL     1      11.982  15.966  17.906  0.00  0.00    +0.000 C 
ENDBRANCH  27  28
ENDBRANCH  26  27
ENDBRANCH  22  26
ENDBRANCH  20  22
ENDBRANCH  19  20
ENDBRANCH  18  19
ENDBRANCH  17  18
ENDBRANCH   3  17
TORSDOF 14
ENDMDL
