MODEL 1
REMARK VINA RESULT:      -7.7      0.000      0.000
REMARK  Name = 
REMARK  6 active torsions:
REMARK  status: ('A' for Active; 'I' for Inactive)
REMARK    1  A    between atoms: C_1  and  C_2
REMARK    2  A    between atoms: C_4  and  C_5
REMARK    3  A    between atoms: C_8  and  C_9
REMARK    4  A    between atoms: N_18  and  C_19
REMARK    5  A    between atoms: C_19  and  C_20
REMARK    6  A    between atoms: N_23  and  C_24
REMARK                            x       y       z     vdW  Elec       q    Type
REMARK                         _______ _______ _______ _____ _____    ______ ____
ROOT
ATOM      1  C   UNL     1      -0.319   8.920  22.502  0.00  0.00    +0.000 C 
ATOM      2  C   UNL     1       0.669   9.849  21.780  0.00  0.00    +0.000 C 
ATOM      3  C   UNL     1       1.783   9.060  21.081  0.00  0.00    +0.000 C 
ATOM      4  C   UNL     1       1.203   8.312  19.875  0.00  0.00    +0.000 C 
ATOM      5  C   UNL     1       0.493   9.282  18.910  0.00  0.00    +0.000 C 
ATOM      6  N   UNL     1      -0.581  10.050  19.590  0.00  0.00    +0.000 NA
ATOM      7  C   UNL     1      -0.043  10.766  20.764  0.00  0.00    +0.000 C 
ENDROOT
BRANCH   4   8
ATOM      8  C   UNL     1       2.230   7.422  19.188  0.00  0.00    +0.000 A 
ATOM      9  C   UNL     1       2.959   7.937  18.105  0.00  0.00    +0.000 A 
ATOM     10  C   UNL     1       3.905   7.151  17.465  0.00  0.00    +0.000 A 
ATOM     11  C   UNL     1       4.124   5.834  17.889  0.00  0.00    +0.000 A 
ATOM     12  C   UNL     1       3.412   5.270  18.948  0.00  0.00    +0.000 A 
ATOM     13  N   UNL     1       3.639   3.983  19.302  0.00  0.00    +0.000 NA
ATOM     14  C   UNL     1       2.936   3.441  20.315  0.00  0.00    +0.000 A 
ATOM     15  C   UNL     1       1.999   4.131  21.038  0.00  0.00    +0.000 A 
ATOM     16  C   UNL     1       1.770   5.455  20.692  0.00  0.00    +0.000 A 
ATOM     17  C   UNL     1       2.457   6.074  19.617  0.00  0.00    +0.000 A 
BRANCH  11  18
ATOM     18  C   UNL     1       5.108   5.060  17.196  0.00  0.00    +0.000 C 
ATOM     19  N   UNL     1       5.946   4.425  16.698  0.00  0.00    +0.000 NA
ENDBRANCH  11  18
ENDBRANCH   4   8
BRANCH   6  20
ATOM     20  C   UNL     1      -1.220  10.960  18.610  0.00  0.00    +0.000 C 
BRANCH  20  21
ATOM     21  C   UNL     1      -2.569  10.510  18.019  0.00  0.00    +0.000 C 
ATOM     22  C   UNL     1      -2.593  10.289  16.498  0.00  0.00    +0.000 C 
ATOM     23  C   UNL     1      -3.705  11.202  15.987  0.00  0.00    +0.000 C 
ATOM     24  N   UNL     1      -4.588  11.279  17.150  0.00  0.00    +0.000 NA
ATOM     25  C   UNL     1      -5.641  12.270  17.011  0.00  0.00    +0.000 C 
ATOM     26  C   UNL     1      -3.680  11.540  18.267  0.00  0.00    +0.000 C 
ENDBRANCH  20  21
ENDBRANCH   6  20
TORSDOF 4
ENDMDL
MODEL 2
REMARK VINA RESULT:      -7.6      1.406      1.874
REMARK  Name = 
REMARK  6 active torsions:
REMARK  status: ('A' for Active; 'I' for Inactive)
REMARK    1  A    between atoms: C_1  and  C_2
REMARK    2  A    between atoms: C_4  and  C_5
REMARK    3  A    between atoms: C_8  and  C_9
REMARK    4  A    between atoms: N_18  and  C_19
REMARK    5  A    between atoms: C_19  and  C_20
REMARK    6  A    between atoms: N_23  and  C_24
REMARK                            x       y       z     vdW  Elec       q    Type
REMARK                         _______ _______ _______ _____ _____    ______ ____
ROOT
ATOM      1  C   UNL     1      -0.502   8.048  21.386  0.00  0.00    +0.000 C 
ATOM      2  C   UNL     1       0.889   8.699  21.404  0.00  0.00    +0.000 C 
ATOM      3  C   UNL     1       1.933   7.827  20.696  0.00  0.00    +0.000 C 
ATOM      4  C   UNL     1       1.666   7.832  19.186  0.00  0.00    +0.000 C 
ATOM      5  C   UNL     1       1.645   9.270  18.631  0.00  0.00    +0.000 C 
ATOM      6  N   UNL     1       0.639  10.114  19.323  0.00  0.00    +0.000 NA
ATOM      7  C   UNL     1       0.872  10.110  20.781  0.00  0.00    +0.000 C 
ENDROOT
BRANCH   4   8
ATOM      8  C   UNL     1       2.601   6.904  18.422  0.00  0.00    +0.000 A 
ATOM      9  C   UNL     1       3.645   7.462  17.667  0.00  0.00    +0.000 A 
ATOM     10  C   UNL     1       4.515   6.641  16.967  0.00  0.00    +0.000 A 
ATOM     11  C   UNL     1       4.344   5.251  17.000  0.00  0.00    +0.000 A 
ATOM     12  C   UNL     1       3.312   4.648  17.719  0.00  0.00    +0.000 A 
ATOM     13  N   UNL     1       3.171   3.302  17.696  0.00  0.00    +0.000 NA
ATOM     14  C   UNL     1       2.162   2.730  18.381  0.00  0.00    +0.000 A 
ATOM     15  C   UNL     1       1.262   3.438  19.131  0.00  0.00    +0.000 A 
ATOM     16  C   UNL     1       1.406   4.817  19.172  0.00  0.00    +0.000 A 
ATOM     17  C   UNL     1       2.430   5.481  18.451  0.00  0.00    +0.000 A 
BRANCH  11  18
ATOM     18  C   UNL     1       5.265   4.444  16.259  0.00  0.00    +0.000 C 
ATOM     19  N   UNL     1       5.958   3.772  15.610  0.00  0.00    +0.000 NA
ENDBRANCH  11  18
ENDBRANCH   4   8
BRANCH   6  20
ATOM     20  C   UNL     1       0.671  11.478  18.744  0.00  0.00    +0.000 C 
BRANCH  20  21
ATOM     21  C   UNL     1      -0.683  12.109  18.371  0.00  0.00    +0.000 C 
ATOM     22  C   UNL     1      -1.446  12.785  19.521  0.00  0.00    +0.000 C 
ATOM     23  C   UNL     1      -2.805  12.091  19.552  0.00  0.00    +0.000 C 
ATOM     24  N   UNL     1      -2.961  11.676  18.159  0.00  0.00    +0.000 NA
ATOM     25  C   UNL     1      -4.094  10.792  17.943  0.00  0.00    +0.000 C 
ATOM     26  C   UNL     1      -1.672  11.071  17.823  0.00  0.00    +0.000 C 
ENDBRANCH  20  21
ENDBRANCH   6  20
TORSDOF 4
ENDMDL
MODEL 3
REMARK VINA RESULT:      -7.5      2.431      7.872
REMARK  Name = 
REMARK  6 active torsions:
REMARK  status: ('A' for Active; 'I' for Inactive)
REMARK    1  A    between atoms: C_1  and  C_2
REMARK    2  A    between atoms: C_4  and  C_5
REMARK    3  A    between atoms: C_8  and  C_9
REMARK    4  A    between atoms: N_18  and  C_19
REMARK    5  A    between atoms: C_19  and  C_20
REMARK    6  A    between atoms: N_23  and  C_24
REMARK                            x       y       z     vdW  Elec       q    Type
REMARK                         _______ _______ _______ _____ _____    ______ ____
ROOT
ATOM      1  C   UNL     1       2.399   4.094  21.552  0.00  0.00    +0.000 C 
ATOM      2  C   UNL     1       2.069   4.150  20.052  0.00  0.00    +0.000 C 
ATOM      3  C   UNL     1       1.427   5.486  19.662  0.00  0.00    +0.000 C 
ATOM      4  C   UNL     1       2.476   6.601  19.736  0.00  0.00    +0.000 C 
ATOM      5  C   UNL     1       3.699   6.271  18.856  0.00  0.00    +0.000 C 
ATOM      6  N   UNL     1       4.315   4.973  19.231  0.00  0.00    +0.000 NA
ATOM      7  C   UNL     1       3.314   3.889  19.180  0.00  0.00    +0.000 C 
ENDROOT
BRANCH   4   8
ATOM      8  C   UNL     1       1.889   7.979  19.460  0.00  0.00    +0.000 A 
ATOM      9  C   UNL     1       2.033   8.535  18.180  0.00  0.00    +0.000 A 
ATOM     10  C   UNL     1       1.503   9.785  17.898  0.00  0.00    +0.000 A 
ATOM     11  C   UNL     1       0.835  10.502  18.900  0.00  0.00    +0.000 A 
ATOM     12  C   UNL     1       0.683  10.003  20.192  0.00  0.00    +0.000 A 
ATOM     13  N   UNL     1       0.056  10.747  21.133  0.00  0.00    +0.000 NA
ATOM     14  C   UNL     1      -0.073  10.263  22.384  0.00  0.00    +0.000 A 
ATOM     15  C   UNL     1       0.384   9.031  22.767  0.00  0.00    +0.000 A 
ATOM     16  C   UNL     1       1.015   8.254  21.806  0.00  0.00    +0.000 A 
ATOM     17  C   UNL     1       1.207   8.718  20.481  0.00  0.00    +0.000 A 
BRANCH  11  18
ATOM     18  C   UNL     1       0.307  11.790  18.564  0.00  0.00    +0.000 C 
ATOM     19  N   UNL     1      -0.183  12.801  18.265  0.00  0.00    +0.000 NA
ENDBRANCH  11  18
ENDBRANCH   4   8
BRANCH   6  20
ATOM     20  C   UNL     1       5.480   4.718  18.350  0.00  0.00    +0.000 C 
BRANCH  20  21
ATOM     21  C   UNL     1       5.343   5.140  16.876  0.00  0.00    +0.000 C 
ATOM     22  C   UNL     1       4.772   4.076  15.926  0.00  0.00    +0.000 C 
ATOM     23  C   UNL     1       5.830   3.914  14.837  0.00  0.00    +0.000 C 
ATOM     24  N   UNL     1       6.465   5.230  14.837  0.00  0.00    +0.000 NA
ATOM     25  C   UNL     1       7.669   5.291  14.027  0.00  0.00    +0.000 C 
ATOM     26  C   UNL     1       6.697   5.512  16.254  0.00  0.00    +0.000 C 
ENDBRANCH  20  21
ENDBRANCH   6  20
TORSDOF 4
ENDMDL
MODEL 4
REMARK VINA RESULT:      -7.4      0.849      1.327
REMARK  Name = 
REMARK  6 active torsions:
REMARK  status: ('A' for Active; 'I' for Inactive)
REMARK    1  A    between atoms: C_1  and  C_2
REMARK    2  A    between atoms: C_4  and  C_5
REMARK    3  A    between atoms: C_8  and  C_9
REMARK    4  A    between atoms: N_18  and  C_19
REMARK    5  A    between atoms: C_19  and  C_20
REMARK    6  A    between atoms: N_23  and  C_24
REMARK                            x       y       z     vdW  Elec       q    Type
REMARK                         _______ _______ _______ _____ _____    ______ ____
ROOT
ATOM      1  C   UNL     1      -0.626   8.824  22.060  0.00  0.00    +0.000 C 
ATOM      2  C   UNL     1       0.731   9.522  21.878  0.00  0.00    +0.000 C 
ATOM      3  C   UNL     1       1.763   8.595  21.226  0.00  0.00    +0.000 C 
ATOM      4  C   UNL     1       1.392   8.367  19.757  0.00  0.00    +0.000 C 
ATOM      5  C   UNL     1       1.263   9.705  19.002  0.00  0.00    +0.000 C 
ATOM      6  N   UNL     1       0.268  10.604  19.640  0.00  0.00    +0.000 NA
ATOM      7  C   UNL     1       0.602  10.824  21.061  0.00  0.00    +0.000 C 
ENDROOT
BRANCH   4   8
ATOM      8  C   UNL     1       2.316   7.372  19.066  0.00  0.00    +0.000 A 
ATOM      9  C   UNL     1       3.083   7.803  17.972  0.00  0.00    +0.000 A 
ATOM     10  C   UNL     1       3.937   6.921  17.328  0.00  0.00    +0.000 A 
ATOM     11  C   UNL     1       4.024   5.591  17.760  0.00  0.00    +0.000 A 
ATOM     12  C   UNL     1       3.269   5.109  18.829  0.00  0.00    +0.000 A 
ATOM     13  N   UNL     1       3.366   3.807  19.190  0.00  0.00    +0.000 NA
ATOM     14  C   UNL     1       2.621   3.347  20.214  0.00  0.00    +0.000 A 
ATOM     15  C   UNL     1       1.768   4.132  20.940  0.00  0.00    +0.000 A 
ATOM     16  C   UNL     1       1.672   5.471  20.587  0.00  0.00    +0.000 A 
ATOM     17  C   UNL     1       2.407   6.010  19.502  0.00  0.00    +0.000 A 
BRANCH  11  18
ATOM     18  C   UNL     1       4.916   4.716  17.064  0.00  0.00    +0.000 C 
ATOM     19  N   UNL     1       5.636   4.051  16.437  0.00  0.00    +0.000 NA
ENDBRANCH  11  18
ENDBRANCH   4   8
BRANCH   6  20
ATOM     20  C   UNL     1       0.194  11.868  18.868  0.00  0.00    +0.000 C 
BRANCH  20  21
ATOM     21  C   UNL     1      -1.207  12.346  18.446  0.00  0.00    +0.000 C 
ATOM     22  C   UNL     1      -2.303  12.232  19.517  0.00  0.00    +0.000 C 
ATOM     23  C   UNL     1      -3.393  11.379  18.873  0.00  0.00    +0.000 C 
ATOM     24  N   UNL     1      -3.202  11.668  17.453  0.00  0.00    +0.000 NA
ATOM     25  C   UNL     1      -3.984  10.812  16.579  0.00  0.00    +0.000 C 
ATOM     26  C   UNL     1      -1.757  11.543  17.258  0.00  0.00    +0.000 C 
ENDBRANCH  20  21
ENDBRANCH   6  20
TORSDOF 4
ENDMDL
MODEL 5
REMARK VINA RESULT:      -7.4      2.424      3.512
REMARK  Name = 
REMARK  6 active torsions:
REMARK  status: ('A' for Active; 'I' for Inactive)
REMARK    1  A    between atoms: C_1  and  C_2
REMARK    2  A    between atoms: C_4  and  C_5
REMARK    3  A    between atoms: C_8  and  C_9
REMARK    4  A    between atoms: N_18  and  C_19
REMARK    5  A    between atoms: C_19  and  C_20
REMARK    6  A    between atoms: N_23  and  C_24
REMARK                            x       y       z     vdW  Elec       q    Type
REMARK                         _______ _______ _______ _____ _____    ______ ____
ROOT
ATOM      1  C   UNL     1      -0.590   8.527  21.811  0.00  0.00    +0.000 C 
ATOM      2  C   UNL     1       0.782   9.211  21.715  0.00  0.00    +0.000 C 
ATOM      3  C   UNL     1       1.824   8.303  21.052  0.00  0.00    +0.000 C 
ATOM      4  C   UNL     1       1.504   8.158  19.561  0.00  0.00    +0.000 C 
ATOM      5  C   UNL     1       1.422   9.536  18.874  0.00  0.00    +0.000 C 
ATOM      6  N   UNL     1       0.417  10.417  19.522  0.00  0.00    +0.000 NA
ATOM      7  C   UNL     1       0.701  10.556  20.964  0.00  0.00    +0.000 C 
ENDROOT
BRANCH   4   8
ATOM      8  C   UNL     1       2.438   7.186  18.852  0.00  0.00    +0.000 A 
ATOM      9  C   UNL     1       3.282   7.670  17.840  0.00  0.00    +0.000 A 
ATOM     10  C   UNL     1       4.147   6.810  17.182  0.00  0.00    +0.000 A 
ATOM     11  C   UNL     1       4.169   5.450  17.518  0.00  0.00    +0.000 A 
ATOM     12  C   UNL     1       3.339   4.916  18.502  0.00  0.00    +0.000 A 
ATOM     13  N   UNL     1       3.376   3.589  18.770  0.00  0.00    +0.000 NA
ATOM     14  C   UNL     1       2.559   3.080  19.712  0.00  0.00    +0.000 A 
ATOM     15  C   UNL     1       1.686   3.839  20.444  0.00  0.00    +0.000 A 
ATOM     16  C   UNL     1       1.650   5.202  20.187  0.00  0.00    +0.000 A 
ATOM     17  C   UNL     1       2.464   5.794  19.190  0.00  0.00    +0.000 A 
BRANCH  11  18
ATOM     18  C   UNL     1       5.077   4.599  16.810  0.00  0.00    +0.000 C 
ATOM     19  N   UNL     1       5.756   3.882  16.195  0.00  0.00    +0.000 NA
ENDBRANCH  11  18
ENDBRANCH   4   8
BRANCH   6  20
ATOM     20  C   UNL     1       0.389  11.720  18.816  0.00  0.00    +0.000 C 
BRANCH  20  21
ATOM     21  C   UNL     1       1.385  12.792  19.294  0.00  0.00    +0.000 C 
ATOM     22  C   UNL     1       0.768  14.124  19.749  0.00  0.00    +0.000 C 
ATOM     23  C   UNL     1       1.440  15.184  18.880  0.00  0.00    +0.000 C 
ATOM     24  N   UNL     1       2.727  14.558  18.584  0.00  0.00    +0.000 NA
ATOM     25  C   UNL     1       3.500  15.271  17.583  0.00  0.00    +0.000 C 
ATOM     26  C   UNL     1       2.375  13.193  18.191  0.00  0.00    +0.000 C 
ENDBRANCH  20  21
ENDBRANCH   6  20
TORSDOF 4
ENDMDL
MODEL 6
REMARK VINA RESULT:      -7.2      1.287      1.401
REMARK  Name = 
REMARK  6 active torsions:
REMARK  status: ('A' for Active; 'I' for Inactive)
REMARK    1  A    between atoms: C_1  and  C_2
REMARK    2  A    between atoms: C_4  and  C_5
REMARK    3  A    between atoms: C_8  and  C_9
REMARK    4  A    between atoms: N_18  and  C_19
REMARK    5  A    between atoms: C_19  and  C_20
REMARK    6  A    between atoms: N_23  and  C_24
REMARK                            x       y       z     vdW  Elec       q    Type
REMARK                         _______ _______ _______ _____ _____    ______ ____
ROOT
ATOM      1  C   UNL     1       0.019   8.167  21.492  0.00  0.00    +0.000 C 
ATOM      2  C   UNL     1       1.002   9.146  20.832  0.00  0.00    +0.000 C 
ATOM      3  C   UNL     1       2.142   8.412  20.118  0.00  0.00    +0.000 C 
ATOM      4  C   UNL     1       1.598   7.712  18.868  0.00  0.00    +0.000 C 
ATOM      5  C   UNL     1       0.887   8.713  17.936  0.00  0.00    +0.000 C 
ATOM      6  N   UNL     1      -0.213   9.429  18.632  0.00  0.00    +0.000 NA
ATOM      7  C   UNL     1       0.291  10.098  19.847  0.00  0.00    +0.000 C 
ENDROOT
BRANCH   4   8
ATOM      8  C   UNL     1       2.653   6.873  18.159  0.00  0.00    +0.000 A 
ATOM      9  C   UNL     1       3.738   7.521  17.546  0.00  0.00    +0.000 A 
ATOM     10  C   UNL     1       4.716   6.783  16.899  0.00  0.00    +0.000 A 
ATOM     11  C   UNL     1       4.616   5.387  16.843  0.00  0.00    +0.000 A 
ATOM     12  C   UNL     1       3.550   4.697  17.418  0.00  0.00    +0.000 A 
ATOM     13  N   UNL     1       3.482   3.349  17.311  0.00  0.00    +0.000 NA
ATOM     14  C   UNL     1       2.440   2.693  17.856  0.00  0.00    +0.000 A 
ATOM     15  C   UNL     1       1.432   3.314  18.544  0.00  0.00    +0.000 A 
ATOM     16  C   UNL     1       1.500   4.694  18.671  0.00  0.00    +0.000 A 
ATOM     17  C   UNL     1       2.555   5.445  18.096  0.00  0.00    +0.000 A 
BRANCH  11  18
ATOM     18  C   UNL     1       5.649   4.667  16.162  0.00  0.00    +0.000 C 
ATOM     19  N   UNL     1       6.445   4.020  15.615  0.00  0.00    +0.000 NA
ENDBRANCH  11  18
ENDBRANCH   4   8
BRANCH   6  20
ATOM     20  C   UNL     1      -0.852  10.372  17.683  0.00  0.00    +0.000 C 
BRANCH  20  21
ATOM     21  C   UNL     1      -2.311  10.081  17.288  0.00  0.00    +0.000 C 
ATOM     22  C   UNL     1      -2.608  10.081  15.780  0.00  0.00    +0.000 C 
ATOM     23  C   UNL     1      -3.719  11.113  15.600  0.00  0.00    +0.000 C 
ATOM     24  N   UNL     1      -4.384  11.068  16.900  0.00  0.00    +0.000 NA
ATOM     25  C   UNL     1      -5.368  12.121  17.083  0.00  0.00    +0.000 C 
ATOM     26  C   UNL     1      -3.284  11.120  17.863  0.00  0.00    +0.000 C 
ENDBRANCH  20  21
ENDBRANCH   6  20
TORSDOF 4
ENDMDL
MODEL 7
REMARK VINA RESULT:      -7.2      2.683      7.929
REMARK  Name = 
REMARK  6 active torsions:
REMARK  status: ('A' for Active; 'I' for Inactive)
REMARK    1  A    between atoms: C_1  and  C_2
REMARK    2  A    between atoms: C_4  and  C_5
REMARK    3  A    between atoms: C_8  and  C_9
REMARK    4  A    between atoms: N_18  and  C_19
REMARK    5  A    between atoms: C_19  and  C_20
REMARK    6  A    between atoms: N_23  and  C_24
REMARK                            x       y       z     vdW  Elec       q    Type
REMARK                         _______ _______ _______ _____ _____    ______ ____
ROOT
ATOM      1  C   UNL     1       2.849   3.744  20.460  0.00  0.00    +0.000 C 
ATOM      2  C   UNL     1       2.216   3.964  19.077  0.00  0.00    +0.000 C 
ATOM      3  C   UNL     1       1.610   5.366  18.946  0.00  0.00    +0.000 C 
ATOM      4  C   UNL     1       2.733   6.407  18.885  0.00  0.00    +0.000 C 
ATOM      5  C   UNL     1       3.716   6.096  17.738  0.00  0.00    +0.000 C 
ATOM      6  N   UNL     1       4.296   4.735  17.862  0.00  0.00    +0.000 NA
ATOM      7  C   UNL     1       3.228   3.720  17.937  0.00  0.00    +0.000 C 
ENDROOT
BRANCH   4   8
ATOM      8  C   UNL     1       2.208   7.836  18.858  0.00  0.00    +0.000 A 
ATOM      9  C   UNL     1       2.432   8.621  17.716  0.00  0.00    +0.000 A 
ATOM     10  C   UNL     1       1.959   9.923  17.661  0.00  0.00    +0.000 A 
ATOM     11  C   UNL     1       1.269  10.463  18.754  0.00  0.00    +0.000 A 
ATOM     12  C   UNL     1       1.037   9.731  19.918  0.00  0.00    +0.000 A 
ATOM     13  N   UNL     1       0.390  10.308  20.959  0.00  0.00    +0.000 NA
ATOM     14  C   UNL     1       0.184   9.597  22.086  0.00  0.00    +0.000 A 
ATOM     15  C   UNL     1       0.580   8.296  22.241  0.00  0.00    +0.000 A 
ATOM     16  C   UNL     1       1.231   7.692  21.175  0.00  0.00    +0.000 A 
ATOM     17  C   UNL     1       1.502   8.394  19.974  0.00  0.00    +0.000 A 
BRANCH  11  18
ATOM     18  C   UNL     1       0.802  11.812  18.653  0.00  0.00    +0.000 C 
ATOM     19  N   UNL     1       0.462  12.915  18.507  0.00  0.00    +0.000 NA
ENDBRANCH  11  18
ENDBRANCH   4   8
BRANCH   6  20
ATOM     20  C   UNL     1       5.228   4.502  16.733  0.00  0.00    +0.000 C 
BRANCH  20  21
ATOM     21  C   UNL     1       6.642   5.096  16.862  0.00  0.00    +0.000 C 
ATOM     22  C   UNL     1       7.361   4.829  18.193  0.00  0.00    +0.000 C 
ATOM     23  C   UNL     1       7.714   6.213  18.733  0.00  0.00    +0.000 C 
ATOM     24  N   UNL     1       7.830   6.994  17.503  0.00  0.00    +0.000 NA
ATOM     25  C   UNL     1       7.955   8.422  17.735  0.00  0.00    +0.000 C 
ATOM     26  C   UNL     1       6.639   6.626  16.736  0.00  0.00    +0.000 C 
ENDBRANCH  20  21
ENDBRANCH   6  20
TORSDOF 4
ENDMDL
MODEL 8
REMARK VINA RESULT:      -7.2      2.571      3.328
REMARK  Name = 
REMARK  6 active torsions:
REMARK  status: ('A' for Active; 'I' for Inactive)
REMARK    1  A    between atoms: C_1  and  C_2
REMARK    2  A    between atoms: C_4  and  C_5
REMARK    3  A    between atoms: C_8  and  C_9
REMARK    4  A    between atoms: N_18  and  C_19
REMARK    5  A    between atoms: C_19  and  C_20
REMARK    6  A    between atoms: N_23  and  C_24
REMARK                            x       y       z     vdW  Elec       q    Type
REMARK                         _______ _______ _______ _____ _____    ______ ____
ROOT
ATOM      1  C   UNL     1      -0.339   7.841  21.240  0.00  0.00    +0.000 C 
ATOM      2  C   UNL     1       1.028   8.541  21.205  0.00  0.00    +0.000 C 
ATOM      3  C   UNL     1       2.086   7.688  20.496  0.00  0.00    +0.000 C 
ATOM      4  C   UNL     1       1.783   7.639  18.994  0.00  0.00    +0.000 C 
ATOM      5  C   UNL     1       1.696   9.059  18.399  0.00  0.00    +0.000 C 
ATOM      6  N   UNL     1       0.676   9.886  19.092  0.00  0.00    +0.000 NA
ATOM      7  C   UNL     1       0.944   9.933  20.543  0.00  0.00    +0.000 C 
ENDROOT
BRANCH   4   8
ATOM      8  C   UNL     1       2.733   6.724  18.233  0.00  0.00    +0.000 A 
ATOM      9  C   UNL     1       3.818   7.290  17.546  0.00  0.00    +0.000 A 
ATOM     10  C   UNL     1       4.702   6.481  16.850  0.00  0.00    +0.000 A 
ATOM     11  C   UNL     1       4.505   5.094  16.820  0.00  0.00    +0.000 A 
ATOM     12  C   UNL     1       3.433   4.484  17.471  0.00  0.00    +0.000 A 
ATOM     13  N   UNL     1       3.269   3.143  17.387  0.00  0.00    +0.000 NA
ATOM     14  C   UNL     1       2.221   2.564  18.006  0.00  0.00    +0.000 A 
ATOM     15  C   UNL     1       1.302   3.260  18.745  0.00  0.00    +0.000 A 
ATOM     16  C   UNL     1       1.470   4.633  18.848  0.00  0.00    +0.000 A 
ATOM     17  C   UNL     1       2.535   5.305  18.198  0.00  0.00    +0.000 A 
BRANCH  11  18
ATOM     18  C   UNL     1       5.442   4.299  16.087  0.00  0.00    +0.000 C 
ATOM     19  N   UNL     1       6.251   3.712  15.491  0.00  0.00    +0.000 NA
ENDBRANCH  11  18
ENDBRANCH   4   8
BRANCH   6  20
ATOM     20  C   UNL     1       0.645  11.233  18.474  0.00  0.00    +0.000 C 
BRANCH  20  21
ATOM     21  C   UNL     1       0.513  12.435  19.428  0.00  0.00    +0.000 C 
ATOM     22  C   UNL     1      -0.690  13.358  19.179  0.00  0.00    +0.000 C 
ATOM     23  C   UNL     1      -0.085  14.745  18.975  0.00  0.00    +0.000 C 
ATOM     24  N   UNL     1       1.148  14.651  19.755  0.00  0.00    +0.000 NA
ATOM     25  C   UNL     1       2.040  15.781  19.563  0.00  0.00    +0.000 C 
ATOM     26  C   UNL     1       1.728  13.370  19.350  0.00  0.00    +0.000 C 
ENDBRANCH  20  21
ENDBRANCH   6  20
TORSDOF 4
ENDMDL
MODEL 9
REMARK VINA RESULT:      -7.1      2.615      4.301
REMARK  Name = 
REMARK  6 active torsions:
REMARK  status: ('A' for Active; 'I' for Inactive)
REMARK    1  A    between atoms: C_1  and  C_2
REMARK    2  A    between atoms: C_4  and  C_5
REMARK    3  A    between atoms: C_8  and  C_9
REMARK    4  A    between atoms: N_18  and  C_19
REMARK    5  A    between atoms: C_19  and  C_20
REMARK    6  A    between atoms: N_23  and  C_24
REMARK                            x       y       z     vdW  Elec       q    Type
REMARK                         _______ _______ _______ _____ _____    ______ ____
ROOT
ATOM      1  C   UNL     1       2.100  11.270  18.181  0.00  0.00    +0.000 C 
ATOM      2  C   UNL     1       0.825  10.422  18.306  0.00  0.00    +0.000 C 
ATOM      3  C   UNL     1       1.135   8.921  18.267  0.00  0.00    +0.000 C 
ATOM      4  C   UNL     1       1.845   8.510  19.561  0.00  0.00    +0.000 C 
ATOM      5  C   UNL     1       1.009   8.893  20.799  0.00  0.00    +0.000 C 
ATOM      6  N   UNL     1       0.704  10.346  20.831  0.00  0.00    +0.000 NA
ATOM      7  C   UNL     1       0.032  10.763  19.585  0.00  0.00    +0.000 C 
ENDROOT
BRANCH   4   8
ATOM      8  C   UNL     1       2.278   7.050  19.555  0.00  0.00    +0.000 A 
ATOM      9  C   UNL     1       1.762   6.183  20.531  0.00  0.00    +0.000 A 
ATOM     10  C   UNL     1       2.134   4.848  20.545  0.00  0.00    +0.000 A 
ATOM     11  C   UNL     1       3.039   4.364  19.592  0.00  0.00    +0.000 A 
ATOM     12  C   UNL     1       3.595   5.188  18.613  0.00  0.00    +0.000 A 
ATOM     13  N   UNL     1       4.489   4.680  17.732  0.00  0.00    +0.000 NA
ATOM     14  C   UNL     1       5.032   5.487  16.800  0.00  0.00    +0.000 A 
ATOM     15  C   UNL     1       4.718   6.813  16.673  0.00  0.00    +0.000 A 
ATOM     16  C   UNL     1       3.792   7.340  17.563  0.00  0.00    +0.000 A 
ATOM     17  C   UNL     1       3.206   6.550  18.583  0.00  0.00    +0.000 A 
BRANCH  11  18
ATOM     18  C   UNL     1       3.396   2.980  19.647  0.00  0.00    +0.000 C 
ATOM     19  N   UNL     1       3.707   1.859  19.620  0.00  0.00    +0.000 NA
ENDBRANCH  11  18
ENDBRANCH   4   8
BRANCH   6  20
ATOM     20  C   UNL     1      -0.099  10.645  22.041  0.00  0.00    +0.000 C 
BRANCH  20  21
ATOM     21  C   UNL     1      -1.055  11.849  21.962  0.00  0.00    +0.000 C 
ATOM     22  C   UNL     1      -0.419  13.226  22.211  0.00  0.00    +0.000 C 
ATOM     23  C   UNL     1      -1.217  13.824  23.367  0.00  0.00    +0.000 C 
ATOM     24  N   UNL     1      -2.515  13.172  23.204  0.00  0.00    +0.000 NA
ATOM     25  C   UNL     1      -3.421  13.403  24.316  0.00  0.00    +0.000 C 
ATOM     26  C   UNL     1      -2.181  11.762  23.003  0.00  0.00    +0.000 C 
ENDBRANCH  20  21
ENDBRANCH   6  20
TORSDOF 4
ENDMDL
