MODEL 1
REMARK VINA RESULT:      -8.5      0.000      0.000
REMARK  Name = 
REMARK  10 active torsions:
REMARK  status: ('A' for Active; 'I' for Inactive)
REMARK    1  A    between atoms: C_1  and  C_2
REMARK    2  A    between atoms: C_4  and  C_5
REMARK    3  A    between atoms: C_7  and  C_8
REMARK    4  A    between atoms: C_8  and  O_9
REMARK    5  A    between atoms: O_9  and  C_10
REMARK    6  A    between atoms: C_10  and  C_12
REMARK    7  A    between atoms: C_12  and  C_13
REMARK    8  A    between atoms: C_12  and  N_23
REMARK    9  A    between atoms: C_13  and  C_14
REMARK   10  A    between atoms: C_24  and  C_26
REMARK                            x       y       z     vdW  Elec       q    Type
REMARK                         _______ _______ _______ _____ _____    ______ ____
ROOT
ATOM      1  C   UNL     1       5.264   6.178  17.491  0.00  0.00    +0.000 C 
ENDROOT
BRANCH   1   2
ATOM      2  N   UNL     1       5.399   5.539  16.178  0.00  0.00    +0.000 N 
ATOM      3  C   UNL     1       6.609   5.492  15.525  0.00  0.00    +0.000 C 
ATOM      4  O   UNL     1       7.650   5.926  16.002  0.00  0.00    +0.000 OA
ATOM      5  H   UNL     1       4.615   5.010  15.824  0.00  0.00    +0.000 HD
BRANCH   3   6
ATOM      6  C   UNL     1       6.621   4.839  14.192  0.00  0.00    +0.000 A 
ATOM      7  C   UNL     1       7.617   5.107  13.247  0.00  0.00    +0.000 A 
ATOM      8  C   UNL     1       7.581   4.471  12.004  0.00  0.00    +0.000 A 
ATOM      9  C   UNL     1       6.562   3.564  11.712  0.00  0.00    +0.000 A 
ATOM     10  C   UNL     1       5.586   3.274  12.664  0.00  0.00    +0.000 A 
ATOM     11  C   UNL     1       5.618   3.906  13.906  0.00  0.00    +0.000 A 
ENDBRANCH   3   6
ENDBRANCH   1   2
BRANCH   1  12
ATOM     12  C   UNL     1       4.059   7.134  17.460  0.00  0.00    +0.000 C 
ATOM     13  O   UNL     1       3.693   7.710  16.438  0.00  0.00    +0.000 OA
BRANCH  12  14
ATOM     14  O   UNL     1       3.451   7.240  18.672  0.00  0.00    +0.000 OA
BRANCH  14  15
ATOM     15  C   UNL     1       2.022   7.327  18.667  0.00  0.00    +0.000 C 
BRANCH  15  22
ATOM     16  C   UNL     1       0.323   9.375  22.946  0.00  0.00    +0.000 C 
ATOM     17  C   UNL     1       0.729   9.530  21.511  0.00  0.00    +0.000 A 
ATOM     18  C   UNL     1       0.542  10.747  20.845  0.00  0.00    +0.000 A 
ATOM     19  C   UNL     1       0.883  10.883  19.495  0.00  0.00    +0.000 A 
ATOM     20  C   UNL     1       0.703  12.194  18.788  0.00  0.00    +0.000 C 
ATOM     21  C   UNL     1       1.391   9.776  18.800  0.00  0.00    +0.000 A 
ATOM     22  C   UNL     1       1.566   8.542  19.441  0.00  0.00    +0.000 A 
ATOM     23  C   UNL     1       1.244   8.435  20.803  0.00  0.00    +0.000 A 
ENDBRANCH  15  22
ENDBRANCH  14  15
ENDBRANCH  12  14
ENDBRANCH   1  12
BRANCH   1  24
ATOM     24  C   UNL     1       5.275   5.211  18.689  0.00  0.00    +0.000 C 
BRANCH  24  25
ATOM     25  C   UNL     1       4.298   4.074  18.553  0.00  0.00    +0.000 A 
ATOM     26  C   UNL     1       4.308   3.089  17.582  0.00  0.00    +0.000 A 
ATOM     27  N   UNL     1       3.247   2.252  17.809  0.00  0.00    +0.000 N 
ATOM     28  C   UNL     1       2.531   2.673  18.904  0.00  0.00    +0.000 A 
ATOM     29  C   UNL     1       1.370   2.146  19.484  0.00  0.00    +0.000 A 
ATOM     30  C   UNL     1       0.869   2.780  20.625  0.00  0.00    +0.000 A 
ATOM     31  C   UNL     1       1.515   3.882  21.175  0.00  0.00    +0.000 A 
ATOM     32  C   UNL     1       2.680   4.388  20.588  0.00  0.00    +0.000 A 
ATOM     33  C   UNL     1       3.189   3.792  19.416  0.00  0.00    +0.000 A 
ATOM     34  H   UNL     1       3.022   1.434  17.260  0.00  0.00    +0.000 HD
ENDBRANCH  24  25
ENDBRANCH   1  24
TORSDOF 8
ENDMDL
MODEL 2
REMARK VINA RESULT:      -8.4      3.670      5.074
REMARK  Name = 
REMARK  10 active torsions:
REMARK  status: ('A' for Active; 'I' for Inactive)
REMARK    1  A    between atoms: C_1  and  C_2
REMARK    2  A    between atoms: C_4  and  C_5
REMARK    3  A    between atoms: C_7  and  C_8
REMARK    4  A    between atoms: C_8  and  O_9
REMARK    5  A    between atoms: O_9  and  C_10
REMARK    6  A    between atoms: C_10  and  C_12
REMARK    7  A    between atoms: C_12  and  C_13
REMARK    8  A    between atoms: C_12  and  N_23
REMARK    9  A    between atoms: C_13  and  C_14
REMARK   10  A    between atoms: C_24  and  C_26
REMARK                            x       y       z     vdW  Elec       q    Type
REMARK                         _______ _______ _______ _____ _____    ______ ____
ROOT
ATOM      1  C   UNL     1       5.322   5.986  17.505  0.00  0.00    +0.000 C 
ENDROOT
BRANCH   1   2
ATOM      2  N   UNL     1       5.799   5.717  16.146  0.00  0.00    +0.000 N 
ATOM      3  C   UNL     1       5.597   4.497  15.543  0.00  0.00    +0.000 C 
ATOM      4  O   UNL     1       4.972   3.582  16.066  0.00  0.00    +0.000 OA
ATOM      5  H   UNL     1       6.158   6.492  15.606  0.00  0.00    +0.000 HD
BRANCH   3   6
ATOM      6  C   UNL     1       6.143   4.332  14.173  0.00  0.00    +0.000 A 
ATOM      7  C   UNL     1       5.587   3.430  13.259  0.00  0.00    +0.000 A 
ATOM      8  C   UNL     1       6.141   3.307  11.984  0.00  0.00    +0.000 A 
ATOM      9  C   UNL     1       7.237   4.090  11.619  0.00  0.00    +0.000 A 
ATOM     10  C   UNL     1       7.773   5.011  12.518  0.00  0.00    +0.000 A 
ATOM     11  C   UNL     1       7.222   5.137  13.792  0.00  0.00    +0.000 A 
ENDBRANCH   3   6
ENDBRANCH   1   2
BRANCH   1  12
ATOM     12  C   UNL     1       6.475   6.583  18.331  0.00  0.00    +0.000 C 
ATOM     13  O   UNL     1       7.017   5.976  19.252  0.00  0.00    +0.000 OA
BRANCH  12  14
ATOM     14  O   UNL     1       6.823   7.828  17.909  0.00  0.00    +0.000 OA
BRANCH  14  15
ATOM     15  C   UNL     1       8.225   8.113  17.843  0.00  0.00    +0.000 C 
BRANCH  15  22
ATOM     16  C   UNL     1       7.549  13.031  16.980  0.00  0.00    +0.000 C 
ATOM     17  C   UNL     1       8.171  11.935  17.793  0.00  0.00    +0.000 A 
ATOM     18  C   UNL     1       9.107  12.231  18.790  0.00  0.00    +0.000 A 
ATOM     19  C   UNL     1       9.719  11.208  19.522  0.00  0.00    +0.000 A 
ATOM     20  C   UNL     1      10.707  11.527  20.606  0.00  0.00    +0.000 C 
ATOM     21  C   UNL     1       9.406   9.873  19.230  0.00  0.00    +0.000 A 
ATOM     22  C   UNL     1       8.487   9.552  18.221  0.00  0.00    +0.000 A 
ATOM     23  C   UNL     1       7.865  10.595  17.517  0.00  0.00    +0.000 A 
ENDBRANCH  15  22
ENDBRANCH  14  15
ENDBRANCH  12  14
ENDBRANCH   1  12
BRANCH   1  24
ATOM     24  C   UNL     1       4.006   6.783  17.587  0.00  0.00    +0.000 C 
BRANCH  24  25
ATOM     25  C   UNL     1       3.085   6.312  18.680  0.00  0.00    +0.000 A 
ATOM     26  C   UNL     1       2.721   7.017  19.813  0.00  0.00    +0.000 A 
ATOM     27  N   UNL     1       1.876   6.233  20.554  0.00  0.00    +0.000 N 
ATOM     28  C   UNL     1       1.686   5.019  19.936  0.00  0.00    +0.000 A 
ATOM     29  C   UNL     1       0.931   3.909  20.335  0.00  0.00    +0.000 A 
ATOM     30  C   UNL     1       0.902   2.803  19.481  0.00  0.00    +0.000 A 
ATOM     31  C   UNL     1       1.583   2.815  18.269  0.00  0.00    +0.000 A 
ATOM     32  C   UNL     1       2.323   3.937  17.882  0.00  0.00    +0.000 A 
ATOM     33  C   UNL     1       2.401   5.055  18.738  0.00  0.00    +0.000 A 
ATOM     34  H   UNL     1       1.443   6.503  21.425  0.00  0.00    +0.000 HD
ENDBRANCH  24  25
ENDBRANCH   1  24
TORSDOF 8
ENDMDL
MODEL 3
REMARK VINA RESULT:      -8.4      3.486      6.250
REMARK  Name = 
REMARK  10 active torsions:
REMARK  status: ('A' for Active; 'I' for Inactive)
REMARK    1  A    between atoms: C_1  and  C_2
REMARK    2  A    between atoms: C_4  and  C_5
REMARK    3  A    between atoms: C_7  and  C_8
REMARK    4  A    between atoms: C_8  and  O_9
REMARK    5  A    between atoms: O_9  and  C_10
REMARK    6  A    between atoms: C_10  and  C_12
REMARK    7  A    between atoms: C_12  and  C_13
REMARK    8  A    between atoms: C_12  and  N_23
REMARK    9  A    between atoms: C_13  and  C_14
REMARK   10  A    between atoms: C_24  and  C_26
REMARK                            x       y       z     vdW  Elec       q    Type
REMARK                         _______ _______ _______ _____ _____    ______ ____
ROOT
ATOM      1  C   UNL     1       5.457   6.022  17.591  0.00  0.00    +0.000 C 
ENDROOT
BRANCH   1   2
ATOM      2  N   UNL     1       4.542   7.022  18.149  0.00  0.00    +0.000 N 
ATOM      3  C   UNL     1       3.182   6.933  17.961  0.00  0.00    +0.000 C 
ATOM      4  O   UNL     1       2.643   6.006  17.369  0.00  0.00    +0.000 OA
ATOM      5  H   UNL     1       4.918   7.702  18.795  0.00  0.00    +0.000 HD
BRANCH   3   6
ATOM      6  C   UNL     1       2.356   8.014  18.554  0.00  0.00    +0.000 A 
ATOM      7  C   UNL     1       1.947   9.125  17.808  0.00  0.00    +0.000 A 
ATOM      8  C   UNL     1       1.175  10.119  18.414  0.00  0.00    +0.000 A 
ATOM      9  C   UNL     1       0.803   9.997  19.754  0.00  0.00    +0.000 A 
ATOM     10  C   UNL     1       1.185   8.875  20.489  0.00  0.00    +0.000 A 
ATOM     11  C   UNL     1       1.955   7.881  19.889  0.00  0.00    +0.000 A 
ENDBRANCH   3   6
ENDBRANCH   1   2
BRANCH   1  12
ATOM     12  C   UNL     1       6.728   6.732  17.091  0.00  0.00    +0.000 C 
ATOM     13  O   UNL     1       7.420   6.290  16.177  0.00  0.00    +0.000 OA
BRANCH  12  14
ATOM     14  O   UNL     1       6.970   7.892  17.758  0.00  0.00    +0.000 OA
BRANCH  14  15
ATOM     15  C   UNL     1       8.271   8.039  18.337  0.00  0.00    +0.000 C 
BRANCH  15  22
ATOM     16  C   UNL     1      10.776  11.734  20.675  0.00  0.00    +0.000 C 
ATOM     17  C   UNL     1       9.838  11.293  19.591  0.00  0.00    +0.000 A 
ATOM     18  C   UNL     1       9.183  12.234  18.788  0.00  0.00    +0.000 A 
ATOM     19  C   UNL     1       8.277  11.826  17.803  0.00  0.00    +0.000 A 
ATOM     20  C   UNL     1       7.592  12.835  16.929  0.00  0.00    +0.000 C 
ATOM     21  C   UNL     1       8.007  10.460  17.641  0.00  0.00    +0.000 A 
ATOM     22  C   UNL     1       8.636   9.501  18.448  0.00  0.00    +0.000 A 
ATOM     23  C   UNL     1       9.562   9.930  19.412  0.00  0.00    +0.000 A 
ENDBRANCH  15  22
ENDBRANCH  14  15
ENDBRANCH  12  14
ENDBRANCH   1  12
BRANCH   1  24
ATOM     24  C   UNL     1       5.726   4.808  18.499  0.00  0.00    +0.000 C 
BRANCH  24  25
ATOM     25  C   UNL     1       4.618   3.790  18.485  0.00  0.00    +0.000 A 
ATOM     26  C   UNL     1       4.446   2.769  17.567  0.00  0.00    +0.000 A 
ATOM     27  N   UNL     1       3.315   2.073  17.905  0.00  0.00    +0.000 N 
ATOM     28  C   UNL     1       2.731   2.624  19.022  0.00  0.00    +0.000 A 
ATOM     29  C   UNL     1       1.562   2.263  19.702  0.00  0.00    +0.000 A 
ATOM     30  C   UNL     1       1.219   2.999  20.840  0.00  0.00    +0.000 A 
ATOM     31  C   UNL     1       2.025   4.040  21.289  0.00  0.00    +0.000 A 
ATOM     32  C   UNL     1       3.195   4.379  20.603  0.00  0.00    +0.000 A 
ATOM     33  C   UNL     1       3.548   3.678  19.432  0.00  0.00    +0.000 A 
ATOM     34  H   UNL     1       2.959   1.265  17.415  0.00  0.00    +0.000 HD
ENDBRANCH  24  25
ENDBRANCH   1  24
TORSDOF 8
ENDMDL
MODEL 4
REMARK VINA RESULT:      -8.4      3.482      6.415
REMARK  Name = 
REMARK  10 active torsions:
REMARK  status: ('A' for Active; 'I' for Inactive)
REMARK    1  A    between atoms: C_1  and  C_2
REMARK    2  A    between atoms: C_4  and  C_5
REMARK    3  A    between atoms: C_7  and  C_8
REMARK    4  A    between atoms: C_8  and  O_9
REMARK    5  A    between atoms: O_9  and  C_10
REMARK    6  A    between atoms: C_10  and  C_12
REMARK    7  A    between atoms: C_12  and  C_13
REMARK    8  A    between atoms: C_12  and  N_23
REMARK    9  A    between atoms: C_13  and  C_14
REMARK   10  A    between atoms: C_24  and  C_26
REMARK                            x       y       z     vdW  Elec       q    Type
REMARK                         _______ _______ _______ _____ _____    ______ ____
ROOT
ATOM      1  C   UNL     1       5.420   6.032  17.548  0.00  0.00    +0.000 C 
ENDROOT
BRANCH   1   2
ATOM      2  N   UNL     1       4.520   7.037  18.121  0.00  0.00    +0.000 N 
ATOM      3  C   UNL     1       3.155   6.945  17.973  0.00  0.00    +0.000 C 
ATOM      4  O   UNL     1       2.600   6.011  17.408  0.00  0.00    +0.000 OA
ATOM      5  H   UNL     1       4.913   7.725  18.747  0.00  0.00    +0.000 HD
BRANCH   3   6
ATOM      6  C   UNL     1       2.345   8.032  18.578  0.00  0.00    +0.000 A 
ATOM      7  C   UNL     1       1.837   7.939  19.878  0.00  0.00    +0.000 A 
ATOM      8  C   UNL     1       1.076   8.987  20.400  0.00  0.00    +0.000 A 
ATOM      9  C   UNL     1       0.833  10.126  19.631  0.00  0.00    +0.000 A 
ATOM     10  C   UNL     1       1.364  10.232  18.346  0.00  0.00    +0.000 A 
ATOM     11  C   UNL     1       2.125   9.189  17.821  0.00  0.00    +0.000 A 
ENDBRANCH   3   6
ENDBRANCH   1   2
BRANCH   1  12
ATOM     12  C   UNL     1       6.681   6.735  17.016  0.00  0.00    +0.000 C 
ATOM     13  O   UNL     1       7.357   6.280  16.096  0.00  0.00    +0.000 OA
BRANCH  12  14
ATOM     14  O   UNL     1       6.933   7.904  17.662  0.00  0.00    +0.000 OA
BRANCH  14  15
ATOM     15  C   UNL     1       8.243   8.059  18.219  0.00  0.00    +0.000 C 
BRANCH  15  22
ATOM     16  C   UNL     1       7.597  12.882  16.915  0.00  0.00    +0.000 C 
ATOM     17  C   UNL     1       8.252  11.857  17.791  0.00  0.00    +0.000 A 
ATOM     18  C   UNL     1       9.257  12.227  18.693  0.00  0.00    +0.000 A 
ATOM     19  C   UNL     1       9.898  11.267  19.483  0.00  0.00    +0.000 A 
ATOM     20  C   UNL     1      10.959  11.668  20.465  0.00  0.00    +0.000 C 
ATOM     21  C   UNL     1       9.543   9.917  19.346  0.00  0.00    +0.000 A 
ATOM     22  C   UNL     1       8.555   9.521  18.434  0.00  0.00    +0.000 A 
ATOM     23  C   UNL     1       7.905  10.504  17.671  0.00  0.00    +0.000 A 
ENDBRANCH  15  22
ENDBRANCH  14  15
ENDBRANCH  12  14
ENDBRANCH   1  12
BRANCH   1  24
ATOM     24  C   UNL     1       5.706   4.821  18.456  0.00  0.00    +0.000 C 
BRANCH  24  25
ATOM     25  C   UNL     1       4.606   3.794  18.454  0.00  0.00    +0.000 A 
ATOM     26  C   UNL     1       4.442   2.762  17.547  0.00  0.00    +0.000 A 
ATOM     27  N   UNL     1       3.317   2.061  17.892  0.00  0.00    +0.000 N 
ATOM     28  C   UNL     1       2.728   2.619  19.002  0.00  0.00    +0.000 A 
ATOM     29  C   UNL     1       1.561   2.257  19.687  0.00  0.00    +0.000 A 
ATOM     30  C   UNL     1       1.212   3.003  20.816  0.00  0.00    +0.000 A 
ATOM     31  C   UNL     1       2.009   4.055  21.254  0.00  0.00    +0.000 A 
ATOM     32  C   UNL     1       3.177   4.396  20.564  0.00  0.00    +0.000 A 
ATOM     33  C   UNL     1       3.536   3.684  19.401  0.00  0.00    +0.000 A 
ATOM     34  H   UNL     1       2.967   1.245  17.411  0.00  0.00    +0.000 HD
ENDBRANCH  24  25
ENDBRANCH   1  24
TORSDOF 8
ENDMDL
MODEL 5
REMARK VINA RESULT:      -8.4      0.974      1.030
REMARK  Name = 
REMARK  10 active torsions:
REMARK  status: ('A' for Active; 'I' for Inactive)
REMARK    1  A    between atoms: C_1  and  C_2
REMARK    2  A    between atoms: C_4  and  C_5
REMARK    3  A    between atoms: C_7  and  C_8
REMARK    4  A    between atoms: C_8  and  O_9
REMARK    5  A    between atoms: O_9  and  C_10
REMARK    6  A    between atoms: C_10  and  C_12
REMARK    7  A    between atoms: C_12  and  C_13
REMARK    8  A    between atoms: C_12  and  N_23
REMARK    9  A    between atoms: C_13  and  C_14
REMARK   10  A    between atoms: C_24  and  C_26
REMARK                            x       y       z     vdW  Elec       q    Type
REMARK                         _______ _______ _______ _____ _____    ______ ____
ROOT
ATOM      1  C   UNL     1       4.842   6.324  17.702  0.00  0.00    +0.000 C 
ENDROOT
BRANCH   1   2
ATOM      2  N   UNL     1       5.087   5.683  16.407  0.00  0.00    +0.000 N 
ATOM      3  C   UNL     1       6.345   5.652  15.849  0.00  0.00    +0.000 C 
ATOM      4  O   UNL     1       7.339   6.103  16.403  0.00  0.00    +0.000 OA
ATOM      5  H   UNL     1       4.341   5.140  15.996  0.00  0.00    +0.000 HD
BRANCH   3   6
ATOM      6  C   UNL     1       6.469   4.994  14.524  0.00  0.00    +0.000 A 
ATOM      7  C   UNL     1       7.476   5.344  13.617  0.00  0.00    +0.000 A 
ATOM      8  C   UNL     1       7.548   4.699  12.381  0.00  0.00    +0.000 A 
ATOM      9  C   UNL     1       6.626   3.703  12.057  0.00  0.00    +0.000 A 
ATOM     10  C   UNL     1       5.641   3.333  12.971  0.00  0.00    +0.000 A 
ATOM     11  C   UNL     1       5.566   3.973  14.207  0.00  0.00    +0.000 A 
ENDBRANCH   3   6
ENDBRANCH   1   2
BRANCH   1  12
ATOM     12  C   UNL     1       3.369   6.763  17.771  0.00  0.00    +0.000 C 
ATOM     13  O   UNL     1       2.439   6.022  17.459  0.00  0.00    +0.000 OA
BRANCH  12  14
ATOM     14  O   UNL     1       3.229   8.035  18.230  0.00  0.00    +0.000 OA
BRANCH  14  15
ATOM     15  C   UNL     1       2.208   8.829  17.616  0.00  0.00    +0.000 C 
BRANCH  15  22
ATOM     16  C   UNL     1       0.529   8.891  22.367  0.00  0.00    +0.000 C 
ATOM     17  C   UNL     1       0.460   9.418  20.964  0.00  0.00    +0.000 A 
ATOM     18  C   UNL     1      -0.550  10.312  20.588  0.00  0.00    +0.000 A 
ATOM     19  C   UNL     1      -0.641  10.774  19.270  0.00  0.00    +0.000 A 
ATOM     20  C   UNL     1      -1.710  11.749  18.873  0.00  0.00    +0.000 C 
ATOM     21  C   UNL     1       0.277  10.311  18.316  0.00  0.00    +0.000 A 
ATOM     22  C   UNL     1       1.283   9.399  18.666  0.00  0.00    +0.000 A 
ATOM     23  C   UNL     1       1.373   8.971  19.999  0.00  0.00    +0.000 A 
ENDBRANCH  15  22
ENDBRANCH  14  15
ENDBRANCH  12  14
ENDBRANCH   1  12
BRANCH   1  24
ATOM     24  C   UNL     1       5.322   5.522  18.926  0.00  0.00    +0.000 C 
BRANCH  24  25
ATOM     25  C   UNL     1       4.633   4.193  19.082  0.00  0.00    +0.000 A 
ATOM     26  C   UNL     1       5.065   2.976  18.586  0.00  0.00    +0.000 A 
ATOM     27  N   UNL     1       4.151   2.019  18.941  0.00  0.00    +0.000 N 
ATOM     28  C   UNL     1       3.118   2.584  19.651  0.00  0.00    +0.000 A 
ATOM     29  C   UNL     1       1.965   2.000  20.189  0.00  0.00    +0.000 A 
ATOM     30  C   UNL     1       1.087   2.828  20.894  0.00  0.00    +0.000 A 
ATOM     31  C   UNL     1       1.363   4.180  21.072  0.00  0.00    +0.000 A 
ATOM     32  C   UNL     1       2.526   4.743  20.537  0.00  0.00    +0.000 A 
ATOM     33  C   UNL     1       3.413   3.940  19.790  0.00  0.00    +0.000 A 
ATOM     34  H   UNL     1       4.223   1.035  18.723  0.00  0.00    +0.000 HD
ENDBRANCH  24  25
ENDBRANCH   1  24
TORSDOF 8
ENDMDL
MODEL 6
REMARK VINA RESULT:      -8.3      0.174      1.755
REMARK  Name = 
REMARK  10 active torsions:
REMARK  status: ('A' for Active; 'I' for Inactive)
REMARK    1  A    between atoms: C_1  and  C_2
REMARK    2  A    between atoms: C_4  and  C_5
REMARK    3  A    between atoms: C_7  and  C_8
REMARK    4  A    between atoms: C_8  and  O_9
REMARK    5  A    between atoms: O_9  and  C_10
REMARK    6  A    between atoms: C_10  and  C_12
REMARK    7  A    between atoms: C_12  and  C_13
REMARK    8  A    between atoms: C_12  and  N_23
REMARK    9  A    between atoms: C_13  and  C_14
REMARK   10  A    between atoms: C_24  and  C_26
REMARK                            x       y       z     vdW  Elec       q    Type
REMARK                         _______ _______ _______ _____ _____    ______ ____
ROOT
ATOM      1  C   UNL     1       5.355   6.052  17.504  0.00  0.00    +0.000 C 
ENDROOT
BRANCH   1   2
ATOM      2  N   UNL     1       5.483   5.409  16.194  0.00  0.00    +0.000 N 
ATOM      3  C   UNL     1       6.643   5.502  15.459  0.00  0.00    +0.000 C 
ATOM      4  O   UNL     1       7.649   6.073  15.859  0.00  0.00    +0.000 OA
ATOM      5  H   UNL     1       4.751   4.777  15.900  0.00  0.00    +0.000 HD
BRANCH   3   6
ATOM      6  C   UNL     1       6.650   4.828  14.137  0.00  0.00    +0.000 A 
ATOM      7  C   UNL     1       5.689   3.873  13.789  0.00  0.00    +0.000 A 
ATOM      8  C   UNL     1       5.742   3.263  12.534  0.00  0.00    +0.000 A 
ATOM      9  C   UNL     1       6.743   3.614  11.627  0.00  0.00    +0.000 A 
ATOM     10  C   UNL     1       7.683   4.588  11.961  0.00  0.00    +0.000 A 
ATOM     11  C   UNL     1       7.633   5.200  13.213  0.00  0.00    +0.000 A 
ENDBRANCH   3   6
ENDBRANCH   1   2
BRANCH   1  12
ATOM     12  C   UNL     1       4.214   7.083  17.446  0.00  0.00    +0.000 C 
ATOM     13  O   UNL     1       3.920   7.691  16.420  0.00  0.00    +0.000 OA
BRANCH  12  14
ATOM     14  O   UNL     1       3.574   7.215  18.638  0.00  0.00    +0.000 OA
BRANCH  14  15
ATOM     15  C   UNL     1       2.143   7.209  18.602  0.00  0.00    +0.000 C 
BRANCH  15  22
ATOM     16  C   UNL     1       1.025  12.122  18.681  0.00  0.00    +0.000 C 
ATOM     17  C   UNL     1       1.065  10.794  19.377  0.00  0.00    +0.000 A 
ATOM     18  C   UNL     1       0.748  10.692  20.736  0.00  0.00    +0.000 A 
ATOM     19  C   UNL     1       0.823   9.461  21.398  0.00  0.00    +0.000 A 
ATOM     20  C   UNL     1       0.462   9.349  22.850  0.00  0.00    +0.000 C 
ATOM     21  C   UNL     1       1.249   8.327  20.691  0.00  0.00    +0.000 A 
ATOM     22  C   UNL     1       1.593   8.410  19.335  0.00  0.00    +0.000 A 
ATOM     23  C   UNL     1       1.483   9.649  18.684  0.00  0.00    +0.000 A 
ENDBRANCH  15  22
ENDBRANCH  14  15
ENDBRANCH  12  14
ENDBRANCH   1  12
BRANCH   1  24
ATOM     24  C   UNL     1       5.272   5.083  18.699  0.00  0.00    +0.000 C 
BRANCH  24  25
ATOM     25  C   UNL     1       4.243   4.000  18.525  0.00  0.00    +0.000 A 
ATOM     26  C   UNL     1       4.223   3.031  17.537  0.00  0.00    +0.000 A 
ATOM     27  N   UNL     1       3.118   2.244  17.729  0.00  0.00    +0.000 N 
ATOM     28  C   UNL     1       2.401   2.684  18.817  0.00  0.00    +0.000 A 
ATOM     29  C   UNL     1       1.204   2.207  19.365  0.00  0.00    +0.000 A 
ATOM     30  C   UNL     1       0.712   2.846  20.507  0.00  0.00    +0.000 A 
ATOM     31  C   UNL     1       1.401   3.906  21.087  0.00  0.00    +0.000 A 
ATOM     32  C   UNL     1       2.602   4.362  20.532  0.00  0.00    +0.000 A 
ATOM     33  C   UNL     1       3.104   3.760  19.360  0.00  0.00    +0.000 A 
ATOM     34  H   UNL     1       2.863   1.448  17.162  0.00  0.00    +0.000 HD
ENDBRANCH  24  25
ENDBRANCH   1  24
TORSDOF 8
ENDMDL
MODEL 7
REMARK VINA RESULT:      -8.3      3.843      9.389
REMARK  Name = 
REMARK  10 active torsions:
REMARK  status: ('A' for Active; 'I' for Inactive)
REMARK    1  A    between atoms: C_1  and  C_2
REMARK    2  A    between atoms: C_4  and  C_5
REMARK    3  A    between atoms: C_7  and  C_8
REMARK    4  A    between atoms: C_8  and  O_9
REMARK    5  A    between atoms: O_9  and  C_10
REMARK    6  A    between atoms: C_10  and  C_12
REMARK    7  A    between atoms: C_12  and  C_13
REMARK    8  A    between atoms: C_12  and  N_23
REMARK    9  A    between atoms: C_13  and  C_14
REMARK   10  A    between atoms: C_24  and  C_26
REMARK                            x       y       z     vdW  Elec       q    Type
REMARK                         _______ _______ _______ _____ _____    ______ ____
ROOT
ATOM      1  C   UNL     1       0.690   9.742  19.288  0.00  0.00    +0.000 C 
ENDROOT
BRANCH   1   2
ATOM      2  N   UNL     1      -0.635   9.942  18.694  0.00  0.00    +0.000 N 
ATOM      3  C   UNL     1      -1.048  11.181  18.262  0.00  0.00    +0.000 C 
ATOM      4  O   UNL     1      -0.337  12.178  18.296  0.00  0.00    +0.000 OA
ATOM      5  H   UNL     1      -1.187   9.124  18.478  0.00  0.00    +0.000 HD
BRANCH   3   6
ATOM      6  C   UNL     1      -2.417  11.267  17.698  0.00  0.00    +0.000 A 
ATOM      7  C   UNL     1      -2.696  10.901  16.376  0.00  0.00    +0.000 A 
ATOM      8  C   UNL     1      -4.001  11.006  15.889  0.00  0.00    +0.000 A 
ATOM      9  C   UNL     1      -5.023  11.463  16.722  0.00  0.00    +0.000 A 
ATOM     10  C   UNL     1      -4.752  11.799  18.048  0.00  0.00    +0.000 A 
ATOM     11  C   UNL     1      -3.452  11.695  18.538  0.00  0.00    +0.000 A 
ENDBRANCH   3   6
ENDBRANCH   1   2
BRANCH   1  12
ATOM     12  C   UNL     1       1.733   9.639  18.161  0.00  0.00    +0.000 C 
ATOM     13  O   UNL     1       2.308  10.621  17.696  0.00  0.00    +0.000 OA
BRANCH  12  14
ATOM     14  O   UNL     1       1.949   8.355  17.771  0.00  0.00    +0.000 OA
BRANCH  14  15
ATOM     15  C   UNL     1       2.476   7.464  18.761  0.00  0.00    +0.000 C 
BRANCH  15  22
ATOM     16  C   UNL     1       5.939   5.473  15.690  0.00  0.00    +0.000 C 
ATOM     17  C   UNL     1       4.763   5.291  16.603  0.00  0.00    +0.000 A 
ATOM     18  C   UNL     1       4.144   4.042  16.727  0.00  0.00    +0.000 A 
ATOM     19  C   UNL     1       3.022   3.878  17.547  0.00  0.00    +0.000 A 
ATOM     20  C   UNL     1       2.372   2.535  17.697  0.00  0.00    +0.000 C 
ATOM     21  C   UNL     1       2.503   4.988  18.229  0.00  0.00    +0.000 A 
ATOM     22  C   UNL     1       3.094   6.253  18.103  0.00  0.00    +0.000 A 
ATOM     23  C   UNL     1       4.235   6.389  17.297  0.00  0.00    +0.000 A 
ENDBRANCH  15  22
ENDBRANCH  14  15
ENDBRANCH  12  14
ENDBRANCH   1  12
BRANCH   1  24
ATOM     24  C   UNL     1       1.060  10.739  20.403  0.00  0.00    +0.000 C 
BRANCH  24  25
ATOM     25  C   UNL     1       0.117  10.705  21.576  0.00  0.00    +0.000 A 
ATOM     26  C   UNL     1       0.041   9.722  22.546  0.00  0.00    +0.000 A 
ATOM     27  N   UNL     1      -0.950  10.065  23.428  0.00  0.00    +0.000 N 
ATOM     28  C   UNL     1      -1.537  11.250  23.051  0.00  0.00    +0.000 A 
ATOM     29  C   UNL     1      -2.594  11.961  23.632  0.00  0.00    +0.000 A 
ATOM     30  C   UNL     1      -2.970  13.168  23.035  0.00  0.00    +0.000 A 
ATOM     31  C   UNL     1      -2.302  13.652  21.915  0.00  0.00    +0.000 A 
ATOM     32  C   UNL     1      -1.241  12.933  21.356  0.00  0.00    +0.000 A 
ATOM     33  C   UNL     1      -0.862  11.695  21.914  0.00  0.00    +0.000 A 
ATOM     34  H   UNL     1      -1.212   9.534  24.246  0.00  0.00    +0.000 HD
ENDBRANCH  24  25
ENDBRANCH   1  24
TORSDOF 8
ENDMDL
MODEL 8
REMARK VINA RESULT:      -8.2      3.954      7.475
REMARK  Name = 
REMARK  10 active torsions:
REMARK  status: ('A' for Active; 'I' for Inactive)
REMARK    1  A    between atoms: C_1  and  C_2
REMARK    2  A    between atoms: C_4  and  C_5
REMARK    3  A    between atoms: C_7  and  C_8
REMARK    4  A    between atoms: C_8  and  O_9
REMARK    5  A    between atoms: O_9  and  C_10
REMARK    6  A    between atoms: C_10  and  C_12
REMARK    7  A    between atoms: C_12  and  C_13
REMARK    8  A    between atoms: C_12  and  N_23
REMARK    9  A    between atoms: C_13  and  C_14
REMARK   10  A    between atoms: C_24  and  C_26
REMARK                            x       y       z     vdW  Elec       q    Type
REMARK                         _______ _______ _______ _____ _____    ______ ____
ROOT
ATOM      1  C   UNL     1       0.998   9.029  21.031  0.00  0.00    +0.000 C 
ENDROOT
BRANCH   1   2
ATOM      2  N   UNL     1      -0.164   9.327  20.190  0.00  0.00    +0.000 N 
ATOM      3  C   UNL     1      -0.110  10.286  19.205  0.00  0.00    +0.000 C 
ATOM      4  O   UNL     1       0.906  10.913  18.931  0.00  0.00    +0.000 OA
ATOM      5  H   UNL     1      -0.966   8.716  20.253  0.00  0.00    +0.000 HD
BRANCH   3   6
ATOM      6  C   UNL     1      -1.354  10.516  18.430  0.00  0.00    +0.000 A 
ATOM      7  C   UNL     1      -2.314  11.451  18.833  0.00  0.00    +0.000 A 
ATOM      8  C   UNL     1      -3.471  11.627  18.073  0.00  0.00    +0.000 A 
ATOM      9  C   UNL     1      -3.663  10.882  16.909  0.00  0.00    +0.000 A 
ATOM     10  C   UNL     1      -2.694   9.972  16.489  0.00  0.00    +0.000 A 
ATOM     11  C   UNL     1      -1.536   9.793  17.245  0.00  0.00    +0.000 A 
ENDBRANCH   3   6
ENDBRANCH   1   2
BRANCH   1  12
ATOM     12  C   UNL     1       0.887   9.832  22.340  0.00  0.00    +0.000 C 
ATOM     13  O   UNL     1       1.499   9.527  23.360  0.00  0.00    +0.000 OA
BRANCH  12  14
ATOM     14  O   UNL     1       0.062  10.906  22.219  0.00  0.00    +0.000 OA
BRANCH  14  15
ATOM     15  C   UNL     1      -1.021  10.991  23.152  0.00  0.00    +0.000 C 
BRANCH  15  22
ATOM     16  C   UNL     1      -1.914  15.247  20.607  0.00  0.00    +0.000 C 
ATOM     17  C   UNL     1      -2.391  14.176  21.542  0.00  0.00    +0.000 A 
ATOM     18  C   UNL     1      -3.636  14.282  22.172  0.00  0.00    +0.000 A 
ATOM     19  C   UNL     1      -4.066  13.304  23.075  0.00  0.00    +0.000 A 
ATOM     20  C   UNL     1      -5.410  13.408  23.734  0.00  0.00    +0.000 C 
ATOM     21  C   UNL     1      -3.224  12.221  23.367  0.00  0.00    +0.000 A 
ATOM     22  C   UNL     1      -1.964  12.105  22.763  0.00  0.00    +0.000 A 
ATOM     23  C   UNL     1      -1.564  13.083  21.840  0.00  0.00    +0.000 A 
ENDBRANCH  15  22
ENDBRANCH  14  15
ENDBRANCH  12  14
ENDBRANCH   1  12
BRANCH   1  24
ATOM     24  C   UNL     1       1.290   7.530  21.232  0.00  0.00    +0.000 C 
BRANCH  24  25
ATOM     25  C   UNL     1       1.810   6.848  19.996  0.00  0.00    +0.000 A 
ATOM     26  C   UNL     1       2.508   7.441  18.958  0.00  0.00    +0.000 A 
ATOM     27  N   UNL     1       2.791   6.477  18.026  0.00  0.00    +0.000 N 
ATOM     28  C   UNL     1       2.283   5.263  18.423  0.00  0.00    +0.000 A 
ATOM     29  C   UNL     1       2.311   4.017  17.784  0.00  0.00    +0.000 A 
ATOM     30  C   UNL     1       1.725   2.935  18.447  0.00  0.00    +0.000 A 
ATOM     31  C   UNL     1       1.154   3.089  19.705  0.00  0.00    +0.000 A 
ATOM     32  C   UNL     1       1.145   4.338  20.333  0.00  0.00    +0.000 A 
ATOM     33  C   UNL     1       1.697   5.457  19.674  0.00  0.00    +0.000 A 
ATOM     34  H   UNL     1       3.307   6.627  17.171  0.00  0.00    +0.000 HD
ENDBRANCH  24  25
ENDBRANCH   1  24
TORSDOF 8
ENDMDL
MODEL 9
REMARK VINA RESULT:      -8.2      2.207      8.124
REMARK  Name = 
REMARK  10 active torsions:
REMARK  status: ('A' for Active; 'I' for Inactive)
REMARK    1  A    between atoms: C_1  and  C_2
REMARK    2  A    between atoms: C_4  and  C_5
REMARK    3  A    between atoms: C_7  and  C_8
REMARK    4  A    between atoms: C_8  and  O_9
REMARK    5  A    between atoms: O_9  and  C_10
REMARK    6  A    between atoms: C_10  and  C_12
REMARK    7  A    between atoms: C_12  and  C_13
REMARK    8  A    between atoms: C_12  and  N_23
REMARK    9  A    between atoms: C_13  and  C_14
REMARK   10  A    between atoms: C_24  and  C_26
REMARK                            x       y       z     vdW  Elec       q    Type
REMARK                         _______ _______ _______ _____ _____    ______ ____
ROOT
ATOM      1  C   UNL     1       1.742   7.999  19.180  0.00  0.00    +0.000 C 
ENDROOT
BRANCH   1   2
ATOM      2  N   UNL     1       1.281   9.181  19.913  0.00  0.00    +0.000 N 
ATOM      3  C   UNL     1       0.242   9.108  20.812  0.00  0.00    +0.000 C 
ATOM      4  O   UNL     1      -0.329   8.063  21.098  0.00  0.00    +0.000 OA
ATOM      5  H   UNL     1       1.834  10.025  19.850  0.00  0.00    +0.000 HD
BRANCH   3   6
ATOM      6  C   UNL     1      -0.151  10.374  21.480  0.00  0.00    +0.000 A 
ATOM      7  C   UNL     1      -0.894  10.384  22.666  0.00  0.00    +0.000 A 
ATOM      8  C   UNL     1      -1.245  11.602  23.252  0.00  0.00    +0.000 A 
ATOM      9  C   UNL     1      -0.846  12.802  22.663  0.00  0.00    +0.000 A 
ATOM     10  C   UNL     1      -0.081  12.793  21.497  0.00  0.00    +0.000 A 
ATOM     11  C   UNL     1       0.272  11.580  20.909  0.00  0.00    +0.000 A 
ENDBRANCH   3   6
ENDBRANCH   1   2
BRANCH   1  12
ATOM     12  C   UNL     1       2.363   8.448  17.846  0.00  0.00    +0.000 C 
ATOM     13  O   UNL     1       2.162   9.559  17.360  0.00  0.00    +0.000 OA
BRANCH  12  14
ATOM     14  O   UNL     1       3.160   7.492  17.298  0.00  0.00    +0.000 OA
BRANCH  14  15
ATOM     15  C   UNL     1       4.495   7.886  16.963  0.00  0.00    +0.000 C 
BRANCH  15  22
ATOM     16  C   UNL     1       8.175   5.029  18.882  0.00  0.00    +0.000 C 
ATOM     17  C   UNL     1       7.185   5.298  17.788  0.00  0.00    +0.000 A 
ATOM     18  C   UNL     1       7.192   4.534  16.616  0.00  0.00    +0.000 A 
ATOM     19  C   UNL     1       6.296   4.809  15.577  0.00  0.00    +0.000 A 
ATOM     20  C   UNL     1       6.290   3.975  14.330  0.00  0.00    +0.000 C 
ATOM     21  C   UNL     1       5.402   5.881  15.708  0.00  0.00    +0.000 A 
ATOM     22  C   UNL     1       5.392   6.674  16.864  0.00  0.00    +0.000 A 
ATOM     23  C   UNL     1       6.280   6.363  17.905  0.00  0.00    +0.000 A 
ENDBRANCH  15  22
ENDBRANCH  14  15
ENDBRANCH  12  14
ENDBRANCH   1  12
BRANCH   1  24
ATOM     24  C   UNL     1       2.622   7.031  19.994  0.00  0.00    +0.000 C 
BRANCH  24  25
ATOM     25  C   UNL     1       2.079   5.629  20.050  0.00  0.00    +0.000 A 
ATOM     26  C   UNL     1       1.292   5.088  21.051  0.00  0.00    +0.000 A 
ATOM     27  N   UNL     1       1.020   3.785  20.726  0.00  0.00    +0.000 N 
ATOM     28  C   UNL     1       1.623   3.452  19.536  0.00  0.00    +0.000 A 
ATOM     29  C   UNL     1       1.639   2.239  18.838  0.00  0.00    +0.000 A 
ATOM     30  C   UNL     1       2.326   2.199  17.621  0.00  0.00    +0.000 A 
ATOM     31  C   UNL     1       2.953   3.332  17.115  0.00  0.00    +0.000 A 
ATOM     32  C   UNL     1       2.917   4.539  17.821  0.00  0.00    +0.000 A 
ATOM     33  C   UNL     1       2.262   4.601  19.069  0.00  0.00    +0.000 A 
ATOM     34  H   UNL     1       0.450   3.154  21.273  0.00  0.00    +0.000 HD
ENDBRANCH  24  25
ENDBRANCH   1  24
TORSDOF 8
ENDMDL
