MODEL 1
REMARK VINA RESULT:      -7.2      0.000      0.000
REMARK  Name = 
REMARK  8 active torsions:
REMARK  status: ('A' for Active; 'I' for Inactive)
REMARK    1  A    between atoms: C_1  and  C_2
REMARK    2  A    between atoms: C_2  and  C_3
REMARK    3  A    between atoms: N_5  and  C_6
REMARK    4  A    between atoms: C_9  and  C_10
REMARK    5  A    between atoms: C_10  and  C_11
REMARK    6  A    between atoms: C_13  and  C_14
REMARK    7  A    between atoms: N_22  and  C_23
REMARK    8  A    between atoms: C_23  and  C_24
REMARK                            x       y       z     vdW  Elec       q    Type
REMARK                         _______ _______ _______ _____ _____    ______ ____
ROOT
ATOM      1  C   UNL     1      -1.480  13.111  20.268  0.00  0.00    +0.000 A 
ATOM      2  N   UNL     1      -1.041  14.183  19.660  0.00  0.00    +0.000 NA
ATOM      3  C   UNL     1       0.363  14.266  19.491  0.00  0.00    +0.000 A 
ATOM      4  C   UNL     1       0.954  15.480  19.144  0.00  0.00    +0.000 A 
ATOM      5  C   UNL     1       2.305  15.525  18.787  0.00  0.00    +0.000 A 
ATOM      6  C   UNL     1       3.067  14.352  18.754  0.00  0.00    +0.000 A 
ATOM      7  C   UNL     1       2.497  13.131  19.113  0.00  0.00    +0.000 A 
ATOM      8  C   UNL     1       1.158  13.098  19.499  0.00  0.00    +0.000 A 
ATOM      9  N   UNL     1       0.586  11.886  20.001  0.00  0.00    +0.000 N 
ATOM     10  C   UNL     1      -0.466  12.135  20.882  0.00  0.00    +0.000 A 
ATOM     11  O   UNL     1      -0.597  11.653  21.993  0.00  0.00    +0.000 OA
ENDROOT
BRANCH   1  17
ATOM     12  C   UNL     1      -3.843  13.017  21.130  0.00  0.00    +0.000 A 
ATOM     13  C   UNL     1      -5.195  12.772  20.860  0.00  0.00    +0.000 A 
ATOM     14  C   UNL     1      -5.605  12.166  19.673  0.00  0.00    +0.000 A 
ATOM     15  C   UNL     1      -4.671  11.777  18.715  0.00  0.00    +0.000 A 
ATOM     16  C   UNL     1      -3.315  12.021  18.961  0.00  0.00    +0.000 A 
ATOM     17  C   UNL     1      -2.892  12.651  20.150  0.00  0.00    +0.000 A 
BRANCH  12  20
ATOM     18  C   UNL     1      -3.386  13.139  23.588  0.00  0.00    +0.000 C 
ATOM     19  O   UNL     1      -3.547  11.952  23.862  0.00  0.00    +0.000 OA
ATOM     20  N   UNL     1      -3.452  13.693  22.321  0.00  0.00    +0.000 N 
ATOM     21  H   UNL     1      -3.027  14.612  22.186  0.00  0.00    +0.000 HD
BRANCH  18  23
ATOM     22  C   UNL     1      -2.640  15.478  24.084  0.00  0.00    +0.000 C 
ATOM     23  C   UNL     1      -3.110  14.156  24.681  0.00  0.00    +0.000 C 
ENDBRANCH  18  23
ENDBRANCH  12  20
BRANCH  15  24
ATOM     24  C   UNL     1      -5.140  11.159  17.423  0.00  0.00    +0.000 C 
ATOM     25  C   UNL     1      -4.021  11.052  16.395  0.00  0.00    +0.000 C 
ENDBRANCH  15  24
ENDBRANCH   1  17
BRANCH   9  26
ATOM     26  C   UNL     1       0.206  10.931  18.956  0.00  0.00    +0.000 C 
BRANCH  26  27
ATOM     27  C   UNL     1       0.991   9.652  19.022  0.00  0.00    +0.000 A 
ATOM     28  C   UNL     1       1.690   9.184  17.900  0.00  0.00    +0.000 A 
ATOM     29  C   UNL     1       2.423   8.000  17.972  0.00  0.00    +0.000 A 
ATOM     30  C   UNL     1       2.467   7.283  19.169  0.00  0.00    +0.000 A 
ATOM     31  C   UNL     1       1.798   7.757  20.293  0.00  0.00    +0.000 A 
ATOM     32  C   UNL     1       1.065   8.938  20.225  0.00  0.00    +0.000 A 
ENDBRANCH  26  27
ENDBRANCH   9  26
TORSDOF 6
ENDMDL
MODEL 2
REMARK VINA RESULT:      -7.2      1.454      3.688
REMARK  Name = 
REMARK  8 active torsions:
REMARK  status: ('A' for Active; 'I' for Inactive)
REMARK    1  A    between atoms: C_1  and  C_2
REMARK    2  A    between atoms: C_2  and  C_3
REMARK    3  A    between atoms: N_5  and  C_6
REMARK    4  A    between atoms: C_9  and  C_10
REMARK    5  A    between atoms: C_10  and  C_11
REMARK    6  A    between atoms: C_13  and  C_14
REMARK    7  A    between atoms: N_22  and  C_23
REMARK    8  A    between atoms: C_23  and  C_24
REMARK                            x       y       z     vdW  Elec       q    Type
REMARK                         _______ _______ _______ _____ _____    ______ ____
ROOT
ATOM      1  C   UNL     1      -1.427  13.536  20.698  0.00  0.00    +0.000 A 
ATOM      2  N   UNL     1      -0.965  14.395  19.826  0.00  0.00    +0.000 NA
ATOM      3  C   UNL     1       0.392  14.230  19.456  0.00  0.00    +0.000 A 
ATOM      4  C   UNL     1       1.063  15.251  18.786  0.00  0.00    +0.000 A 
ATOM      5  C   UNL     1       2.333  15.021  18.248  0.00  0.00    +0.000 A 
ATOM      6  C   UNL     1       2.930  13.761  18.359  0.00  0.00    +0.000 A 
ATOM      7  C   UNL     1       2.280  12.731  19.038  0.00  0.00    +0.000 A 
ATOM      8  C   UNL     1       1.028  12.976  19.600  0.00  0.00    +0.000 A 
ATOM      9  N   UNL     1       0.401  11.982  20.417  0.00  0.00    +0.000 N 
ATOM     10  C   UNL     1      -0.454  12.550  21.360  0.00  0.00    +0.000 A 
ATOM     11  O   UNL     1      -0.461  12.311  22.555  0.00  0.00    +0.000 OA
ENDROOT
BRANCH   1  17
ATOM     12  C   UNL     1      -3.622  12.643  19.849  0.00  0.00    +0.000 A 
ATOM     13  C   UNL     1      -4.921  12.212  20.144  0.00  0.00    +0.000 A 
ATOM     14  C   UNL     1      -5.492  12.418  21.399  0.00  0.00    +0.000 A 
ATOM     15  C   UNL     1      -4.782  13.074  22.402  0.00  0.00    +0.000 A 
ATOM     16  C   UNL     1      -3.479  13.506  22.131  0.00  0.00    +0.000 A 
ATOM     17  C   UNL     1      -2.885  13.284  20.871  0.00  0.00    +0.000 A 
BRANCH  12  20
ATOM     18  C   UNL     1      -3.306  11.270  17.779  0.00  0.00    +0.000 C 
ATOM     19  O   UNL     1      -4.173  10.425  17.988  0.00  0.00    +0.000 OA
ATOM     20  N   UNL     1      -3.036  12.367  18.580  0.00  0.00    +0.000 N 
ATOM     21  H   UNL     1      -2.504  13.133  18.164  0.00  0.00    +0.000 HD
BRANCH  18  23
ATOM     22  C   UNL     1      -3.196  10.868  15.310  0.00  0.00    +0.000 C 
ATOM     23  C   UNL     1      -2.393  11.161  16.572  0.00  0.00    +0.000 C 
ENDBRANCH  18  23
ENDBRANCH  12  20
BRANCH  15  24
ATOM     24  C   UNL     1      -5.405  13.252  23.764  0.00  0.00    +0.000 C 
ATOM     25  C   UNL     1      -4.767  12.352  24.813  0.00  0.00    +0.000 C 
ENDBRANCH  15  24
ENDBRANCH   1  17
BRANCH   9  26
ATOM     26  C   UNL     1      -0.259  10.918  19.655  0.00  0.00    +0.000 C 
BRANCH  26  27
ATOM     27  C   UNL     1       0.644   9.746  19.389  0.00  0.00    +0.000 A 
ATOM     28  C   UNL     1       1.124   9.492  18.097  0.00  0.00    +0.000 A 
ATOM     29  C   UNL     1       1.968   8.408  17.861  0.00  0.00    +0.000 A 
ATOM     30  C   UNL     1       2.341   7.576  18.917  0.00  0.00    +0.000 A 
ATOM     31  C   UNL     1       1.890   7.839  20.207  0.00  0.00    +0.000 A 
ATOM     32  C   UNL     1       1.048   8.920  20.447  0.00  0.00    +0.000 A 
ENDBRANCH  26  27
ENDBRANCH   9  26
TORSDOF 6
ENDMDL
MODEL 3
REMARK VINA RESULT:      -7.0      1.513      1.930
REMARK  Name = 
REMARK  8 active torsions:
REMARK  status: ('A' for Active; 'I' for Inactive)
REMARK    1  A    between atoms: C_1  and  C_2
REMARK    2  A    between atoms: C_2  and  C_3
REMARK    3  A    between atoms: N_5  and  C_6
REMARK    4  A    between atoms: C_9  and  C_10
REMARK    5  A    between atoms: C_10  and  C_11
REMARK    6  A    between atoms: C_13  and  C_14
REMARK    7  A    between atoms: N_22  and  C_23
REMARK    8  A    between atoms: C_23  and  C_24
REMARK                            x       y       z     vdW  Elec       q    Type
REMARK                         _______ _______ _______ _____ _____    ______ ____
ROOT
ATOM      1  C   UNL     1      -1.528  12.344  19.734  0.00  0.00    +0.000 A 
ATOM      2  N   UNL     1      -1.168  13.599  19.648  0.00  0.00    +0.000 NA
ATOM      3  C   UNL     1       0.130  13.903  20.127  0.00  0.00    +0.000 A 
ATOM      4  C   UNL     1       0.493  15.227  20.367  0.00  0.00    +0.000 A 
ATOM      5  C   UNL     1       1.824  15.549  20.650  0.00  0.00    +0.000 A 
ATOM      6  C   UNL     1       2.803  14.550  20.673  0.00  0.00    +0.000 A 
ATOM      7  C   UNL     1       2.456  13.218  20.450  0.00  0.00    +0.000 A 
ATOM      8  C   UNL     1       1.122  12.900  20.200  0.00  0.00    +0.000 A 
ATOM      9  N   UNL     1       0.717  11.530  20.103  0.00  0.00    +0.000 N 
ATOM     10  C   UNL     1      -0.615  11.356  20.475  0.00  0.00    +0.000 A 
ATOM     11  O   UNL     1      -1.034  10.535  21.271  0.00  0.00    +0.000 OA
ENDROOT
BRANCH   1  17
ATOM     12  C   UNL     1      -3.948  12.277  19.046  0.00  0.00    +0.000 A 
ATOM     13  C   UNL     1      -4.901  11.888  18.096  0.00  0.00    +0.000 A 
ATOM     14  C   UNL     1      -4.582  11.018  17.055  0.00  0.00    +0.000 A 
ATOM     15  C   UNL     1      -3.296  10.497  16.934  0.00  0.00    +0.000 A 
ATOM     16  C   UNL     1      -2.326  10.879  17.869  0.00  0.00    +0.000 A 
ATOM     17  C   UNL     1      -2.633  11.775  18.913  0.00  0.00    +0.000 A 
BRANCH  12  20
ATOM     18  C   UNL     1      -5.165  13.008  21.108  0.00  0.00    +0.000 C 
ATOM     19  O   UNL     1      -5.715  11.944  21.382  0.00  0.00    +0.000 OA
ATOM     20  N   UNL     1      -4.280  13.216  20.064  0.00  0.00    +0.000 N 
ATOM     21  H   UNL     1      -3.682  14.043  20.112  0.00  0.00    +0.000 HD
BRANCH  18  23
ATOM     22  C   UNL     1      -4.284  15.240  21.825  0.00  0.00    +0.000 C 
ATOM     23  C   UNL     1      -5.445  14.256  21.925  0.00  0.00    +0.000 C 
ENDBRANCH  18  23
ENDBRANCH  12  20
BRANCH  15  24
ATOM     24  C   UNL     1      -2.963   9.587  15.779  0.00  0.00    +0.000 C 
ATOM     25  C   UNL     1      -3.299  10.216  14.434  0.00  0.00    +0.000 C 
ENDBRANCH  15  24
ENDBRANCH   1  17
BRANCH   9  26
ATOM     26  C   UNL     1       1.004  10.917  18.804  0.00  0.00    +0.000 C 
BRANCH  26  27
ATOM     27  C   UNL     1       1.522   9.512  18.924  0.00  0.00    +0.000 A 
ATOM     28  C   UNL     1       2.155   8.888  17.840  0.00  0.00    +0.000 A 
ATOM     29  C   UNL     1       2.640   7.587  17.963  0.00  0.00    +0.000 A 
ATOM     30  C   UNL     1       2.501   6.906  19.173  0.00  0.00    +0.000 A 
ATOM     31  C   UNL     1       1.898   7.529  20.261  0.00  0.00    +0.000 A 
ATOM     32  C   UNL     1       1.413   8.828  20.142  0.00  0.00    +0.000 A 
ENDBRANCH  26  27
ENDBRANCH   9  26
TORSDOF 6
ENDMDL
MODEL 4
REMARK VINA RESULT:      -6.9      5.919     11.212
REMARK  Name = 
REMARK  8 active torsions:
REMARK  status: ('A' for Active; 'I' for Inactive)
REMARK    1  A    between atoms: C_1  and  C_2
REMARK    2  A    between atoms: C_2  and  C_3
REMARK    3  A    between atoms: N_5  and  C_6
REMARK    4  A    between atoms: C_9  and  C_10
REMARK    5  A    between atoms: C_10  and  C_11
REMARK    6  A    between atoms: C_13  and  C_14
REMARK    7  A    between atoms: N_22  and  C_23
REMARK    8  A    between atoms: C_23  and  C_24
REMARK                            x       y       z     vdW  Elec       q    Type
REMARK                         _______ _______ _______ _____ _____    ______ ____
ROOT
ATOM      1  C   UNL     1       4.639   4.216  17.571  0.00  0.00    +0.000 A 
ATOM      2  N   UNL     1       3.922   3.130  17.710  0.00  0.00    +0.000 NA
ATOM      3  C   UNL     1       2.974   3.146  18.763  0.00  0.00    +0.000 A 
ATOM      4  C   UNL     1       2.386   1.957  19.191  0.00  0.00    +0.000 A 
ATOM      5  C   UNL     1       1.315   1.988  20.088  0.00  0.00    +0.000 A 
ATOM      6  C   UNL     1       0.811   3.211  20.546  0.00  0.00    +0.000 A 
ATOM      7  C   UNL     1       1.397   4.410  20.140  0.00  0.00    +0.000 A 
ATOM      8  C   UNL     1       2.485   4.370  19.271  0.00  0.00    +0.000 A 
ATOM      9  N   UNL     1       3.189   5.574  18.947  0.00  0.00    +0.000 N 
ATOM     10  C   UNL     1       4.523   5.325  18.627  0.00  0.00    +0.000 A 
ATOM     11  O   UNL     1       5.490   5.898  19.098  0.00  0.00    +0.000 OA
ENDROOT
BRANCH   1  17
ATOM     12  C   UNL     1       6.643   5.110  16.337  0.00  0.00    +0.000 A 
ATOM     13  C   UNL     1       7.363   5.180  15.138  0.00  0.00    +0.000 A 
ATOM     14  C   UNL     1       6.822   4.730  13.934  0.00  0.00    +0.000 A 
ATOM     15  C   UNL     1       5.536   4.200  13.888  0.00  0.00    +0.000 A 
ATOM     16  C   UNL     1       4.802   4.113  15.077  0.00  0.00    +0.000 A 
ATOM     17  C   UNL     1       5.346   4.546  16.303  0.00  0.00    +0.000 A 
BRANCH  12  20
ATOM     18  C   UNL     1       7.745   6.774  17.847  0.00  0.00    +0.000 C 
ATOM     19  O   UNL     1       7.662   7.762  17.121  0.00  0.00    +0.000 OA
ATOM     20  N   UNL     1       7.237   5.518  17.566  0.00  0.00    +0.000 N 
ATOM     21  H   UNL     1       7.118   4.872  18.348  0.00  0.00    +0.000 HD
BRANCH  18  23
ATOM     22  C   UNL     1       8.343   5.538  19.941  0.00  0.00    +0.000 C 
ATOM     23  C   UNL     1       8.475   6.850  19.176  0.00  0.00    +0.000 C 
ENDBRANCH  18  23
ENDBRANCH  12  20
BRANCH  15  24
ATOM     24  C   UNL     1       4.986   3.684  12.582  0.00  0.00    +0.000 C 
ATOM     25  C   UNL     1       5.951   2.736  11.884  0.00  0.00    +0.000 C 
ENDBRANCH  15  24
ENDBRANCH   1  17
BRANCH   9  26
ATOM     26  C   UNL     1       2.528   6.391  17.926  0.00  0.00    +0.000 C 
BRANCH  26  27
ATOM     27  C   UNL     1       2.008   7.692  18.467  0.00  0.00    +0.000 A 
ATOM     28  C   UNL     1       1.719   8.761  17.607  0.00  0.00    +0.000 A 
ATOM     29  C   UNL     1       1.228   9.962  18.117  0.00  0.00    +0.000 A 
ATOM     30  C   UNL     1       1.016  10.098  19.490  0.00  0.00    +0.000 A 
ATOM     31  C   UNL     1       1.275   9.032  20.346  0.00  0.00    +0.000 A 
ATOM     32  C   UNL     1       1.765   7.831  19.841  0.00  0.00    +0.000 A 
ENDBRANCH  26  27
ENDBRANCH   9  26
TORSDOF 6
ENDMDL
MODEL 5
REMARK VINA RESULT:      -6.8      0.819      1.013
REMARK  Name = 
REMARK  8 active torsions:
REMARK  status: ('A' for Active; 'I' for Inactive)
REMARK    1  A    between atoms: C_1  and  C_2
REMARK    2  A    between atoms: C_2  and  C_3
REMARK    3  A    between atoms: N_5  and  C_6
REMARK    4  A    between atoms: C_9  and  C_10
REMARK    5  A    between atoms: C_10  and  C_11
REMARK    6  A    between atoms: C_13  and  C_14
REMARK    7  A    between atoms: N_22  and  C_23
REMARK    8  A    between atoms: C_23  and  C_24
REMARK                            x       y       z     vdW  Elec       q    Type
REMARK                         _______ _______ _______ _____ _____    ______ ____
ROOT
ATOM      1  C   UNL     1      -1.091  13.483  20.282  0.00  0.00    +0.000 A 
ATOM      2  N   UNL     1      -0.647  14.475  19.552  0.00  0.00    +0.000 NA
ATOM      3  C   UNL     1       0.732  14.436  19.231  0.00  0.00    +0.000 A 
ATOM      4  C   UNL     1       1.365  15.574  18.732  0.00  0.00    +0.000 A 
ATOM      5  C   UNL     1       2.668  15.489  18.233  0.00  0.00    +0.000 A 
ATOM      6  C   UNL     1       3.337  14.261  18.210  0.00  0.00    +0.000 A 
ATOM      7  C   UNL     1       2.726  13.115  18.718  0.00  0.00    +0.000 A 
ATOM      8  C   UNL     1       1.439  13.213  19.244  0.00  0.00    +0.000 A 
ATOM      9  N   UNL     1       0.842  12.086  19.894  0.00  0.00    +0.000 N 
ATOM     10  C   UNL     1      -0.086  12.475  20.859  0.00  0.00    +0.000 A 
ATOM     11  O   UNL     1      -0.128  12.082  22.011  0.00  0.00    +0.000 OA
ENDROOT
BRANCH   1  17
ATOM     12  C   UNL     1      -3.399  13.823  21.227  0.00  0.00    +0.000 A 
ATOM     13  C   UNL     1      -4.779  13.628  21.086  0.00  0.00    +0.000 A 
ATOM     14  C   UNL     1      -5.300  12.762  20.126  0.00  0.00    +0.000 A 
ATOM     15  C   UNL     1      -4.455  12.053  19.276  0.00  0.00    +0.000 A 
ATOM     16  C   UNL     1      -3.072  12.240  19.394  0.00  0.00    +0.000 A 
ATOM     17  C   UNL     1      -2.536  13.128  20.348  0.00  0.00    +0.000 A 
BRANCH  12  20
ATOM     18  C   UNL     1      -2.535  14.483  23.481  0.00  0.00    +0.000 C 
ATOM     19  O   UNL     1      -2.495  13.368  23.995  0.00  0.00    +0.000 OA
ATOM     20  N   UNL     1      -2.892  14.759  22.173  0.00  0.00    +0.000 N 
ATOM     21  H   UNL     1      -2.615  15.665  21.790  0.00  0.00    +0.000 HD
BRANCH  18  23
ATOM     22  C   UNL     1      -2.159  15.398  25.783  0.00  0.00    +0.000 C 
ATOM     23  C   UNL     1      -2.200  15.721  24.293  0.00  0.00    +0.000 C 
ENDBRANCH  18  23
ENDBRANCH  12  20
BRANCH  15  24
ATOM     24  C   UNL     1      -5.042  11.151  18.220  0.00  0.00    +0.000 C 
ATOM     25  C   UNL     1      -6.504  10.824  18.488  0.00  0.00    +0.000 C 
ENDBRANCH  15  24
ENDBRANCH   1  17
BRANCH   9  26
ATOM     26  C   UNL     1       0.283  11.095  18.970  0.00  0.00    +0.000 C 
BRANCH  26  27
ATOM     27  C   UNL     1       1.035   9.795  18.984  0.00  0.00    +0.000 A 
ATOM     28  C   UNL     1       1.727   9.357  17.847  0.00  0.00    +0.000 A 
ATOM     29  C   UNL     1       2.430   8.153  17.871  0.00  0.00    +0.000 A 
ATOM     30  C   UNL     1       2.449   7.385  19.037  0.00  0.00    +0.000 A 
ATOM     31  C   UNL     1       1.786   7.827  20.177  0.00  0.00    +0.000 A 
ATOM     32  C   UNL     1       1.084   9.029  20.157  0.00  0.00    +0.000 A 
ENDBRANCH  26  27
ENDBRANCH   9  26
TORSDOF 6
ENDMDL
MODEL 6
REMARK VINA RESULT:      -6.8      1.846      3.821
REMARK  Name = 
REMARK  8 active torsions:
REMARK  status: ('A' for Active; 'I' for Inactive)
REMARK    1  A    between atoms: C_1  and  C_2
REMARK    2  A    between atoms: C_2  and  C_3
REMARK    3  A    between atoms: N_5  and  C_6
REMARK    4  A    between atoms: C_9  and  C_10
REMARK    5  A    between atoms: C_10  and  C_11
REMARK    6  A    between atoms: C_13  and  C_14
REMARK    7  A    between atoms: N_22  and  C_23
REMARK    8  A    between atoms: C_23  and  C_24
REMARK                            x       y       z     vdW  Elec       q    Type
REMARK                         _______ _______ _______ _____ _____    ______ ____
ROOT
ATOM      1  C   UNL     1      -2.459  13.199  20.780  0.00  0.00    +0.000 A 
ATOM      2  N   UNL     1      -1.884  14.178  20.130  0.00  0.00    +0.000 NA
ATOM      3  C   UNL     1      -0.470  14.122  20.053  0.00  0.00    +0.000 A 
ATOM      4  C   UNL     1       0.253  15.248  19.663  0.00  0.00    +0.000 A 
ATOM      5  C   UNL     1       1.621  15.145  19.398  0.00  0.00    +0.000 A 
ATOM      6  C   UNL     1       2.270  13.909  19.500  0.00  0.00    +0.000 A 
ATOM      7  C   UNL     1       1.566  12.776  19.905  0.00  0.00    +0.000 A 
ATOM      8  C   UNL     1       0.209  12.892  20.198  0.00  0.00    +0.000 A 
ATOM      9  N   UNL     1      -0.505  11.778  20.744  0.00  0.00    +0.000 N 
ATOM     10  C   UNL     1      -1.581  12.186  21.531  0.00  0.00    +0.000 A 
ATOM     11  O   UNL     1      -1.827  11.804  22.661  0.00  0.00    +0.000 OA
ENDROOT
BRANCH   1  17
ATOM     12  C   UNL     1      -4.326  12.181  19.433  0.00  0.00    +0.000 A 
ATOM     13  C   UNL     1      -5.631  11.671  19.410  0.00  0.00    +0.000 A 
ATOM     14  C   UNL     1      -6.499  11.836  20.488  0.00  0.00    +0.000 A 
ATOM     15  C   UNL     1      -6.093  12.527  21.628  0.00  0.00    +0.000 A 
ATOM     16  C   UNL     1      -4.790  13.037  21.675  0.00  0.00    +0.000 A 
ATOM     17  C   UNL     1      -3.898  12.859  20.598  0.00  0.00    +0.000 A 
BRANCH  12  20
ATOM     18  C   UNL     1      -3.796  11.554  17.069  0.00  0.00    +0.000 C 
ATOM     19  O   UNL     1      -4.945  11.452  16.645  0.00  0.00    +0.000 OA
ATOM     20  N   UNL     1      -3.436  11.948  18.346  0.00  0.00    +0.000 N 
ATOM     21  H   UNL     1      -2.475  12.265  18.488  0.00  0.00    +0.000 HD
BRANCH  18  23
ATOM     22  C   UNL     1      -2.452   9.701  16.052  0.00  0.00    +0.000 C 
ATOM     23  C   UNL     1      -2.611  11.212  16.183  0.00  0.00    +0.000 C 
ENDBRANCH  18  23
ENDBRANCH  12  20
BRANCH  15  24
ATOM     24  C   UNL     1      -7.035  12.660  22.797  0.00  0.00    +0.000 C 
ATOM     25  C   UNL     1      -6.297  12.809  24.119  0.00  0.00    +0.000 C 
ENDBRANCH  15  24
ENDBRANCH   1  17
BRANCH   9  26
ATOM     26  C   UNL     1      -0.907  10.783  19.745  0.00  0.00    +0.000 C 
BRANCH  26  27
ATOM     27  C   UNL     1       0.181   9.796  19.434  0.00  0.00    +0.000 A 
ATOM     28  C   UNL     1       0.697   9.685  18.135  0.00  0.00    +0.000 A 
ATOM     29  C   UNL     1       1.713   8.773  17.857  0.00  0.00    +0.000 A 
ATOM     30  C   UNL     1       2.224   7.971  18.879  0.00  0.00    +0.000 A 
ATOM     31  C   UNL     1       1.736   8.095  20.176  0.00  0.00    +0.000 A 
ATOM     32  C   UNL     1       0.722   9.005  20.457  0.00  0.00    +0.000 A 
ENDBRANCH  26  27
ENDBRANCH   9  26
TORSDOF 6
ENDMDL
MODEL 7
REMARK VINA RESULT:      -6.7      1.560      3.796
REMARK  Name = 
REMARK  8 active torsions:
REMARK  status: ('A' for Active; 'I' for Inactive)
REMARK    1  A    between atoms: C_1  and  C_2
REMARK    2  A    between atoms: C_2  and  C_3
REMARK    3  A    between atoms: N_5  and  C_6
REMARK    4  A    between atoms: C_9  and  C_10
REMARK    5  A    between atoms: C_10  and  C_11
REMARK    6  A    between atoms: C_13  and  C_14
REMARK    7  A    between atoms: N_22  and  C_23
REMARK    8  A    between atoms: C_23  and  C_24
REMARK                            x       y       z     vdW  Elec       q    Type
REMARK                         _______ _______ _______ _____ _____    ______ ____
ROOT
ATOM      1  C   UNL     1      -1.305  13.698  20.657  0.00  0.00    +0.000 A 
ATOM      2  N   UNL     1      -0.828  14.571  19.806  0.00  0.00    +0.000 NA
ATOM      3  C   UNL     1       0.529  14.397  19.438  0.00  0.00    +0.000 A 
ATOM      4  C   UNL     1       1.215  15.426  18.794  0.00  0.00    +0.000 A 
ATOM      5  C   UNL     1       2.484  15.192  18.257  0.00  0.00    +0.000 A 
ATOM      6  C   UNL     1       3.065  13.923  18.342  0.00  0.00    +0.000 A 
ATOM      7  C   UNL     1       2.400  12.886  18.995  0.00  0.00    +0.000 A 
ATOM      8  C   UNL     1       1.149  13.134  19.557  0.00  0.00    +0.000 A 
ATOM      9  N   UNL     1       0.507  12.129  20.349  0.00  0.00    +0.000 N 
ATOM     10  C   UNL     1      -0.346  12.686  21.301  0.00  0.00    +0.000 A 
ATOM     11  O   UNL     1      -0.361  12.421  22.490  0.00  0.00    +0.000 OA
ENDROOT
BRANCH   1  17
ATOM     12  C   UNL     1      -3.472  12.697  19.859  0.00  0.00    +0.000 A 
ATOM     13  C   UNL     1      -4.778  12.296  20.168  0.00  0.00    +0.000 A 
ATOM     14  C   UNL     1      -5.384  12.647  21.372  0.00  0.00    +0.000 A 
ATOM     15  C   UNL     1      -4.705  13.422  22.309  0.00  0.00    +0.000 A 
ATOM     16  C   UNL     1      -3.396  13.827  22.025  0.00  0.00    +0.000 A 
ATOM     17  C   UNL     1      -2.766  13.460  20.818  0.00  0.00    +0.000 A 
BRANCH  12  20
ATOM     18  C   UNL     1      -3.454  11.565  17.626  0.00  0.00    +0.000 C 
ATOM     19  O   UNL     1      -4.649  11.287  17.553  0.00  0.00    +0.000 OA
ATOM     20  N   UNL     1      -2.849  12.274  18.650  0.00  0.00    +0.000 N 
ATOM     21  H   UNL     1      -1.931  12.681  18.462  0.00  0.00    +0.000 HD
BRANCH  18  23
ATOM     22  C   UNL     1      -2.229   9.606  16.659  0.00  0.00    +0.000 C 
ATOM     23  C   UNL     1      -2.486  11.105  16.552  0.00  0.00    +0.000 C 
ENDBRANCH  18  23
ENDBRANCH  12  20
BRANCH  15  24
ATOM     24  C   UNL     1      -5.368  13.758  23.622  0.00  0.00    +0.000 C 
ATOM     25  C   UNL     1      -5.052  15.175  24.081  0.00  0.00    +0.000 C 
ENDBRANCH  15  24
ENDBRANCH   1  17
BRANCH   9  26
ATOM     26  C   UNL     1      -0.162  11.090  19.561  0.00  0.00    +0.000 C 
BRANCH  26  27
ATOM     27  C   UNL     1       0.701   9.880  19.340  0.00  0.00    +0.000 A 
ATOM     28  C   UNL     1       1.006   9.016  20.402  0.00  0.00    +0.000 A 
ATOM     29  C   UNL     1       1.801   7.891  20.186  0.00  0.00    +0.000 A 
ATOM     30  C   UNL     1       2.288   7.620  18.907  0.00  0.00    +0.000 A 
ATOM     31  C   UNL     1       1.966   8.459  17.844  0.00  0.00    +0.000 A 
ATOM     32  C   UNL     1       1.173   9.582  18.055  0.00  0.00    +0.000 A 
ENDBRANCH  26  27
ENDBRANCH   9  26
TORSDOF 6
ENDMDL
MODEL 8
REMARK VINA RESULT:      -6.7      1.144      1.321
REMARK  Name = 
REMARK  8 active torsions:
REMARK  status: ('A' for Active; 'I' for Inactive)
REMARK    1  A    between atoms: C_1  and  C_2
REMARK    2  A    between atoms: C_2  and  C_3
REMARK    3  A    between atoms: N_5  and  C_6
REMARK    4  A    between atoms: C_9  and  C_10
REMARK    5  A    between atoms: C_10  and  C_11
REMARK    6  A    between atoms: C_13  and  C_14
REMARK    7  A    between atoms: N_22  and  C_23
REMARK    8  A    between atoms: C_23  and  C_24
REMARK                            x       y       z     vdW  Elec       q    Type
REMARK                         _______ _______ _______ _____ _____    ______ ____
ROOT
ATOM      1  C   UNL     1      -1.764  13.184  21.154  0.00  0.00    +0.000 A 
ATOM      2  N   UNL     1      -1.302  14.262  20.573  0.00  0.00    +0.000 NA
ATOM      3  C   UNL     1       0.093  14.280  20.324  0.00  0.00    +0.000 A 
ATOM      4  C   UNL     1       0.729  15.477  20.000  0.00  0.00    +0.000 A 
ATOM      5  C   UNL     1       2.057  15.470  19.564  0.00  0.00    +0.000 A 
ATOM      6  C   UNL     1       2.750  14.262  19.429  0.00  0.00    +0.000 A 
ATOM      7  C   UNL     1       2.135  13.056  19.762  0.00  0.00    +0.000 A 
ATOM      8  C   UNL     1       0.821  13.074  20.227  0.00  0.00    +0.000 A 
ATOM      9  N   UNL     1       0.212  11.868  20.704  0.00  0.00    +0.000 N 
ATOM     10  C   UNL     1      -0.771  12.126  21.658  0.00  0.00    +0.000 A 
ATOM     11  O   UNL     1      -0.864  11.595  22.750  0.00  0.00    +0.000 OA
ENDROOT
BRANCH   1  17
ATOM     12  C   UNL     1      -4.035  13.012  22.224  0.00  0.00    +0.000 A 
ATOM     13  C   UNL     1      -5.418  12.870  22.055  0.00  0.00    +0.000 A 
ATOM     14  C   UNL     1      -5.971  12.517  20.826  0.00  0.00    +0.000 A 
ATOM     15  C   UNL     1      -5.156  12.285  19.721  0.00  0.00    +0.000 A 
ATOM     16  C   UNL     1      -3.772  12.429  19.866  0.00  0.00    +0.000 A 
ATOM     17  C   UNL     1      -3.203  12.806  21.100  0.00  0.00    +0.000 A 
BRANCH  12  20
ATOM     18  C   UNL     1      -3.561  14.713  23.999  0.00  0.00    +0.000 C 
ATOM     19  O   UNL     1      -4.189  15.655  23.521  0.00  0.00    +0.000 OA
ATOM     20  N   UNL     1      -3.496  13.434  23.473  0.00  0.00    +0.000 N 
ATOM     21  H   UNL     1      -3.189  12.684  24.096  0.00  0.00    +0.000 HD
BRANCH  18  23
ATOM     22  C   UNL     1      -1.286  15.211  24.921  0.00  0.00    +0.000 C 
ATOM     23  C   UNL     1      -2.738  14.893  25.262  0.00  0.00    +0.000 C 
ENDBRANCH  18  23
ENDBRANCH  12  20
BRANCH  15  24
ATOM     24  C   UNL     1      -5.779  11.942  18.392  0.00  0.00    +0.000 C 
ATOM     25  C   UNL     1      -6.801  10.819  18.506  0.00  0.00    +0.000 C 
ENDBRANCH  15  24
ENDBRANCH   1  17
BRANCH   9  26
ATOM     26  C   UNL     1      -0.280  10.990  19.639  0.00  0.00    +0.000 C 
BRANCH  26  27
ATOM     27  C   UNL     1       0.627   9.820  19.383  0.00  0.00    +0.000 A 
ATOM     28  C   UNL     1       1.156   9.591  18.105  0.00  0.00    +0.000 A 
ATOM     29  C   UNL     1       2.003   8.508  17.878  0.00  0.00    +0.000 A 
ATOM     30  C   UNL     1       2.332   7.652  18.930  0.00  0.00    +0.000 A 
ATOM     31  C   UNL     1       1.832   7.889  20.207  0.00  0.00    +0.000 A 
ATOM     32  C   UNL     1       0.986   8.969  20.437  0.00  0.00    +0.000 A 
ENDBRANCH  26  27
ENDBRANCH   9  26
TORSDOF 6
ENDMDL
MODEL 9
REMARK VINA RESULT:      -6.7      1.409      1.624
REMARK  Name = 
REMARK  8 active torsions:
REMARK  status: ('A' for Active; 'I' for Inactive)
REMARK    1  A    between atoms: C_1  and  C_2
REMARK    2  A    between atoms: C_2  and  C_3
REMARK    3  A    between atoms: N_5  and  C_6
REMARK    4  A    between atoms: C_9  and  C_10
REMARK    5  A    between atoms: C_10  and  C_11
REMARK    6  A    between atoms: C_13  and  C_14
REMARK    7  A    between atoms: N_22  and  C_23
REMARK    8  A    between atoms: C_23  and  C_24
REMARK                            x       y       z     vdW  Elec       q    Type
REMARK                         _______ _______ _______ _____ _____    ______ ____
ROOT
ATOM      1  C   UNL     1      -1.729  12.706  20.095  0.00  0.00    +0.000 A 
ATOM      2  N   UNL     1      -1.256  13.914  19.926  0.00  0.00    +0.000 NA
ATOM      3  C   UNL     1       0.115  14.090  20.238  0.00  0.00    +0.000 A 
ATOM      4  C   UNL     1       0.637  15.373  20.391  0.00  0.00    +0.000 A 
ATOM      5  C   UNL     1       2.018  15.559  20.504  0.00  0.00    +0.000 A 
ATOM      6  C   UNL     1       2.886  14.463  20.443  0.00  0.00    +0.000 A 
ATOM      7  C   UNL     1       2.380  13.171  20.306  0.00  0.00    +0.000 A 
ATOM      8  C   UNL     1       1.001  12.990  20.226  0.00  0.00    +0.000 A 
ATOM      9  N   UNL     1       0.450  11.669  20.223  0.00  0.00    +0.000 N 
ATOM     10  C   UNL     1      -0.839  11.643  20.754  0.00  0.00    +0.000 A 
ATOM     11  O   UNL     1      -1.240  10.886  21.621  0.00  0.00    +0.000 OA
ENDROOT
BRANCH   1  17
ATOM     12  C   UNL     1      -4.240  12.591  19.960  0.00  0.00    +0.000 A 
ATOM     13  C   UNL     1      -5.376  12.341  19.180  0.00  0.00    +0.000 A 
ATOM     14  C   UNL     1      -5.282  11.746  17.923  0.00  0.00    +0.000 A 
ATOM     15  C   UNL     1      -4.044  11.372  17.405  0.00  0.00    +0.000 A 
ATOM     16  C   UNL     1      -2.895  11.620  18.165  0.00  0.00    +0.000 A 
ATOM     17  C   UNL     1      -2.977  12.240  19.429  0.00  0.00    +0.000 A 
BRANCH  12  20
ATOM     18  C   UNL     1      -4.512  14.618  21.403  0.00  0.00    +0.000 C 
ATOM     19  O   UNL     1      -4.692  15.450  20.517  0.00  0.00    +0.000 OA
ATOM     20  N   UNL     1      -4.353  13.256  21.214  0.00  0.00    +0.000 N 
ATOM     21  H   UNL     1      -4.497  12.649  22.024  0.00  0.00    +0.000 HD
BRANCH  18  23
ATOM     22  C   UNL     1      -5.413  14.265  23.713  0.00  0.00    +0.000 C 
ATOM     23  C   UNL     1      -4.421  15.044  22.857  0.00  0.00    +0.000 C 
ENDBRANCH  18  23
ENDBRANCH  12  20
BRANCH  15  24
ATOM     24  C   UNL     1      -3.963  10.765  16.027  0.00  0.00    +0.000 C 
ATOM     25  C   UNL     1      -2.703   9.932  15.838  0.00  0.00    +0.000 C 
ENDBRANCH  15  24
ENDBRANCH   1  17
BRANCH   9  26
ATOM     26  C   UNL     1       0.514  11.003  18.919  0.00  0.00    +0.000 C 
BRANCH  26  27
ATOM     27  C   UNL     1       1.201   9.669  18.979  0.00  0.00    +0.000 A 
ATOM     28  C   UNL     1       1.877   9.161  17.860  0.00  0.00    +0.000 A 
ATOM     29  C   UNL     1       2.520   7.926  17.927  0.00  0.00    +0.000 A 
ATOM     30  C   UNL     1       2.497   7.195  19.116  0.00  0.00    +0.000 A 
ATOM     31  C   UNL     1       1.851   7.706  20.238  0.00  0.00    +0.000 A 
ATOM     32  C   UNL     1       1.209   8.938  20.175  0.00  0.00    +0.000 A 
ENDBRANCH  26  27
ENDBRANCH   9  26
TORSDOF 6
ENDMDL
