MODEL 1
REMARK VINA RESULT:      -7.8      0.000      0.000
REMARK  Name = 
REMARK  6 active torsions:
REMARK  status: ('A' for Active; 'I' for Inactive)
REMARK    1  A    between atoms: C_1  and  N_2
REMARK    2  A    between atoms: C_5  and  C_6
REMARK    3  A    between atoms: C_12  and  C_13
REMARK    4  A    between atoms: C_13  and  C_15
REMARK    5  A    between atoms: C_18  and  O_19
REMARK    6  A    between atoms: O_19  and  C_20
REMARK                            x       y       z     vdW  Elec       q    Type
REMARK                         _______ _______ _______ _____ _____    ______ ____
ROOT
ATOM      1  C   UNL     1       1.001   9.891  18.688  0.00  0.00    +0.000 C 
ATOM      2  N   UNL     1       1.874   9.298  17.698  0.00  0.00    +0.000 N 
ATOM      3  C   UNL     1       2.435   8.109  18.013  0.00  0.00    +0.000 A 
ATOM      4  N   UNL     1       1.887   7.202  18.776  0.00  0.00    +0.000 NA
ATOM      5  C   UNL     1       2.689   6.068  18.877  0.00  0.00    +0.000 A 
ATOM      6  C   UNL     1       3.892   6.154  18.188  0.00  0.00    +0.000 A 
ATOM      7  S   UNL     1       3.992   7.709  17.438  0.00  0.00    +0.000 S 
ATOM      8  H   UNL     1       2.485   9.959  17.232  0.00  0.00    +0.000 HD
ENDROOT
BRANCH   5   9
ATOM      9  C   UNL     1       2.154   4.923  19.616  0.00  0.00    +0.000 A 
ATOM     10  C   UNL     1       2.368   4.739  20.987  0.00  0.00    +0.000 A 
ATOM     11  C   UNL     1       1.970   3.557  21.619  0.00  0.00    +0.000 A 
ATOM     12  C   UNL     1       1.360   2.543  20.888  0.00  0.00    +0.000 A 
ATOM     13  C   UNL     1       1.115   2.716  19.528  0.00  0.00    +0.000 A 
ATOM     14  C   UNL     1       1.507   3.900  18.899  0.00  0.00    +0.000 A 
ENDBRANCH   5   9
BRANCH   6  15
ATOM     15  C   UNL     1       5.018   5.232  18.094  0.00  0.00    +0.000 C 
ATOM     16  O   UNL     1       5.565   4.737  19.075  0.00  0.00    +0.000 OA
BRANCH  15  17
ATOM     17  C   UNL     1       5.575   4.861  16.755  0.00  0.00    +0.000 A 
ATOM     18  C   UNL     1       4.847   4.097  15.834  0.00  0.00    +0.000 A 
ATOM     19  C   UNL     1       5.341   3.890  14.546  0.00  0.00    +0.000 A 
ATOM     20  C   UNL     1       6.581   4.410  14.170  0.00  0.00    +0.000 A 
ATOM     21  C   UNL     1       7.361   5.078  15.118  0.00  0.00    +0.000 A 
ATOM     22  C   UNL     1       6.860   5.301  16.407  0.00  0.00    +0.000 A 
BRANCH  20  23
ATOM     23  O   UNL     1       6.941   4.171  12.876  0.00  0.00    +0.000 OA
ATOM     24  C   UNL     1       6.117   3.249  12.169  0.00  0.00    +0.000 C 
ENDBRANCH  20  23
ENDBRANCH  15  17
ENDBRANCH   6  15
TORSDOF 4
ENDMDL
MODEL 2
REMARK VINA RESULT:      -7.3      0.596      1.177
REMARK  Name = 
REMARK  6 active torsions:
REMARK  status: ('A' for Active; 'I' for Inactive)
REMARK    1  A    between atoms: C_1  and  N_2
REMARK    2  A    between atoms: C_5  and  C_6
REMARK    3  A    between atoms: C_12  and  C_13
REMARK    4  A    between atoms: C_13  and  C_15
REMARK    5  A    between atoms: C_18  and  O_19
REMARK    6  A    between atoms: O_19  and  C_20
REMARK                            x       y       z     vdW  Elec       q    Type
REMARK                         _______ _______ _______ _____ _____    ______ ____
ROOT
ATOM      1  C   UNL     1       1.215   9.735  18.867  0.00  0.00    +0.000 C 
ATOM      2  N   UNL     1       2.046   9.161  17.830  0.00  0.00    +0.000 N 
ATOM      3  C   UNL     1       2.596   7.954  18.086  0.00  0.00    +0.000 A 
ATOM      4  N   UNL     1       2.058   7.030  18.836  0.00  0.00    +0.000 NA
ATOM      5  C   UNL     1       2.843   5.881  18.873  0.00  0.00    +0.000 A 
ATOM      6  C   UNL     1       4.025   5.970  18.148  0.00  0.00    +0.000 A 
ATOM      7  S   UNL     1       4.126   7.549  17.448  0.00  0.00    +0.000 S 
ATOM      8  H   UNL     1       2.652   9.828  17.367  0.00  0.00    +0.000 HD
ENDROOT
BRANCH   5   9
ATOM      9  C   UNL     1       2.312   4.720  19.591  0.00  0.00    +0.000 A 
ATOM     10  C   UNL     1       1.364   3.853  19.035  0.00  0.00    +0.000 A 
ATOM     11  C   UNL     1       0.774   2.850  19.810  0.00  0.00    +0.000 A 
ATOM     12  C   UNL     1       1.119   2.706  21.149  0.00  0.00    +0.000 A 
ATOM     13  C   UNL     1       2.078   3.541  21.715  0.00  0.00    +0.000 A 
ATOM     14  C   UNL     1       2.672   4.539  20.939  0.00  0.00    +0.000 A 
ENDBRANCH   5   9
BRANCH   6  15
ATOM     15  C   UNL     1       5.132   5.035  17.987  0.00  0.00    +0.000 C 
ATOM     16  O   UNL     1       5.669   4.461  18.930  0.00  0.00    +0.000 OA
BRANCH  15  17
ATOM     17  C   UNL     1       5.679   4.747  16.623  0.00  0.00    +0.000 A 
ATOM     18  C   UNL     1       4.893   4.178  15.614  0.00  0.00    +0.000 A 
ATOM     19  C   UNL     1       5.395   4.054  14.318  0.00  0.00    +0.000 A 
ATOM     20  C   UNL     1       6.697   4.462  14.020  0.00  0.00    +0.000 A 
ATOM     21  C   UNL     1       7.522   4.927  15.047  0.00  0.00    +0.000 A 
ATOM     22  C   UNL     1       7.014   5.068  16.345  0.00  0.00    +0.000 A 
BRANCH  20  23
ATOM     23  O   UNL     1       7.062   4.322  12.713  0.00  0.00    +0.000 OA
ATOM     24  C   UNL     1       7.813   5.402  12.166  0.00  0.00    +0.000 C 
ENDBRANCH  20  23
ENDBRANCH  15  17
ENDBRANCH   6  15
TORSDOF 4
ENDMDL
MODEL 3
REMARK VINA RESULT:      -7.3      0.225      1.029
REMARK  Name = 
REMARK  6 active torsions:
REMARK  status: ('A' for Active; 'I' for Inactive)
REMARK    1  A    between atoms: C_1  and  N_2
REMARK    2  A    between atoms: C_5  and  C_6
REMARK    3  A    between atoms: C_12  and  C_13
REMARK    4  A    between atoms: C_13  and  C_15
REMARK    5  A    between atoms: C_18  and  O_19
REMARK    6  A    between atoms: O_19  and  C_20
REMARK                            x       y       z     vdW  Elec       q    Type
REMARK                         _______ _______ _______ _____ _____    ______ ____
ROOT
ATOM      1  C   UNL     1       0.807   9.922  18.992  0.00  0.00    +0.000 C 
ATOM      2  N   UNL     1       1.664   9.387  17.955  0.00  0.00    +0.000 N 
ATOM      3  C   UNL     1       2.264   8.203  18.209  0.00  0.00    +0.000 A 
ATOM      4  N   UNL     1       1.764   7.255  18.954  0.00  0.00    +0.000 NA
ATOM      5  C   UNL     1       2.596   6.140  18.989  0.00  0.00    +0.000 A 
ATOM      6  C   UNL     1       3.775   6.282  18.267  0.00  0.00    +0.000 A 
ATOM      7  S   UNL     1       3.812   7.865  17.573  0.00  0.00    +0.000 S 
ATOM      8  H   UNL     1       2.242  10.081  17.495  0.00  0.00    +0.000 HD
ENDROOT
BRANCH   5   9
ATOM      9  C   UNL     1       2.114   4.955  19.702  0.00  0.00    +0.000 A 
ATOM     10  C   UNL     1       2.387   4.721  21.054  0.00  0.00    +0.000 A 
ATOM     11  C   UNL     1       2.038   3.507  21.653  0.00  0.00    +0.000 A 
ATOM     12  C   UNL     1       1.419   2.511  20.906  0.00  0.00    +0.000 A 
ATOM     13  C   UNL     1       1.116   2.732  19.565  0.00  0.00    +0.000 A 
ATOM     14  C   UNL     1       1.459   3.948  18.970  0.00  0.00    +0.000 A 
ENDBRANCH   5   9
BRANCH   6  15
ATOM     15  C   UNL     1       4.921   5.394  18.106  0.00  0.00    +0.000 C 
ATOM     16  O   UNL     1       5.511   4.879  19.051  0.00  0.00    +0.000 OA
BRANCH  15  17
ATOM     17  C   UNL     1       5.444   5.086  16.737  0.00  0.00    +0.000 A 
ATOM     18  C   UNL     1       6.743   5.430  16.344  0.00  0.00    +0.000 A 
ATOM     19  C   UNL     1       7.242   5.004  15.114  0.00  0.00    +0.000 A 
ATOM     20  C   UNL     1       6.442   4.259  14.244  0.00  0.00    +0.000 A 
ATOM     21  C   UNL     1       5.111   4.006  14.584  0.00  0.00    +0.000 A 
ATOM     22  C   UNL     1       4.613   4.420  15.826  0.00  0.00    +0.000 A 
BRANCH  20  23
ATOM     23  O   UNL     1       7.051   3.871  13.087  0.00  0.00    +0.000 OA
ATOM     24  C   UNL     1       6.200   3.266  12.117  0.00  0.00    +0.000 C 
ENDBRANCH  20  23
ENDBRANCH  15  17
ENDBRANCH   6  15
TORSDOF 4
ENDMDL
MODEL 4
REMARK VINA RESULT:      -7.2      2.834      5.796
REMARK  Name = 
REMARK  6 active torsions:
REMARK  status: ('A' for Active; 'I' for Inactive)
REMARK    1  A    between atoms: C_1  and  N_2
REMARK    2  A    between atoms: C_5  and  C_6
REMARK    3  A    between atoms: C_12  and  C_13
REMARK    4  A    between atoms: C_13  and  C_15
REMARK    5  A    between atoms: C_18  and  O_19
REMARK    6  A    between atoms: O_19  and  C_20
REMARK                            x       y       z     vdW  Elec       q    Type
REMARK                         _______ _______ _______ _____ _____    ______ ____
ROOT
ATOM      1  C   UNL     1       5.625   3.238  12.619  0.00  0.00    +0.000 C 
ATOM      2  N   UNL     1       6.473   3.752  13.674  0.00  0.00    +0.000 N 
ATOM      3  C   UNL     1       5.872   4.065  14.843  0.00  0.00    +0.000 A 
ATOM      4  N   UNL     1       4.815   3.467  15.325  0.00  0.00    +0.000 NA
ATOM      5  C   UNL     1       4.459   3.983  16.567  0.00  0.00    +0.000 A 
ATOM      6  C   UNL     1       5.263   5.028  17.006  0.00  0.00    +0.000 A 
ATOM      7  S   UNL     1       6.457   5.353  15.798  0.00  0.00    +0.000 S 
ATOM      8  H   UNL     1       7.180   4.406  13.357  0.00  0.00    +0.000 HD
ENDROOT
BRANCH   5   9
ATOM      9  C   UNL     1       3.354   3.337  17.278  0.00  0.00    +0.000 A 
ATOM     10  C   UNL     1       2.080   3.908  17.378  0.00  0.00    +0.000 A 
ATOM     11  C   UNL     1       1.101   3.331  18.193  0.00  0.00    +0.000 A 
ATOM     12  C   UNL     1       1.387   2.182  18.923  0.00  0.00    +0.000 A 
ATOM     13  C   UNL     1       2.639   1.584  18.819  0.00  0.00    +0.000 A 
ATOM     14  C   UNL     1       3.614   2.158  17.999  0.00  0.00    +0.000 A 
ENDBRANCH   5   9
BRANCH   6  15
ATOM     15  C   UNL     1       5.189   5.869  18.195  0.00  0.00    +0.000 C 
ATOM     16  O   UNL     1       6.096   5.951  19.018  0.00  0.00    +0.000 OA
BRANCH  15  17
ATOM     17  C   UNL     1       3.956   6.673  18.471  0.00  0.00    +0.000 A 
ATOM     18  C   UNL     1       3.177   6.467  19.615  0.00  0.00    +0.000 A 
ATOM     19  C   UNL     1       2.118   7.327  19.908  0.00  0.00    +0.000 A 
ATOM     20  C   UNL     1       1.799   8.379  19.047  0.00  0.00    +0.000 A 
ATOM     21  C   UNL     1       2.504   8.522  17.849  0.00  0.00    +0.000 A 
ATOM     22  C   UNL     1       3.578   7.670  17.561  0.00  0.00    +0.000 A 
BRANCH  20  23
ATOM     23  O   UNL     1       0.767   9.171  19.457  0.00  0.00    +0.000 OA
ATOM     24  C   UNL     1       0.977  10.574  19.327  0.00  0.00    +0.000 C 
ENDBRANCH  20  23
ENDBRANCH  15  17
ENDBRANCH   6  15
TORSDOF 4
ENDMDL
MODEL 5
REMARK VINA RESULT:      -7.2      2.971      5.066
REMARK  Name = 
REMARK  6 active torsions:
REMARK  status: ('A' for Active; 'I' for Inactive)
REMARK    1  A    between atoms: C_1  and  N_2
REMARK    2  A    between atoms: C_5  and  C_6
REMARK    3  A    between atoms: C_12  and  C_13
REMARK    4  A    between atoms: C_13  and  C_15
REMARK    5  A    between atoms: C_18  and  O_19
REMARK    6  A    between atoms: O_19  and  C_20
REMARK                            x       y       z     vdW  Elec       q    Type
REMARK                         _______ _______ _______ _____ _____    ______ ____
ROOT
ATOM      1  C   UNL     1       1.064   2.327  22.316  0.00  0.00    +0.000 C 
ATOM      2  N   UNL     1       2.435   2.333  21.851  0.00  0.00    +0.000 N 
ATOM      3  C   UNL     1       2.741   3.204  20.864  0.00  0.00    +0.000 A 
ATOM      4  N   UNL     1       2.169   4.365  20.686  0.00  0.00    +0.000 NA
ATOM      5  C   UNL     1       2.731   5.052  19.614  0.00  0.00    +0.000 A 
ATOM      6  C   UNL     1       3.737   4.358  18.953  0.00  0.00    +0.000 A 
ATOM      7  S   UNL     1       3.929   2.812  19.703  0.00  0.00    +0.000 S 
ATOM      8  H   UNL     1       2.848   1.411  21.764  0.00  0.00    +0.000 HD
ENDROOT
BRANCH   5   9
ATOM      9  C   UNL     1       2.261   6.415  19.361  0.00  0.00    +0.000 A 
ATOM     10  C   UNL     1       2.354   7.029  18.107  0.00  0.00    +0.000 A 
ATOM     11  C   UNL     1       2.034   8.380  17.947  0.00  0.00    +0.000 A 
ATOM     12  C   UNL     1       1.624   9.136  19.040  0.00  0.00    +0.000 A 
ATOM     13  C   UNL     1       1.500   8.539  20.292  0.00  0.00    +0.000 A 
ATOM     14  C   UNL     1       1.814   7.187  20.449  0.00  0.00    +0.000 A 
ENDBRANCH   5   9
BRANCH   6  15
ATOM     15  C   UNL     1       4.517   4.688  17.766  0.00  0.00    +0.000 C 
ATOM     16  O   UNL     1       4.249   4.265  16.645  0.00  0.00    +0.000 OA
BRANCH  15  17
ATOM     17  C   UNL     1       5.722   5.570  17.881  0.00  0.00    +0.000 A 
ATOM     18  C   UNL     1       5.879   6.719  17.096  0.00  0.00    +0.000 A 
ATOM     19  C   UNL     1       6.944   7.589  17.329  0.00  0.00    +0.000 A 
ATOM     20  C   UNL     1       7.885   7.308  18.321  0.00  0.00    +0.000 A 
ATOM     21  C   UNL     1       7.795   6.109  19.032  0.00  0.00    +0.000 A 
ATOM     22  C   UNL     1       6.718   5.241  18.811  0.00  0.00    +0.000 A 
BRANCH  20  23
ATOM     23  O   UNL     1       8.860   8.249  18.477  0.00  0.00    +0.000 OA
ATOM     24  C   UNL     1       8.460   9.595  18.236  0.00  0.00    +0.000 C 
ENDBRANCH  20  23
ENDBRANCH  15  17
ENDBRANCH   6  15
TORSDOF 4
ENDMDL
MODEL 6
REMARK VINA RESULT:      -7.2      1.795      3.838
REMARK  Name = 
REMARK  6 active torsions:
REMARK  status: ('A' for Active; 'I' for Inactive)
REMARK    1  A    between atoms: C_1  and  N_2
REMARK    2  A    between atoms: C_5  and  C_6
REMARK    3  A    between atoms: C_12  and  C_13
REMARK    4  A    between atoms: C_13  and  C_15
REMARK    5  A    between atoms: C_18  and  O_19
REMARK    6  A    between atoms: O_19  and  C_20
REMARK                            x       y       z     vdW  Elec       q    Type
REMARK                         _______ _______ _______ _____ _____    ______ ____
ROOT
ATOM      1  C   UNL     1       1.338   2.563  21.072  0.00  0.00    +0.000 C 
ATOM      2  N   UNL     1       2.755   2.796  20.892  0.00  0.00    +0.000 N 
ATOM      3  C   UNL     1       3.109   3.865  20.144  0.00  0.00    +0.000 A 
ATOM      4  N   UNL     1       2.425   4.974  20.054  0.00  0.00    +0.000 NA
ATOM      5  C   UNL     1       3.067   5.905  19.243  0.00  0.00    +0.000 A 
ATOM      6  C   UNL     1       4.257   5.455  18.684  0.00  0.00    +0.000 A 
ATOM      7  S   UNL     1       4.522   3.822  19.189  0.00  0.00    +0.000 S 
ATOM      8  H   UNL     1       3.298   1.954  20.734  0.00  0.00    +0.000 HD
ENDROOT
BRANCH   5   9
ATOM      9  C   UNL     1       2.468   7.237  19.134  0.00  0.00    +0.000 A 
ATOM     10  C   UNL     1       1.837   7.875  20.208  0.00  0.00    +0.000 A 
ATOM     11  C   UNL     1       1.148   9.076  20.020  0.00  0.00    +0.000 A 
ATOM     12  C   UNL     1       1.075   9.650  18.756  0.00  0.00    +0.000 A 
ATOM     13  C   UNL     1       1.716   9.045  17.678  0.00  0.00    +0.000 A 
ATOM     14  C   UNL     1       2.411   7.848  17.869  0.00  0.00    +0.000 A 
ENDBRANCH   5   9
BRANCH   6  15
ATOM     15  C   UNL     1       5.180   6.081  17.745  0.00  0.00    +0.000 C 
ATOM     16  O   UNL     1       5.636   7.210  17.903  0.00  0.00    +0.000 OA
BRANCH  15  17
ATOM     17  C   UNL     1       5.603   5.352  16.508  0.00  0.00    +0.000 A 
ATOM     18  C   UNL     1       4.711   4.561  15.772  0.00  0.00    +0.000 A 
ATOM     19  C   UNL     1       5.103   4.011  14.551  0.00  0.00    +0.000 A 
ATOM     20  C   UNL     1       6.396   4.212  14.065  0.00  0.00    +0.000 A 
ATOM     21  C   UNL     1       7.322   4.907  14.847  0.00  0.00    +0.000 A 
ATOM     22  C   UNL     1       6.927   5.474  16.065  0.00  0.00    +0.000 A 
BRANCH  20  23
ATOM     23  O   UNL     1       6.650   3.654  12.847  0.00  0.00    +0.000 OA
ATOM     24  C   UNL     1       5.505   3.227  12.115  0.00  0.00    +0.000 C 
ENDBRANCH  20  23
ENDBRANCH  15  17
ENDBRANCH   6  15
TORSDOF 4
ENDMDL
MODEL 7
REMARK VINA RESULT:      -7.1      2.840      5.084
REMARK  Name = 
REMARK  6 active torsions:
REMARK  status: ('A' for Active; 'I' for Inactive)
REMARK    1  A    between atoms: C_1  and  N_2
REMARK    2  A    between atoms: C_5  and  C_6
REMARK    3  A    between atoms: C_12  and  C_13
REMARK    4  A    between atoms: C_13  and  C_15
REMARK    5  A    between atoms: C_18  and  O_19
REMARK    6  A    between atoms: O_19  and  C_20
REMARK                            x       y       z     vdW  Elec       q    Type
REMARK                         _______ _______ _______ _____ _____    ______ ____
ROOT
ATOM      1  C   UNL     1       1.112   2.464  21.520  0.00  0.00    +0.000 C 
ATOM      2  N   UNL     1       2.511   2.464  21.146  0.00  0.00    +0.000 N 
ATOM      3  C   UNL     1       2.908   3.413  20.269  0.00  0.00    +0.000 A 
ATOM      4  N   UNL     1       2.383   4.604  20.167  0.00  0.00    +0.000 NA
ATOM      5  C   UNL     1       3.036   5.368  19.203  0.00  0.00    +0.000 A 
ATOM      6  C   UNL     1       4.062   4.704  18.543  0.00  0.00    +0.000 A 
ATOM      7  S   UNL     1       4.158   3.089  19.153  0.00  0.00    +0.000 S 
ATOM      8  H   UNL     1       2.901   1.541  20.997  0.00  0.00    +0.000 HD
ENDROOT
BRANCH   5   9
ATOM      9  C   UNL     1       2.624   6.766  19.052  0.00  0.00    +0.000 A 
ATOM     10  C   UNL     1       2.062   7.508  20.098  0.00  0.00    +0.000 A 
ATOM     11  C   UNL     1       1.544   8.786  19.868  0.00  0.00    +0.000 A 
ATOM     12  C   UNL     1       1.575   9.334  18.590  0.00  0.00    +0.000 A 
ATOM     13  C   UNL     1       2.151   8.623  17.541  0.00  0.00    +0.000 A 
ATOM     14  C   UNL     1       2.674   7.348  17.773  0.00  0.00    +0.000 A 
ENDBRANCH   5   9
BRANCH   6  15
ATOM     15  C   UNL     1       4.929   5.116  17.445  0.00  0.00    +0.000 C 
ATOM     16  O   UNL     1       4.776   4.735  16.289  0.00  0.00    +0.000 OA
BRANCH  15  17
ATOM     17  C   UNL     1       6.085   6.033  17.704  0.00  0.00    +0.000 A 
ATOM     18  C   UNL     1       6.251   7.233  17.002  0.00  0.00    +0.000 A 
ATOM     19  C   UNL     1       7.258   8.127  17.367  0.00  0.00    +0.000 A 
ATOM     20  C   UNL     1       8.133   7.821  18.411  0.00  0.00    +0.000 A 
ATOM     21  C   UNL     1       8.041   6.578  19.042  0.00  0.00    +0.000 A 
ATOM     22  C   UNL     1       7.020   5.686  18.688  0.00  0.00    +0.000 A 
BRANCH  20  23
ATOM     23  O   UNL     1       9.053   8.787  18.697  0.00  0.00    +0.000 OA
ATOM     24  C   UNL     1       8.738  10.095  18.228  0.00  0.00    +0.000 C 
ENDBRANCH  20  23
ENDBRANCH  15  17
ENDBRANCH   6  15
TORSDOF 4
ENDMDL
MODEL 8
REMARK VINA RESULT:      -7.1      3.459      7.291
REMARK  Name = 
REMARK  6 active torsions:
REMARK  status: ('A' for Active; 'I' for Inactive)
REMARK    1  A    between atoms: C_1  and  N_2
REMARK    2  A    between atoms: C_5  and  C_6
REMARK    3  A    between atoms: C_12  and  C_13
REMARK    4  A    between atoms: C_13  and  C_15
REMARK    5  A    between atoms: C_18  and  O_19
REMARK    6  A    between atoms: O_19  and  C_20
REMARK                            x       y       z     vdW  Elec       q    Type
REMARK                         _______ _______ _______ _____ _____    ______ ____
ROOT
ATOM      1  C   UNL     1       3.280   1.311  18.740  0.00  0.00    +0.000 C 
ATOM      2  N   UNL     1       2.560   2.279  17.939  0.00  0.00    +0.000 N 
ATOM      3  C   UNL     1       3.005   3.554  17.977  0.00  0.00    +0.000 A 
ATOM      4  N   UNL     1       4.250   3.907  18.153  0.00  0.00    +0.000 NA
ATOM      5  C   UNL     1       4.401   5.290  18.099  0.00  0.00    +0.000 A 
ATOM      6  C   UNL     1       3.216   5.989  17.909  0.00  0.00    +0.000 A 
ATOM      7  S   UNL     1       1.911   4.856  17.829  0.00  0.00    +0.000 S 
ATOM      8  H   UNL     1       1.553   2.167  17.959  0.00  0.00    +0.000 HD
ENDROOT
BRANCH   5   9
ATOM      9  C   UNL     1       5.761   5.827  18.174  0.00  0.00    +0.000 A 
ATOM     10  C   UNL     1       6.667   5.460  19.175  0.00  0.00    +0.000 A 
ATOM     11  C   UNL     1       7.899   6.110  19.298  0.00  0.00    +0.000 A 
ATOM     12  C   UNL     1       8.236   7.140  18.426  0.00  0.00    +0.000 A 
ATOM     13  C   UNL     1       7.360   7.505  17.407  0.00  0.00    +0.000 A 
ATOM     14  C   UNL     1       6.132   6.849  17.282  0.00  0.00    +0.000 A 
ENDBRANCH   5   9
BRANCH   6  15
ATOM     15  C   UNL     1       2.935   7.420  17.862  0.00  0.00    +0.000 C 
ATOM     16  O   UNL     1       3.390   8.166  17.000  0.00  0.00    +0.000 OA
BRANCH  15  17
ATOM     17  C   UNL     1       2.069   8.049  18.909  0.00  0.00    +0.000 A 
ATOM     18  C   UNL     1       2.002   7.549  20.215  0.00  0.00    +0.000 A 
ATOM     19  C   UNL     1       1.295   8.243  21.197  0.00  0.00    +0.000 A 
ATOM     20  C   UNL     1       0.619   9.424  20.884  0.00  0.00    +0.000 A 
ATOM     21  C   UNL     1       0.592   9.868  19.560  0.00  0.00    +0.000 A 
ATOM     22  C   UNL     1       1.314   9.182  18.575  0.00  0.00    +0.000 A 
BRANCH  20  23
ATOM     23  O   UNL     1      -0.007  10.029  21.934  0.00  0.00    +0.000 OA
ATOM     24  C   UNL     1       0.031   9.315  23.167  0.00  0.00    +0.000 C 
ENDBRANCH  20  23
ENDBRANCH  15  17
ENDBRANCH   6  15
TORSDOF 4
ENDMDL
MODEL 9
REMARK VINA RESULT:      -6.9      0.559      1.524
REMARK  Name = 
REMARK  6 active torsions:
REMARK  status: ('A' for Active; 'I' for Inactive)
REMARK    1  A    between atoms: C_1  and  N_2
REMARK    2  A    between atoms: C_5  and  C_6
REMARK    3  A    between atoms: C_12  and  C_13
REMARK    4  A    between atoms: C_13  and  C_15
REMARK    5  A    between atoms: C_18  and  O_19
REMARK    6  A    between atoms: O_19  and  C_20
REMARK                            x       y       z     vdW  Elec       q    Type
REMARK                         _______ _______ _______ _____ _____    ______ ____
ROOT
ATOM      1  C   UNL     1       1.144   9.770  19.143  0.00  0.00    +0.000 C 
ATOM      2  N   UNL     1       1.935   9.255  18.045  0.00  0.00    +0.000 N 
ATOM      3  C   UNL     1       2.506   8.043  18.219  0.00  0.00    +0.000 A 
ATOM      4  N   UNL     1       2.009   7.079  18.947  0.00  0.00    +0.000 NA
ATOM      5  C   UNL     1       2.805   5.938  18.895  0.00  0.00    +0.000 A 
ATOM      6  C   UNL     1       3.954   6.075  18.126  0.00  0.00    +0.000 A 
ATOM      7  S   UNL     1       4.011   7.685  17.498  0.00  0.00    +0.000 S 
ATOM      8  H   UNL     1       2.514   9.950  17.588  0.00  0.00    +0.000 HD
ENDROOT
BRANCH   5   9
ATOM      9  C   UNL     1       2.317   4.739  19.580  0.00  0.00    +0.000 A 
ATOM     10  C   UNL     1       1.453   3.819  18.974  0.00  0.00    +0.000 A 
ATOM     11  C   UNL     1       0.892   2.773  19.712  0.00  0.00    +0.000 A 
ATOM     12  C   UNL     1       1.182   2.638  21.066  0.00  0.00    +0.000 A 
ATOM     13  C   UNL     1       2.058   3.527  21.683  0.00  0.00    +0.000 A 
ATOM     14  C   UNL     1       2.623   4.568  20.942  0.00  0.00    +0.000 A 
ENDBRANCH   5   9
BRANCH   6  15
ATOM     15  C   UNL     1       5.061   5.160  17.873  0.00  0.00    +0.000 C 
ATOM     16  O   UNL     1       5.655   4.561  18.765  0.00  0.00    +0.000 OA
BRANCH  15  17
ATOM     17  C   UNL     1       5.537   4.926  16.473  0.00  0.00    +0.000 A 
ATOM     18  C   UNL     1       6.792   5.365  16.034  0.00  0.00    +0.000 A 
ATOM     19  C   UNL     1       7.258   5.008  14.768  0.00  0.00    +0.000 A 
ATOM     20  C   UNL     1       6.467   4.241  13.912  0.00  0.00    +0.000 A 
ATOM     21  C   UNL     1       5.171   3.894  14.302  0.00  0.00    +0.000 A 
ATOM     22  C   UNL     1       4.707   4.237  15.579  0.00  0.00    +0.000 A 
BRANCH  20  23
ATOM     23  O   UNL     1       7.043   3.927  12.716  0.00  0.00    +0.000 OA
ATOM     24  C   UNL     1       7.592   5.024  11.991  0.00  0.00    +0.000 C 
ENDBRANCH  20  23
ENDBRANCH  15  17
ENDBRANCH   6  15
TORSDOF 4
ENDMDL
