MODEL 1
REMARK VINA RESULT:      -7.8      0.000      0.000
REMARK  Name = 
REMARK  7 active torsions:
REMARK  status: ('A' for Active; 'I' for Inactive)
REMARK    1  A    between atoms: C_2  and  C_3
REMARK    2  A    between atoms: C_3  and  N_4
REMARK    3  A    between atoms: N_4  and  C_5
REMARK    4  A    between atoms: N_4  and  C_11
REMARK    5  A    between atoms: C_5  and  C_6
REMARK    6  A    between atoms: C_11  and  C_12
REMARK    7  A    between atoms: N_17  and  C_18
REMARK                            x       y       z     vdW  Elec       q    Type
REMARK                         _______ _______ _______ _____ _____    ______ ____
ROOT
ATOM      1  N   UNL     1       3.222   5.718  17.945  0.00  0.00    +0.000 NA
ENDROOT
BRANCH   1   2
ATOM      2  C   UNL     1       4.689   5.461  17.879  0.00  0.00    +0.000 C 
BRANCH   2   4
ATOM      3  O   UNL     1       5.566   6.794  16.122  0.00  0.00    +0.000 OA
ATOM      4  C   UNL     1       5.350   5.649  16.515  0.00  0.00    +0.000 C 
ATOM      5  N   UNL     1       5.549   4.487  15.787  0.00  0.00    +0.000 N 
ATOM      6  H   UNL     1       5.227   3.631  16.229  0.00  0.00    +0.000 HD
BRANCH   5   7
ATOM      7  C   UNL     1       6.079   4.417  14.477  0.00  0.00    +0.000 A 
ATOM      8  C   UNL     1       5.524   3.607  13.474  0.00  0.00    +0.000 A 
ATOM      9  C   UNL     1       6.110   3.513  12.207  0.00  0.00    +0.000 A 
ATOM     10  C   UNL     1       7.254   4.246  11.923  0.00  0.00    +0.000 A 
ATOM     11  C   UNL     1       7.787   5.077  12.900  0.00  0.00    +0.000 A 
ATOM     12  F   UNL     1       8.884   5.793  12.618  0.00  0.00    +0.000 F 
ATOM     13  C   UNL     1       7.207   5.180  14.167  0.00  0.00    +0.000 A 
ENDBRANCH   5   7
ENDBRANCH   2   4
ENDBRANCH   1   2
BRANCH   1  14
ATOM     14  C   UNL     1       2.480   4.449  18.188  0.00  0.00    +0.000 C 
BRANCH  14  15
ATOM     15  C   UNL     1       2.322   4.076  19.671  0.00  0.00    +0.000 C 
ATOM     16  C   UNL     1       0.971   3.466  20.043  0.00  0.00    +0.000 C 
ATOM     17  C   UNL     1       1.223   2.938  21.450  0.00  0.00    +0.000 C 
ATOM     18  C   UNL     1       2.690   2.503  21.464  0.00  0.00    +0.000 C 
ATOM     19  C   UNL     1       3.290   2.990  20.143  0.00  0.00    +0.000 C 
ENDBRANCH  14  15
ENDBRANCH   1  14
BRANCH   1  20
ATOM     20  C   UNL     1       2.980   6.662  19.076  0.00  0.00    +0.000 C 
BRANCH  20  21
ATOM     21  C   UNL     1       1.877   7.704  18.843  0.00  0.00    +0.000 C 
ATOM     22  C   UNL     1       1.500   8.485  20.099  0.00  0.00    +0.000 C 
ATOM     23  C   UNL     1       0.742   9.687  19.549  0.00  0.00    +0.000 C 
ATOM     24  C   UNL     1       1.320   9.949  18.159  0.00  0.00    +0.000 C 
ATOM     25  C   UNL     1       2.308   8.818  17.888  0.00  0.00    +0.000 C 
ENDBRANCH  20  21
ENDBRANCH   1  20
TORSDOF 7
ENDMDL
MODEL 2
REMARK VINA RESULT:      -7.8      3.185      7.673
REMARK  Name = 
REMARK  7 active torsions:
REMARK  status: ('A' for Active; 'I' for Inactive)
REMARK    1  A    between atoms: C_2  and  C_3
REMARK    2  A    between atoms: C_3  and  N_4
REMARK    3  A    between atoms: N_4  and  C_5
REMARK    4  A    between atoms: N_4  and  C_11
REMARK    5  A    between atoms: C_5  and  C_6
REMARK    6  A    between atoms: C_11  and  C_12
REMARK    7  A    between atoms: N_17  and  C_18
REMARK                            x       y       z     vdW  Elec       q    Type
REMARK                         _______ _______ _______ _____ _____    ______ ____
ROOT
ATOM      1  N   UNL     1       5.193   4.621  16.600  0.00  0.00    +0.000 NA
ENDROOT
BRANCH   1   2
ATOM      2  C   UNL     1       3.880   4.089  17.066  0.00  0.00    +0.000 C 
BRANCH   2   4
ATOM      3  O   UNL     1       2.395   4.457  18.879  0.00  0.00    +0.000 OA
ATOM      4  C   UNL     1       3.080   4.987  18.006  0.00  0.00    +0.000 C 
ATOM      5  N   UNL     1       3.119   6.340  17.712  0.00  0.00    +0.000 N 
ATOM      6  H   UNL     1       3.666   6.596  16.895  0.00  0.00    +0.000 HD
BRANCH   5   7
ATOM      7  C   UNL     1       2.407   7.353  18.396  0.00  0.00    +0.000 A 
ATOM      8  C   UNL     1       1.932   8.511  17.762  0.00  0.00    +0.000 A 
ATOM      9  C   UNL     1       1.287   9.523  18.481  0.00  0.00    +0.000 A 
ATOM     10  C   UNL     1       1.093   9.378  19.847  0.00  0.00    +0.000 A 
ATOM     11  C   UNL     1       1.529   8.218  20.475  0.00  0.00    +0.000 A 
ATOM     12  F   UNL     1       1.327   8.075  21.792  0.00  0.00    +0.000 F 
ATOM     13  C   UNL     1       2.171   7.201  19.765  0.00  0.00    +0.000 A 
ENDBRANCH   5   7
ENDBRANCH   2   4
ENDBRANCH   1   2
BRANCH   1  14
ATOM     14  C   UNL     1       6.173   4.647  17.721  0.00  0.00    +0.000 C 
BRANCH  14  15
ATOM     15  C   UNL     1       7.188   5.801  17.657  0.00  0.00    +0.000 C 
ATOM     16  C   UNL     1       6.602   7.154  17.257  0.00  0.00    +0.000 C 
ATOM     17  C   UNL     1       7.743   8.114  17.573  0.00  0.00    +0.000 C 
ATOM     18  C   UNL     1       8.452   7.516  18.790  0.00  0.00    +0.000 C 
ATOM     19  C   UNL     1       7.837   6.131  19.002  0.00  0.00    +0.000 C 
ENDBRANCH  14  15
ENDBRANCH   1  14
BRANCH   1  20
ATOM     20  C   UNL     1       5.690   3.714  15.523  0.00  0.00    +0.000 C 
BRANCH  20  21
ATOM     21  C   UNL     1       6.049   4.398  14.196  0.00  0.00    +0.000 C 
ATOM     22  C   UNL     1       7.455   4.993  14.177  0.00  0.00    +0.000 C 
ATOM     23  C   UNL     1       7.719   5.218  12.693  0.00  0.00    +0.000 C 
ATOM     24  C   UNL     1       6.908   4.154  11.955  0.00  0.00    +0.000 C 
ATOM     25  C   UNL     1       6.096   3.422  13.020  0.00  0.00    +0.000 C 
ENDBRANCH  20  21
ENDBRANCH   1  20
TORSDOF 7
ENDMDL
MODEL 3
REMARK VINA RESULT:      -7.8      1.187      1.554
REMARK  Name = 
REMARK  7 active torsions:
REMARK  status: ('A' for Active; 'I' for Inactive)
REMARK    1  A    between atoms: C_2  and  C_3
REMARK    2  A    between atoms: C_3  and  N_4
REMARK    3  A    between atoms: N_4  and  C_5
REMARK    4  A    between atoms: N_4  and  C_11
REMARK    5  A    between atoms: C_5  and  C_6
REMARK    6  A    between atoms: C_11  and  C_12
REMARK    7  A    between atoms: N_17  and  C_18
REMARK                            x       y       z     vdW  Elec       q    Type
REMARK                         _______ _______ _______ _____ _____    ______ ____
ROOT
ATOM      1  N   UNL     1       3.709   5.900  17.976  0.00  0.00    +0.000 NA
ENDROOT
BRANCH   1   2
ATOM      2  C   UNL     1       5.078   6.335  17.579  0.00  0.00    +0.000 C 
BRANCH   2   4
ATOM      3  O   UNL     1       5.019   7.088  15.330  0.00  0.00    +0.000 OA
ATOM      4  C   UNL     1       5.424   6.216  16.096  0.00  0.00    +0.000 C 
ATOM      5  N   UNL     1       6.084   5.055  15.731  0.00  0.00    +0.000 N 
ATOM      6  H   UNL     1       6.262   4.396  16.484  0.00  0.00    +0.000 HD
BRANCH   5   7
ATOM      7  C   UNL     1       6.445   4.692  14.412  0.00  0.00    +0.000 A 
ATOM      8  C   UNL     1       7.537   5.260  13.739  0.00  0.00    +0.000 A 
ATOM      9  C   UNL     1       7.829   4.925  12.413  0.00  0.00    +0.000 A 
ATOM     10  C   UNL     1       7.038   3.999  11.747  0.00  0.00    +0.000 A 
ATOM     11  C   UNL     1       5.977   3.406  12.420  0.00  0.00    +0.000 A 
ATOM     12  F   UNL     1       5.223   2.503  11.780  0.00  0.00    +0.000 F 
ATOM     13  C   UNL     1       5.680   3.732  13.746  0.00  0.00    +0.000 A 
ENDBRANCH   5   7
ENDBRANCH   2   4
ENDBRANCH   1   2
BRANCH   1  14
ATOM     14  C   UNL     1       3.718   4.472  18.401  0.00  0.00    +0.000 C 
BRANCH  14  15
ATOM     15  C   UNL     1       2.672   4.117  19.472  0.00  0.00    +0.000 C 
ATOM     16  C   UNL     1       1.322   3.654  18.927  0.00  0.00    +0.000 C 
ATOM     17  C   UNL     1       0.636   3.102  20.171  0.00  0.00    +0.000 C 
ATOM     18  C   UNL     1       1.760   2.514  21.028  0.00  0.00    +0.000 C 
ATOM     19  C   UNL     1       3.069   2.935  20.358  0.00  0.00    +0.000 C 
ENDBRANCH  14  15
ENDBRANCH   1  14
BRANCH   1  20
ATOM     20  C   UNL     1       3.277   6.758  19.120  0.00  0.00    +0.000 C 
BRANCH  20  21
ATOM     21  C   UNL     1       2.046   7.636  18.859  0.00  0.00    +0.000 C 
ATOM     22  C   UNL     1       1.588   8.425  20.082  0.00  0.00    +0.000 C 
ATOM     23  C   UNL     1       0.673   9.490  19.490  0.00  0.00    +0.000 C 
ATOM     24  C   UNL     1       1.193   9.753  18.077  0.00  0.00    +0.000 C 
ATOM     25  C   UNL     1       2.315   8.746  17.842  0.00  0.00    +0.000 C 
ENDBRANCH  20  21
ENDBRANCH   1  20
TORSDOF 7
ENDMDL
MODEL 4
REMARK VINA RESULT:      -7.7      1.349      4.171
REMARK  Name = 
REMARK  7 active torsions:
REMARK  status: ('A' for Active; 'I' for Inactive)
REMARK    1  A    between atoms: C_2  and  C_3
REMARK    2  A    between atoms: C_3  and  N_4
REMARK    3  A    between atoms: N_4  and  C_5
REMARK    4  A    between atoms: N_4  and  C_11
REMARK    5  A    between atoms: C_5  and  C_6
REMARK    6  A    between atoms: C_11  and  C_12
REMARK    7  A    between atoms: N_17  and  C_18
REMARK                            x       y       z     vdW  Elec       q    Type
REMARK                         _______ _______ _______ _____ _____    ______ ____
ROOT
ATOM      1  N   UNL     1       3.923   6.174  18.197  0.00  0.00    +0.000 NA
ENDROOT
BRANCH   1   2
ATOM      2  C   UNL     1       5.339   6.289  17.746  0.00  0.00    +0.000 C 
BRANCH   2   4
ATOM      3  O   UNL     1       5.046   7.005  15.503  0.00  0.00    +0.000 OA
ATOM      4  C   UNL     1       5.582   6.181  16.242  0.00  0.00    +0.000 C 
ATOM      5  N   UNL     1       6.311   5.076  15.835  0.00  0.00    +0.000 N 
ATOM      6  H   UNL     1       6.601   4.444  16.576  0.00  0.00    +0.000 HD
BRANCH   5   7
ATOM      7  C   UNL     1       6.603   4.729  14.495  0.00  0.00    +0.000 A 
ATOM      8  C   UNL     1       7.610   5.358  13.748  0.00  0.00    +0.000 A 
ATOM      9  C   UNL     1       7.831   5.034  12.405  0.00  0.00    +0.000 A 
ATOM     10  C   UNL     1       7.053   4.059  11.796  0.00  0.00    +0.000 A 
ATOM     11  C   UNL     1       6.077   3.408  12.540  0.00  0.00    +0.000 A 
ATOM     12  F   UNL     1       5.337   2.458  11.953  0.00  0.00    +0.000 F 
ATOM     13  C   UNL     1       5.852   3.722  13.883  0.00  0.00    +0.000 A 
ENDBRANCH   5   7
ENDBRANCH   2   4
ENDBRANCH   1   2
BRANCH   1  14
ATOM     14  C   UNL     1       3.072   7.185  17.510  0.00  0.00    +0.000 C 
BRANCH  14  15
ATOM     15  C   UNL     1       2.541   8.301  18.424  0.00  0.00    +0.000 C 
ATOM     16  C   UNL     1       1.383   9.114  17.847  0.00  0.00    +0.000 C 
ATOM     17  C   UNL     1       0.896   9.901  19.058  0.00  0.00    +0.000 C 
ATOM     18  C   UNL     1       1.131   8.983  20.260  0.00  0.00    +0.000 C 
ATOM     19  C   UNL     1       1.939   7.794  19.736  0.00  0.00    +0.000 C 
ENDBRANCH  14  15
ENDBRANCH   1  14
BRANCH   1  20
ATOM     20  C   UNL     1       3.449   4.801  17.847  0.00  0.00    +0.000 C 
BRANCH  20  21
ATOM     21  C   UNL     1       2.151   4.355  18.535  0.00  0.00    +0.000 C 
ATOM     22  C   UNL     1       1.696   2.955  18.132  0.00  0.00    +0.000 C 
ATOM     23  C   UNL     1       0.686   2.590  19.213  0.00  0.00    +0.000 C 
ATOM     24  C   UNL     1       1.124   3.343  20.469  0.00  0.00    +0.000 C 
ATOM     25  C   UNL     1       2.299   4.223  20.051  0.00  0.00    +0.000 C 
ENDBRANCH  20  21
ENDBRANCH   1  20
TORSDOF 7
ENDMDL
MODEL 5
REMARK VINA RESULT:      -7.7      3.303      7.774
REMARK  Name = 
REMARK  7 active torsions:
REMARK  status: ('A' for Active; 'I' for Inactive)
REMARK    1  A    between atoms: C_2  and  C_3
REMARK    2  A    between atoms: C_3  and  N_4
REMARK    3  A    between atoms: N_4  and  C_5
REMARK    4  A    between atoms: N_4  and  C_11
REMARK    5  A    between atoms: C_5  and  C_6
REMARK    6  A    between atoms: C_11  and  C_12
REMARK    7  A    between atoms: N_17  and  C_18
REMARK                            x       y       z     vdW  Elec       q    Type
REMARK                         _______ _______ _______ _____ _____    ______ ____
ROOT
ATOM      1  N   UNL     1       2.983   6.358  18.037  0.00  0.00    +0.000 NA
ENDROOT
BRANCH   1   2
ATOM      2  C   UNL     1       2.552   7.414  18.997  0.00  0.00    +0.000 C 
BRANCH   2   4
ATOM      3  O   UNL     1       2.222   8.966  17.233  0.00  0.00    +0.000 OA
ATOM      4  C   UNL     1       1.929   8.668  18.389  0.00  0.00    +0.000 C 
ATOM      5  N   UNL     1       1.159   9.428  19.254  0.00  0.00    +0.000 N 
ATOM      6  H   UNL     1       1.095   9.080  20.206  0.00  0.00    +0.000 HD
BRANCH   5   7
ATOM      7  C   UNL     1       0.539  10.660  18.939  0.00  0.00    +0.000 A 
ATOM      8  C   UNL     1      -0.810  10.761  18.566  0.00  0.00    +0.000 A 
ATOM      9  C   UNL     1      -1.375  11.987  18.201  0.00  0.00    +0.000 A 
ATOM     10  C   UNL     1      -0.597  13.136  18.221  0.00  0.00    +0.000 A 
ATOM     11  C   UNL     1       0.730  13.049  18.624  0.00  0.00    +0.000 A 
ATOM     12  F   UNL     1       1.475  14.162  18.655  0.00  0.00    +0.000 F 
ATOM     13  C   UNL     1       1.302  11.829  18.994  0.00  0.00    +0.000 A 
ENDBRANCH   5   7
ENDBRANCH   2   4
ENDBRANCH   1   2
BRANCH   1  14
ATOM     14  C   UNL     1       4.264   5.740  18.480  0.00  0.00    +0.000 C 
BRANCH  14  15
ATOM     15  C   UNL     1       5.214   5.347  17.337  0.00  0.00    +0.000 C 
ATOM     16  C   UNL     1       5.012   3.937  16.785  0.00  0.00    +0.000 C 
ATOM     17  C   UNL     1       5.853   3.956  15.513  0.00  0.00    +0.000 C 
ATOM     18  C   UNL     1       5.758   5.390  14.986  0.00  0.00    +0.000 C 
ATOM     19  C   UNL     1       5.051   6.198  16.076  0.00  0.00    +0.000 C 
ENDBRANCH  14  15
ENDBRANCH   1  14
BRANCH   1  20
ATOM     20  C   UNL     1       1.913   5.316  18.002  0.00  0.00    +0.000 C 
BRANCH  20  21
ATOM     21  C   UNL     1       2.089   4.155  18.991  0.00  0.00    +0.000 C 
ATOM     22  C   UNL     1       1.154   4.231  20.195  0.00  0.00    +0.000 C 
ATOM     23  C   UNL     1       1.212   2.822  20.772  0.00  0.00    +0.000 C 
ATOM     24  C   UNL     1       1.497   1.895  19.591  0.00  0.00    +0.000 C 
ATOM     25  C   UNL     1       1.723   2.800  18.383  0.00  0.00    +0.000 C 
ENDBRANCH  20  21
ENDBRANCH   1  20
TORSDOF 7
ENDMDL
MODEL 6
REMARK VINA RESULT:      -7.7      3.650      7.853
REMARK  Name = 
REMARK  7 active torsions:
REMARK  status: ('A' for Active; 'I' for Inactive)
REMARK    1  A    between atoms: C_2  and  C_3
REMARK    2  A    between atoms: C_3  and  N_4
REMARK    3  A    between atoms: N_4  and  C_5
REMARK    4  A    between atoms: N_4  and  C_11
REMARK    5  A    between atoms: C_5  and  C_6
REMARK    6  A    between atoms: C_11  and  C_12
REMARK    7  A    between atoms: N_17  and  C_18
REMARK                            x       y       z     vdW  Elec       q    Type
REMARK                         _______ _______ _______ _____ _____    ______ ____
ROOT
ATOM      1  N   UNL     1       3.074   6.470  18.407  0.00  0.00    +0.000 NA
ENDROOT
BRANCH   1   2
ATOM      2  C   UNL     1       2.861   7.775  17.717  0.00  0.00    +0.000 C 
BRANCH   2   4
ATOM      3  O   UNL     1       1.949   9.946  18.007  0.00  0.00    +0.000 OA
ATOM      4  C   UNL     1       2.025   8.809  18.468  0.00  0.00    +0.000 C 
ATOM      5  N   UNL     1       1.508   8.387  19.682  0.00  0.00    +0.000 N 
ATOM      6  H   UNL     1       1.746   7.437  19.954  0.00  0.00    +0.000 HD
BRANCH   5   7
ATOM      7  C   UNL     1       0.763   9.185  20.582  0.00  0.00    +0.000 A 
ATOM      8  C   UNL     1       0.024  10.306  20.174  0.00  0.00    +0.000 A 
ATOM      9  C   UNL     1      -0.651  11.109  21.099  0.00  0.00    +0.000 A 
ATOM     10  C   UNL     1      -0.607  10.789  22.448  0.00  0.00    +0.000 A 
ATOM     11  C   UNL     1       0.093   9.660  22.855  0.00  0.00    +0.000 A 
ATOM     12  F   UNL     1       0.122   9.346  24.157  0.00  0.00    +0.000 F 
ATOM     13  C   UNL     1       0.767   8.849  21.938  0.00  0.00    +0.000 A 
ENDBRANCH   5   7
ENDBRANCH   2   4
ENDBRANCH   1   2
BRANCH   1  14
ATOM     14  C   UNL     1       2.119   5.447  17.897  0.00  0.00    +0.000 C 
BRANCH  14  15
ATOM     15  C   UNL     1       1.633   4.443  18.955  0.00  0.00    +0.000 C 
ATOM     16  C   UNL     1       2.280   3.061  18.879  0.00  0.00    +0.000 C 
ATOM     17  C   UNL     1       1.843   2.419  20.191  0.00  0.00    +0.000 C 
ATOM     18  C   UNL     1       1.768   3.567  21.199  0.00  0.00    +0.000 C 
ATOM     19  C   UNL     1       1.952   4.854  20.393  0.00  0.00    +0.000 C 
ENDBRANCH  14  15
ENDBRANCH   1  14
BRANCH   1  20
ATOM     20  C   UNL     1       4.473   6.033  18.120  0.00  0.00    +0.000 C 
BRANCH  20  21
ATOM     21  C   UNL     1       4.664   5.237  16.821  0.00  0.00    +0.000 C 
ATOM     22  C   UNL     1       5.269   6.057  15.686  0.00  0.00    +0.000 C 
ATOM     23  C   UNL     1       5.738   4.996  14.698  0.00  0.00    +0.000 C 
ATOM     24  C   UNL     1       6.073   3.762  15.535  0.00  0.00    +0.000 C 
ATOM     25  C   UNL     1       5.671   4.096  16.968  0.00  0.00    +0.000 C 
ENDBRANCH  20  21
ENDBRANCH   1  20
TORSDOF 7
ENDMDL
MODEL 7
REMARK VINA RESULT:      -7.6      3.463      7.954
REMARK  Name = 
REMARK  7 active torsions:
REMARK  status: ('A' for Active; 'I' for Inactive)
REMARK    1  A    between atoms: C_2  and  C_3
REMARK    2  A    between atoms: C_3  and  N_4
REMARK    3  A    between atoms: N_4  and  C_5
REMARK    4  A    between atoms: N_4  and  C_11
REMARK    5  A    between atoms: C_5  and  C_6
REMARK    6  A    between atoms: C_11  and  C_12
REMARK    7  A    between atoms: N_17  and  C_18
REMARK                            x       y       z     vdW  Elec       q    Type
REMARK                         _______ _______ _______ _____ _____    ______ ____
ROOT
ATOM      1  N   UNL     1       2.949   6.217  17.891  0.00  0.00    +0.000 NA
ENDROOT
BRANCH   1   2
ATOM      2  C   UNL     1       2.468   7.214  18.890  0.00  0.00    +0.000 C 
BRANCH   2   4
ATOM      3  O   UNL     1       2.343   8.905  17.230  0.00  0.00    +0.000 OA
ATOM      4  C   UNL     1       1.939   8.532  18.330  0.00  0.00    +0.000 C 
ATOM      5  N   UNL     1       1.119   9.254  19.182  0.00  0.00    +0.000 N 
ATOM      6  H   UNL     1       0.961   8.838  20.095  0.00  0.00    +0.000 HD
BRANCH   5   7
ATOM      7  C   UNL     1       0.567  10.528  18.912  0.00  0.00    +0.000 A 
ATOM      8  C   UNL     1       1.312  11.714  18.999  0.00  0.00    +0.000 A 
ATOM      9  C   UNL     1       0.719  12.963  18.786  0.00  0.00    +0.000 A 
ATOM     10  C   UNL     1      -0.629  13.039  18.465  0.00  0.00    +0.000 A 
ATOM     11  C   UNL     1      -1.363  11.866  18.342  0.00  0.00    +0.000 A 
ATOM     12  F   UNL     1      -2.661  11.941  18.018  0.00  0.00    +0.000 F 
ATOM     13  C   UNL     1      -0.779  10.614  18.549  0.00  0.00    +0.000 A 
ENDBRANCH   5   7
ENDBRANCH   2   4
ENDBRANCH   1   2
BRANCH   1  14
ATOM     14  C   UNL     1       4.419   6.015  18.021  0.00  0.00    +0.000 C 
BRANCH  14  15
ATOM     15  C   UNL     1       5.051   5.182  16.894  0.00  0.00    +0.000 C 
ATOM     16  C   UNL     1       5.295   5.938  15.589  0.00  0.00    +0.000 C 
ATOM     17  C   UNL     1       6.177   4.972  14.807  0.00  0.00    +0.000 C 
ATOM     18  C   UNL     1       7.023   4.252  15.859  0.00  0.00    +0.000 C 
ATOM     19  C   UNL     1       6.455   4.666  17.218  0.00  0.00    +0.000 C 
ENDBRANCH  14  15
ENDBRANCH   1  14
BRANCH   1  20
ATOM     20  C   UNL     1       2.243   4.929  18.165  0.00  0.00    +0.000 C 
BRANCH  20  21
ATOM     21  C   UNL     1       2.288   4.447  19.622  0.00  0.00    +0.000 C 
ATOM     22  C   UNL     1       0.949   3.925  20.134  0.00  0.00    +0.000 C 
ATOM     23  C   UNL     1       1.332   3.147  21.386  0.00  0.00    +0.000 C 
ATOM     24  C   UNL     1       2.752   2.636  21.145  0.00  0.00    +0.000 C 
ATOM     25  C   UNL     1       3.202   3.237  19.817  0.00  0.00    +0.000 C 
ENDBRANCH  20  21
ENDBRANCH   1  20
TORSDOF 7
ENDMDL
MODEL 8
REMARK VINA RESULT:      -7.6      3.622      7.905
REMARK  Name = 
REMARK  7 active torsions:
REMARK  status: ('A' for Active; 'I' for Inactive)
REMARK    1  A    between atoms: C_2  and  C_3
REMARK    2  A    between atoms: C_3  and  N_4
REMARK    3  A    between atoms: N_4  and  C_5
REMARK    4  A    between atoms: N_4  and  C_11
REMARK    5  A    between atoms: C_5  and  C_6
REMARK    6  A    between atoms: C_11  and  C_12
REMARK    7  A    between atoms: N_17  and  C_18
REMARK                            x       y       z     vdW  Elec       q    Type
REMARK                         _______ _______ _______ _____ _____    ______ ____
ROOT
ATOM      1  N   UNL     1       3.281   6.762  18.354  0.00  0.00    +0.000 NA
ENDROOT
BRANCH   1   2
ATOM      2  C   UNL     1       2.717   7.991  17.727  0.00  0.00    +0.000 C 
BRANCH   2   4
ATOM      3  O   UNL     1       0.810   9.390  17.914  0.00  0.00    +0.000 OA
ATOM      4  C   UNL     1       1.646   8.730  18.526  0.00  0.00    +0.000 C 
ATOM      5  N   UNL     1       1.787   8.672  19.903  0.00  0.00    +0.000 N 
ATOM      6  H   UNL     1       2.594   8.153  20.241  0.00  0.00    +0.000 HD
BRANCH   5   7
ATOM      7  C   UNL     1       0.961   9.330  20.845  0.00  0.00    +0.000 A 
ATOM      8  C   UNL     1       0.263   8.648  21.853  0.00  0.00    +0.000 A 
ATOM      9  C   UNL     1      -0.594   9.322  22.728  0.00  0.00    +0.000 A 
ATOM     10  C   UNL     1      -0.751  10.696  22.615  0.00  0.00    +0.000 A 
ATOM     11  C   UNL     1      -0.035  11.382  21.642  0.00  0.00    +0.000 A 
ATOM     12  F   UNL     1      -0.178  12.710  21.544  0.00  0.00    +0.000 F 
ATOM     13  C   UNL     1       0.827  10.718  20.765  0.00  0.00    +0.000 A 
ENDBRANCH   5   7
ENDBRANCH   2   4
ENDBRANCH   1   2
BRANCH   1  14
ATOM     14  C   UNL     1       2.419   5.583  18.060  0.00  0.00    +0.000 C 
BRANCH  14  15
ATOM     15  C   UNL     1       2.390   4.519  19.169  0.00  0.00    +0.000 C 
ATOM     16  C   UNL     1       2.139   5.059  20.576  0.00  0.00    +0.000 C 
ATOM     17  C   UNL     1       1.868   3.789  21.374  0.00  0.00    +0.000 C 
ATOM     18  C   UNL     1       1.171   2.838  20.399  0.00  0.00    +0.000 C 
ATOM     19  C   UNL     1       1.257   3.502  19.023  0.00  0.00    +0.000 C 
ENDBRANCH  14  15
ENDBRANCH   1  14
BRANCH   1  20
ATOM     20  C   UNL     1       4.640   6.543  17.774  0.00  0.00    +0.000 C 
BRANCH  20  21
ATOM     21  C   UNL     1       4.722   5.489  16.661  0.00  0.00    +0.000 C 
ATOM     22  C   UNL     1       5.331   6.016  15.365  0.00  0.00    +0.000 C 
ATOM     23  C   UNL     1       5.686   4.745  14.603  0.00  0.00    +0.000 C 
ATOM     24  C   UNL     1       5.975   3.685  15.665  0.00  0.00    +0.000 C 
ATOM     25  C   UNL     1       5.658   4.332  17.010  0.00  0.00    +0.000 C 
ENDBRANCH  20  21
ENDBRANCH   1  20
TORSDOF 7
ENDMDL
MODEL 9
REMARK VINA RESULT:      -7.6      1.087      1.278
REMARK  Name = 
REMARK  7 active torsions:
REMARK  status: ('A' for Active; 'I' for Inactive)
REMARK    1  A    between atoms: C_2  and  C_3
REMARK    2  A    between atoms: C_3  and  N_4
REMARK    3  A    between atoms: N_4  and  C_5
REMARK    4  A    between atoms: N_4  and  C_11
REMARK    5  A    between atoms: C_5  and  C_6
REMARK    6  A    between atoms: C_11  and  C_12
REMARK    7  A    between atoms: N_17  and  C_18
REMARK                            x       y       z     vdW  Elec       q    Type
REMARK                         _______ _______ _______ _____ _____    ______ ____
ROOT
ATOM      1  N   UNL     1       4.495   4.623  18.274  0.00  0.00    +0.000 NA
ENDROOT
BRANCH   1   2
ATOM      2  C   UNL     1       5.984   4.569  18.266  0.00  0.00    +0.000 C 
BRANCH   2   4
ATOM      3  O   UNL     1       7.681   5.410  16.836  0.00  0.00    +0.000 OA
ATOM      4  C   UNL     1       6.661   4.728  16.906  0.00  0.00    +0.000 C 
ATOM      5  N   UNL     1       5.984   4.164  15.837  0.00  0.00    +0.000 N 
ATOM      6  H   UNL     1       5.103   3.712  16.064  0.00  0.00    +0.000 HD
BRANCH   5   7
ATOM      7  C   UNL     1       6.378   4.240  14.480  0.00  0.00    +0.000 A 
ATOM      8  C   UNL     1       5.859   3.394  13.488  0.00  0.00    +0.000 A 
ATOM      9  C   UNL     1       6.316   3.455  12.168  0.00  0.00    +0.000 A 
ATOM     10  C   UNL     1       7.291   4.379  11.819  0.00  0.00    +0.000 A 
ATOM     11  C   UNL     1       7.783   5.243  12.789  0.00  0.00    +0.000 A 
ATOM     12  F   UNL     1       8.714   6.144  12.446  0.00  0.00    +0.000 F 
ATOM     13  C   UNL     1       7.330   5.193  14.109  0.00  0.00    +0.000 A 
ENDBRANCH   5   7
ENDBRANCH   2   4
ENDBRANCH   1   2
BRANCH   1  14
ATOM     14  C   UNL     1       3.928   3.339  18.773  0.00  0.00    +0.000 C 
BRANCH  14  15
ATOM     15  C   UNL     1       2.736   3.496  19.732  0.00  0.00    +0.000 C 
ATOM     16  C   UNL     1       1.400   2.989  19.192  0.00  0.00    +0.000 C 
ATOM     17  C   UNL     1       0.518   2.994  20.434  0.00  0.00    +0.000 C 
ATOM     18  C   UNL     1       1.454   2.661  21.598  0.00  0.00    +0.000 C 
ATOM     19  C   UNL     1       2.872   2.689  21.025  0.00  0.00    +0.000 C 
ENDBRANCH  14  15
ENDBRANCH   1  14
BRANCH   1  20
ATOM     20  C   UNL     1       4.089   5.734  19.186  0.00  0.00    +0.000 C 
BRANCH  20  21
ATOM     21  C   UNL     1       2.938   6.616  18.683  0.00  0.00    +0.000 C 
ATOM     22  C   UNL     1       2.292   7.460  19.778  0.00  0.00    +0.000 C 
ATOM     23  C   UNL     1       1.513   8.511  18.996  0.00  0.00    +0.000 C 
ATOM     24  C   UNL     1       2.273   8.709  17.686  0.00  0.00    +0.000 C 
ATOM     25  C   UNL     1       3.399   7.680  17.686  0.00  0.00    +0.000 C 
ENDBRANCH  20  21
ENDBRANCH   1  20
TORSDOF 7
ENDMDL
