MODEL 1
REMARK VINA RESULT:      -7.7      0.000      0.000
REMARK  Name = 
REMARK  9 active torsions:
REMARK  status: ('A' for Active; 'I' for Inactive)
REMARK    1  A    between atoms: C_1  and  C_2
REMARK    2  A    between atoms: C_5  and  C_6
REMARK    3  A    between atoms: C_6  and  O_8
REMARK    4  A    between atoms: O_8  and  C_9
REMARK    5  A    between atoms: C_9  and  C_10
REMARK    6  A    between atoms: N_12  and  C_13
REMARK    7  A    between atoms: C_13  and  C_14
REMARK    8  A    between atoms: C_22  and  S_23
REMARK    9  A    between atoms: S_23  and  N_26
REMARK                            x       y       z     vdW  Elec       q    Type
REMARK                         _______ _______ _______ _____ _____    ______ ____
ROOT
ATOM      1  C   UNL     1       2.207   3.525  21.404  0.00  0.00    +0.000 C 
ATOM      2  C   UNL     1       2.338   4.736  20.523  0.00  0.00    +0.000 A 
ATOM      3  C   UNL     1       1.657   5.897  20.946  0.00  0.00    +0.000 A 
ATOM      4  C   UNL     1       1.650   7.063  20.181  0.00  0.00    +0.000 A 
ATOM      5  C   UNL     1       2.316   7.087  18.958  0.00  0.00    +0.000 A 
ATOM      6  C   UNL     1       2.987   5.936  18.506  0.00  0.00    +0.000 A 
ATOM      7  C   UNL     1       3.034   4.762  19.293  0.00  0.00    +0.000 A 
ENDROOT
BRANCH   7   8
ATOM      8  S   UNL     1       3.828   3.309  18.559  0.00  0.00    +0.000 S 
ATOM      9  O   UNL     1       4.209   2.427  19.637  0.00  0.00    +0.000 OA
ATOM     10  O   UNL     1       2.946   2.844  17.509  0.00  0.00    +0.000 OA
BRANCH   8  11
ATOM     11  N   UNL     1       5.275   3.874  17.811  0.00  0.00    +0.000 NA
ATOM     12  C   UNL     1       5.172   4.170  16.365  0.00  0.00    +0.000 C 
ATOM     13  C   UNL     1       6.434   4.755  15.747  0.00  0.00    +0.000 C 
ATOM     14  C   UNL     1       7.001   5.876  16.590  0.00  0.00    +0.000 C 
ATOM     15  C   UNL     1       7.356   5.304  17.945  0.00  0.00    +0.000 C 
ATOM     16  C   UNL     1       6.145   4.719  18.656  0.00  0.00    +0.000 C 
ENDBRANCH   8  11
ENDBRANCH   7   8
BRANCH   5  17
ATOM     17  C   UNL     1       2.367   8.323  18.138  0.00  0.00    +0.000 C 
ATOM     18  O   UNL     1       2.956   8.417  17.074  0.00  0.00    +0.000 OA
BRANCH  17  19
ATOM     19  O   UNL     1       1.831   9.351  18.842  0.00  0.00    +0.000 OA
BRANCH  19  20
ATOM     20  C   UNL     1       1.875  10.623  18.183  0.00  0.00    +0.000 C 
BRANCH  20  21
ATOM     21  C   UNL     1       0.864  11.543  18.868  0.00  0.00    +0.000 C 
ATOM     22  O   UNL     1       1.125  12.702  19.177  0.00  0.00    +0.000 OA
ATOM     23  N   UNL     1      -0.384  10.983  19.016  0.00  0.00    +0.000 N 
ATOM     24  H   UNL     1      -0.471   9.979  18.900  0.00  0.00    +0.000 HD
BRANCH  23  25
ATOM     25  C   UNL     1      -1.524  11.734  19.490  0.00  0.00    +0.000 C 
BRANCH  25  26
ATOM     26  C   UNL     1      -2.739  11.635  18.590  0.00  0.00    +0.000 A 
ATOM     27  C   UNL     1      -4.032  12.004  18.995  0.00  0.00    +0.000 A 
ATOM     28  C   UNL     1      -5.118  11.939  18.118  0.00  0.00    +0.000 A 
ATOM     29  C   UNL     1      -4.929  11.496  16.813  0.00  0.00    +0.000 A 
ATOM     30  C   UNL     1      -3.660  11.099  16.402  0.00  0.00    +0.000 A 
ATOM     31 CL   UNL     1      -3.431  10.509  14.802  0.00  0.00    +0.000 Cl
ATOM     32  C   UNL     1      -2.574  11.152  17.283  0.00  0.00    +0.000 A 
ENDBRANCH  25  26
ENDBRANCH  23  25
ENDBRANCH  20  21
ENDBRANCH  19  20
ENDBRANCH  17  19
ENDBRANCH   5  17
TORSDOF 8
ENDMDL
MODEL 2
REMARK VINA RESULT:      -7.7      3.287      9.051
REMARK  Name = 
REMARK  9 active torsions:
REMARK  status: ('A' for Active; 'I' for Inactive)
REMARK    1  A    between atoms: C_1  and  C_2
REMARK    2  A    between atoms: C_5  and  C_6
REMARK    3  A    between atoms: C_6  and  O_8
REMARK    4  A    between atoms: O_8  and  C_9
REMARK    5  A    between atoms: C_9  and  C_10
REMARK    6  A    between atoms: N_12  and  C_13
REMARK    7  A    between atoms: C_13  and  C_14
REMARK    8  A    between atoms: C_22  and  S_23
REMARK    9  A    between atoms: S_23  and  N_26
REMARK                            x       y       z     vdW  Elec       q    Type
REMARK                         _______ _______ _______ _____ _____    ______ ____
ROOT
ATOM      1  C   UNL     1       2.031  10.246  18.222  0.00  0.00    +0.000 C 
ATOM      2  C   UNL     1       1.951   8.921  18.927  0.00  0.00    +0.000 A 
ATOM      3  C   UNL     1       2.538   7.822  18.265  0.00  0.00    +0.000 A 
ATOM      4  C   UNL     1       2.472   6.530  18.788  0.00  0.00    +0.000 A 
ATOM      5  C   UNL     1       1.797   6.308  19.986  0.00  0.00    +0.000 A 
ATOM      6  C   UNL     1       1.189   7.385  20.656  0.00  0.00    +0.000 A 
ATOM      7  C   UNL     1       1.284   8.704  20.155  0.00  0.00    +0.000 A 
ENDROOT
BRANCH   7   8
ATOM      8  S   UNL     1       0.367   9.990  21.039  0.00  0.00    +0.000 S 
ATOM      9  O   UNL     1      -0.542   9.334  21.948  0.00  0.00    +0.000 OA
ATOM     10  O   UNL     1       1.351  10.928  21.538  0.00  0.00    +0.000 OA
BRANCH   8  11
ATOM     11  N   UNL     1      -0.580  10.811  19.855  0.00  0.00    +0.000 NA
ATOM     12  C   UNL     1      -1.276   9.944  18.880  0.00  0.00    +0.000 C 
ATOM     13  C   UNL     1      -2.179  10.684  17.904  0.00  0.00    +0.000 C 
ATOM     14  C   UNL     1      -3.064  11.686  18.613  0.00  0.00    +0.000 C 
ATOM     15  C   UNL     1      -2.167  12.698  19.293  0.00  0.00    +0.000 C 
ATOM     16  C   UNL     1      -1.243  12.050  20.313  0.00  0.00    +0.000 C 
ENDBRANCH   8  11
ENDBRANCH   7   8
BRANCH   5  17
ATOM     17  C   UNL     1       1.744   4.955  20.595  0.00  0.00    +0.000 C 
ATOM     18  O   UNL     1       2.354   4.630  21.599  0.00  0.00    +0.000 OA
BRANCH  17  19
ATOM     19  O   UNL     1       1.078   4.115  19.763  0.00  0.00    +0.000 OA
BRANCH  19  20
ATOM     20  C   UNL     1       1.512   2.749  19.810  0.00  0.00    +0.000 C 
BRANCH  20  21
ATOM     21  C   UNL     1       2.905   2.676  19.183  0.00  0.00    +0.000 C 
ATOM     22  O   UNL     1       3.838   2.078  19.711  0.00  0.00    +0.000 OA
ATOM     23  N   UNL     1       2.984   3.256  17.939  0.00  0.00    +0.000 N 
ATOM     24  H   UNL     1       2.231   3.873  17.653  0.00  0.00    +0.000 HD
BRANCH  23  25
ATOM     25  C   UNL     1       4.161   3.157  17.107  0.00  0.00    +0.000 C 
BRANCH  25  26
ATOM     26  C   UNL     1       5.021   4.405  17.111  0.00  0.00    +0.000 A 
ATOM     27  C   UNL     1       4.874   5.447  16.183  0.00  0.00    +0.000 A 
ATOM     28  C   UNL     1       5.659   6.602  16.251  0.00  0.00    +0.000 A 
ATOM     29  C   UNL     1       6.615   6.731  17.252  0.00  0.00    +0.000 A 
ATOM     30  C   UNL     1       6.794   5.696  18.165  0.00  0.00    +0.000 A 
ATOM     31 CL   UNL     1       8.006   5.835  19.379  0.00  0.00    +0.000 Cl
ATOM     32  C   UNL     1       6.018   4.535  18.090  0.00  0.00    +0.000 A 
ENDBRANCH  25  26
ENDBRANCH  23  25
ENDBRANCH  20  21
ENDBRANCH  19  20
ENDBRANCH  17  19
ENDBRANCH   5  17
TORSDOF 8
ENDMDL
MODEL 3
REMARK VINA RESULT:      -7.6      2.808      3.618
REMARK  Name = 
REMARK  9 active torsions:
REMARK  status: ('A' for Active; 'I' for Inactive)
REMARK    1  A    between atoms: C_1  and  C_2
REMARK    2  A    between atoms: C_5  and  C_6
REMARK    3  A    between atoms: C_6  and  O_8
REMARK    4  A    between atoms: O_8  and  C_9
REMARK    5  A    between atoms: C_9  and  C_10
REMARK    6  A    between atoms: N_12  and  C_13
REMARK    7  A    between atoms: C_13  and  C_14
REMARK    8  A    between atoms: C_22  and  S_23
REMARK    9  A    between atoms: S_23  and  N_26
REMARK                            x       y       z     vdW  Elec       q    Type
REMARK                         _______ _______ _______ _____ _____    ______ ____
ROOT
ATOM      1  C   UNL     1       2.374   3.069  21.401  0.00  0.00    +0.000 C 
ATOM      2  C   UNL     1       2.482   4.365  20.646  0.00  0.00    +0.000 A 
ATOM      3  C   UNL     1       1.530   5.356  20.963  0.00  0.00    +0.000 A 
ATOM      4  C   UNL     1       1.488   6.575  20.286  0.00  0.00    +0.000 A 
ATOM      5  C   UNL     1       2.394   6.822  19.258  0.00  0.00    +0.000 A 
ATOM      6  C   UNL     1       3.342   5.841  18.912  0.00  0.00    +0.000 A 
ATOM      7  C   UNL     1       3.419   4.619  19.618  0.00  0.00    +0.000 A 
ENDROOT
BRANCH   7   8
ATOM      8  S   UNL     1       4.600   3.389  19.011  0.00  0.00    +0.000 S 
ATOM      9  O   UNL     1       5.060   2.624  20.146  0.00  0.00    +0.000 OA
ATOM     10  O   UNL     1       3.965   2.726  17.891  0.00  0.00    +0.000 OA
BRANCH   8  11
ATOM     11  N   UNL     1       5.947   4.272  18.395  0.00  0.00    +0.000 NA
ATOM     12  C   UNL     1       5.914   4.558  16.945  0.00  0.00    +0.000 C 
ATOM     13  C   UNL     1       7.065   5.418  16.442  0.00  0.00    +0.000 C 
ATOM     14  C   UNL     1       7.287   6.625  17.326  0.00  0.00    +0.000 C 
ATOM     15  C   UNL     1       7.636   6.128  18.713  0.00  0.00    +0.000 C 
ATOM     16  C   UNL     1       6.525   5.277  19.312  0.00  0.00    +0.000 C 
ENDBRANCH   8  11
ENDBRANCH   7   8
BRANCH   5  17
ATOM     17  C   UNL     1       2.408   8.124  18.545  0.00  0.00    +0.000 C 
ATOM     18  O   UNL     1       3.212   8.424  17.679  0.00  0.00    +0.000 OA
BRANCH  17  19
ATOM     19  O   UNL     1       1.527   8.969  19.138  0.00  0.00    +0.000 OA
BRANCH  19  20
ATOM     20  C   UNL     1       0.756   9.770  18.233  0.00  0.00    +0.000 C 
BRANCH  20  21
ATOM     21  C   UNL     1       0.044  10.849  19.050  0.00  0.00    +0.000 C 
ATOM     22  O   UNL     1      -0.592  10.597  20.069  0.00  0.00    +0.000 OA
ATOM     23  N   UNL     1       0.263  12.127  18.591  0.00  0.00    +0.000 N 
ATOM     24  H   UNL     1       0.646  12.238  17.658  0.00  0.00    +0.000 HD
BRANCH  23  25
ATOM     25  C   UNL     1      -0.182  13.299  19.308  0.00  0.00    +0.000 C 
BRANCH  25  26
ATOM     26  C   UNL     1       0.501  14.580  18.872  0.00  0.00    +0.000 A 
ATOM     27  C   UNL     1      -0.177  15.798  18.703  0.00  0.00    +0.000 A 
ATOM     28  C   UNL     1       0.500  16.966  18.343  0.00  0.00    +0.000 A 
ATOM     29  C   UNL     1       1.875  16.935  18.138  0.00  0.00    +0.000 A 
ATOM     30  C   UNL     1       2.560  15.731  18.273  0.00  0.00    +0.000 A 
ATOM     31 CL   UNL     1       4.254  15.680  17.978  0.00  0.00    +0.000 Cl
ATOM     32  C   UNL     1       1.881  14.558  18.621  0.00  0.00    +0.000 A 
ENDBRANCH  25  26
ENDBRANCH  23  25
ENDBRANCH  20  21
ENDBRANCH  19  20
ENDBRANCH  17  19
ENDBRANCH   5  17
TORSDOF 8
ENDMDL
MODEL 4
REMARK VINA RESULT:      -7.6      2.706      3.746
REMARK  Name = 
REMARK  9 active torsions:
REMARK  status: ('A' for Active; 'I' for Inactive)
REMARK    1  A    between atoms: C_1  and  C_2
REMARK    2  A    between atoms: C_5  and  C_6
REMARK    3  A    between atoms: C_6  and  O_8
REMARK    4  A    between atoms: O_8  and  C_9
REMARK    5  A    between atoms: C_9  and  C_10
REMARK    6  A    between atoms: N_12  and  C_13
REMARK    7  A    between atoms: C_13  and  C_14
REMARK    8  A    between atoms: C_22  and  S_23
REMARK    9  A    between atoms: S_23  and  N_26
REMARK                            x       y       z     vdW  Elec       q    Type
REMARK                         _______ _______ _______ _____ _____    ______ ____
ROOT
ATOM      1  C   UNL     1       2.337   3.224  21.280  0.00  0.00    +0.000 C 
ATOM      2  C   UNL     1       2.411   4.540  20.558  0.00  0.00    +0.000 A 
ATOM      3  C   UNL     1       1.527   5.548  20.998  0.00  0.00    +0.000 A 
ATOM      4  C   UNL     1       1.457   6.789  20.367  0.00  0.00    +0.000 A 
ATOM      5  C   UNL     1       2.265   7.045  19.261  0.00  0.00    +0.000 A 
ATOM      6  C   UNL     1       3.142   6.049  18.793  0.00  0.00    +0.000 A 
ATOM      7  C   UNL     1       3.250   4.803  19.450  0.00  0.00    +0.000 A 
ENDROOT
BRANCH   7   8
ATOM      8  S   UNL     1       4.325   3.560  18.690  0.00  0.00    +0.000 S 
ATOM      9  O   UNL     1       5.324   3.190  19.665  0.00  0.00    +0.000 OA
ATOM     10  O   UNL     1       3.454   2.556  18.117  0.00  0.00    +0.000 OA
BRANCH   8  11
ATOM     11  N   UNL     1       5.134   4.349  17.389  0.00  0.00    +0.000 NA
ATOM     12  C   UNL     1       6.569   4.635  17.607  0.00  0.00    +0.000 C 
ATOM     13  C   UNL     1       7.283   5.247  16.410  0.00  0.00    +0.000 C 
ATOM     14  C   UNL     1       6.968   4.502  15.132  0.00  0.00    +0.000 C 
ATOM     15  C   UNL     1       5.476   4.596  14.895  0.00  0.00    +0.000 C 
ATOM     16  C   UNL     1       4.675   3.980  16.033  0.00  0.00    +0.000 C 
ENDBRANCH   8  11
ENDBRANCH   7   8
BRANCH   5  17
ATOM     17  C   UNL     1       2.249   8.369  18.591  0.00  0.00    +0.000 C 
ATOM     18  O   UNL     1       3.043   8.713  17.731  0.00  0.00    +0.000 OA
BRANCH  17  19
ATOM     19  O   UNL     1       1.355   9.176  19.214  0.00  0.00    +0.000 OA
BRANCH  19  20
ATOM     20  C   UNL     1       0.382   9.780  18.352  0.00  0.00    +0.000 C 
BRANCH  20  21
ATOM     21  C   UNL     1      -0.218  10.980  19.086  0.00  0.00    +0.000 C 
ATOM     22  O   UNL     1      -0.631  10.912  20.239  0.00  0.00    +0.000 OA
ATOM     23  N   UNL     1      -0.160  12.153  18.370  0.00  0.00    +0.000 N 
ATOM     24  H   UNL     1       0.030  12.094  17.375  0.00  0.00    +0.000 HD
BRANCH  23  25
ATOM     25  C   UNL     1      -0.522  13.431  18.938  0.00  0.00    +0.000 C 
BRANCH  25  26
ATOM     26  C   UNL     1       0.501  14.522  18.694  0.00  0.00    +0.000 A 
ATOM     27  C   UNL     1       0.184  15.889  18.677  0.00  0.00    +0.000 A 
ATOM     28  C   UNL     1       1.167  16.865  18.493  0.00  0.00    +0.000 A 
ATOM     29  C   UNL     1       2.494  16.487  18.315  0.00  0.00    +0.000 A 
ATOM     30  C   UNL     1       2.824  15.134  18.301  0.00  0.00    +0.000 A 
ATOM     31 CL   UNL     1       4.457  14.662  18.038  0.00  0.00    +0.000 Cl
ATOM     32  C   UNL     1       1.838  14.157  18.473  0.00  0.00    +0.000 A 
ENDBRANCH  25  26
ENDBRANCH  23  25
ENDBRANCH  20  21
ENDBRANCH  19  20
ENDBRANCH  17  19
ENDBRANCH   5  17
TORSDOF 8
ENDMDL
MODEL 5
REMARK VINA RESULT:      -7.5      0.822      1.248
REMARK  Name = 
REMARK  9 active torsions:
REMARK  status: ('A' for Active; 'I' for Inactive)
REMARK    1  A    between atoms: C_1  and  C_2
REMARK    2  A    between atoms: C_5  and  C_6
REMARK    3  A    between atoms: C_6  and  O_8
REMARK    4  A    between atoms: O_8  and  C_9
REMARK    5  A    between atoms: C_9  and  C_10
REMARK    6  A    between atoms: N_12  and  C_13
REMARK    7  A    between atoms: C_13  and  C_14
REMARK    8  A    between atoms: C_22  and  S_23
REMARK    9  A    between atoms: S_23  and  N_26
REMARK                            x       y       z     vdW  Elec       q    Type
REMARK                         _______ _______ _______ _____ _____    ______ ____
ROOT
ATOM      1  C   UNL     1       2.270   4.354  21.290  0.00  0.00    +0.000 C 
ATOM      2  C   UNL     1       2.285   5.570  20.407  0.00  0.00    +0.000 A 
ATOM      3  C   UNL     1       1.575   6.695  20.876  0.00  0.00    +0.000 A 
ATOM      4  C   UNL     1       1.462   7.860  20.118  0.00  0.00    +0.000 A 
ATOM      5  C   UNL     1       2.048   7.918  18.856  0.00  0.00    +0.000 A 
ATOM      6  C   UNL     1       2.746   6.803  18.358  0.00  0.00    +0.000 A 
ATOM      7  C   UNL     1       2.901   5.632  19.135  0.00  0.00    +0.000 A 
ENDROOT
BRANCH   7   8
ATOM      8  S   UNL     1       3.719   4.222  18.348  0.00  0.00    +0.000 S 
ATOM      9  O   UNL     1       4.518   3.561  19.353  0.00  0.00    +0.000 OA
ATOM     10  O   UNL     1       2.690   3.494  17.636  0.00  0.00    +0.000 OA
BRANCH   8  11
ATOM     11  N   UNL     1       4.797   4.880  17.174  0.00  0.00    +0.000 NA
ATOM     12  C   UNL     1       6.060   5.434  17.707  0.00  0.00    +0.000 C 
ATOM     13  C   UNL     1       7.036   5.923  16.645  0.00  0.00    +0.000 C 
ATOM     14  C   UNL     1       7.200   4.913  15.531  0.00  0.00    +0.000 C 
ATOM     15  C   UNL     1       5.848   4.715  14.880  0.00  0.00    +0.000 C 
ATOM     16  C   UNL     1       4.809   4.196  15.864  0.00  0.00    +0.000 C 
ENDBRANCH   8  11
ENDBRANCH   7   8
BRANCH   5  17
ATOM     17  C   UNL     1       1.986   9.156  18.039  0.00  0.00    +0.000 C 
ATOM     18  O   UNL     1       2.740   9.407  17.114  0.00  0.00    +0.000 OA
BRANCH  17  19
ATOM     19  O   UNL     1       1.104  10.020  18.601  0.00  0.00    +0.000 OA
BRANCH  19  20
ATOM     20  C   UNL     1       1.575  11.369  18.723  0.00  0.00    +0.000 C 
BRANCH  20  21
ATOM     21  C   UNL     1       0.393  12.242  19.149  0.00  0.00    +0.000 C 
ATOM     22  O   UNL     1       0.386  13.461  19.008  0.00  0.00    +0.000 OA
ATOM     23  N   UNL     1      -0.687  11.526  19.611  0.00  0.00    +0.000 N 
ATOM     24  H   UNL     1      -0.541  10.553  19.860  0.00  0.00    +0.000 HD
BRANCH  23  25
ATOM     25  C   UNL     1      -1.958  12.143  19.912  0.00  0.00    +0.000 C 
BRANCH  25  26
ATOM     26  C   UNL     1      -3.030  11.872  18.875  0.00  0.00    +0.000 A 
ATOM     27  C   UNL     1      -4.399  12.076  19.108  0.00  0.00    +0.000 A 
ATOM     28  C   UNL     1      -5.351  11.857  18.108  0.00  0.00    +0.000 A 
ATOM     29  C   UNL     1      -4.947  11.422  16.851  0.00  0.00    +0.000 A 
ATOM     30  C   UNL     1      -3.596  11.188  16.609  0.00  0.00    +0.000 A 
ATOM     31 CL   UNL     1      -3.097  10.608  15.068  0.00  0.00    +0.000 Cl
ATOM     32  C   UNL     1      -2.644  11.395  17.613  0.00  0.00    +0.000 A 
ENDBRANCH  25  26
ENDBRANCH  23  25
ENDBRANCH  20  21
ENDBRANCH  19  20
ENDBRANCH  17  19
ENDBRANCH   5  17
TORSDOF 8
ENDMDL
MODEL 6
REMARK VINA RESULT:      -7.4      1.058      1.086
REMARK  Name = 
REMARK  9 active torsions:
REMARK  status: ('A' for Active; 'I' for Inactive)
REMARK    1  A    between atoms: C_1  and  C_2
REMARK    2  A    between atoms: C_5  and  C_6
REMARK    3  A    between atoms: C_6  and  O_8
REMARK    4  A    between atoms: O_8  and  C_9
REMARK    5  A    between atoms: C_9  and  C_10
REMARK    6  A    between atoms: N_12  and  C_13
REMARK    7  A    between atoms: C_13  and  C_14
REMARK    8  A    between atoms: C_22  and  S_23
REMARK    9  A    between atoms: S_23  and  N_26
REMARK                            x       y       z     vdW  Elec       q    Type
REMARK                         _______ _______ _______ _____ _____    ______ ____
ROOT
ATOM      1  C   UNL     1       2.779   2.666  20.801  0.00  0.00    +0.000 C 
ATOM      2  C   UNL     1       2.642   4.048  20.226  0.00  0.00    +0.000 A 
ATOM      3  C   UNL     1       2.135   5.040  21.091  0.00  0.00    +0.000 A 
ATOM      4  C   UNL     1       1.903   6.345  20.654  0.00  0.00    +0.000 A 
ATOM      5  C   UNL     1       2.160   6.681  19.328  0.00  0.00    +0.000 A 
ATOM      6  C   UNL     1       2.649   5.704  18.441  0.00  0.00    +0.000 A 
ATOM      7  C   UNL     1       2.925   4.390  18.883  0.00  0.00    +0.000 A 
ENDROOT
BRANCH   7   8
ATOM      8  S   UNL     1       3.442   3.190  17.630  0.00  0.00    +0.000 S 
ATOM      9  O   UNL     1       3.586   1.910  18.282  0.00  0.00    +0.000 OA
ATOM     10  O   UNL     1       2.533   3.344  16.513  0.00  0.00    +0.000 OA
BRANCH   8  11
ATOM     11  N   UNL     1       5.005   3.685  17.100  0.00  0.00    +0.000 NA
ATOM     12  C   UNL     1       5.068   4.250  15.734  0.00  0.00    +0.000 C 
ATOM     13  C   UNL     1       6.440   4.766  15.323  0.00  0.00    +0.000 C 
ATOM     14  C   UNL     1       7.056   5.630  16.400  0.00  0.00    +0.000 C 
ATOM     15  C   UNL     1       7.220   4.780  17.642  0.00  0.00    +0.000 C 
ATOM     16  C   UNL     1       5.890   4.240  18.146  0.00  0.00    +0.000 C 
ENDBRANCH   8  11
ENDBRANCH   7   8
BRANCH   5  17
ATOM     17  C   UNL     1       1.966   8.069  18.838  0.00  0.00    +0.000 C 
ATOM     18  O   UNL     1       2.347   8.474  17.753  0.00  0.00    +0.000 OA
BRANCH  17  19
ATOM     19  O   UNL     1       1.485   8.837  19.848  0.00  0.00    +0.000 OA
BRANCH  19  20
ATOM     20  C   UNL     1       1.238  10.206  19.501  0.00  0.00    +0.000 C 
BRANCH  20  21
ATOM     21  C   UNL     1      -0.135  10.591  20.052  0.00  0.00    +0.000 C 
ATOM     22  O   UNL     1      -0.588  10.120  21.092  0.00  0.00    +0.000 OA
ATOM     23  N   UNL     1      -0.767  11.577  19.330  0.00  0.00    +0.000 N 
ATOM     24  H   UNL     1      -0.414  11.785  18.401  0.00  0.00    +0.000 HD
BRANCH  23  25
ATOM     25  C   UNL     1      -1.995  12.198  19.768  0.00  0.00    +0.000 C 
BRANCH  25  26
ATOM     26  C   UNL     1      -3.174  11.933  18.854  0.00  0.00    +0.000 A 
ATOM     27  C   UNL     1      -4.505  12.195  19.214  0.00  0.00    +0.000 A 
ATOM     28  C   UNL     1      -5.560  11.978  18.323  0.00  0.00    +0.000 A 
ATOM     29  C   UNL     1      -5.300  11.486  17.049  0.00  0.00    +0.000 A 
ATOM     30  C   UNL     1      -3.989  11.193  16.683  0.00  0.00    +0.000 A 
ATOM     31 CL   UNL     1      -3.669  10.543  15.122  0.00  0.00    +0.000 Cl
ATOM     32  C   UNL     1      -2.934  11.398  17.579  0.00  0.00    +0.000 A 
ENDBRANCH  25  26
ENDBRANCH  23  25
ENDBRANCH  20  21
ENDBRANCH  19  20
ENDBRANCH  17  19
ENDBRANCH   5  17
TORSDOF 8
ENDMDL
MODEL 7
REMARK VINA RESULT:      -7.4      2.303      2.874
REMARK  Name = 
REMARK  9 active torsions:
REMARK  status: ('A' for Active; 'I' for Inactive)
REMARK    1  A    between atoms: C_1  and  C_2
REMARK    2  A    between atoms: C_5  and  C_6
REMARK    3  A    between atoms: C_6  and  O_8
REMARK    4  A    between atoms: O_8  and  C_9
REMARK    5  A    between atoms: C_9  and  C_10
REMARK    6  A    between atoms: N_12  and  C_13
REMARK    7  A    between atoms: C_13  and  C_14
REMARK    8  A    between atoms: C_22  and  S_23
REMARK    9  A    between atoms: S_23  and  N_26
REMARK                            x       y       z     vdW  Elec       q    Type
REMARK                         _______ _______ _______ _____ _____    ______ ____
ROOT
ATOM      1  C   UNL     1       2.389   2.890  21.175  0.00  0.00    +0.000 C 
ATOM      2  C   UNL     1       2.419   4.255  20.545  0.00  0.00    +0.000 A 
ATOM      3  C   UNL     1       1.493   5.196  21.043  0.00  0.00    +0.000 A 
ATOM      4  C   UNL     1       1.381   6.474  20.497  0.00  0.00    +0.000 A 
ATOM      5  C   UNL     1       2.189   6.835  19.420  0.00  0.00    +0.000 A 
ATOM      6  C   UNL     1       3.107   5.907  18.895  0.00  0.00    +0.000 A 
ATOM      7  C   UNL     1       3.257   4.623  19.467  0.00  0.00    +0.000 A 
ENDROOT
BRANCH   7   8
ATOM      8  S   UNL     1       4.385   3.477  18.637  0.00  0.00    +0.000 S 
ATOM      9  O   UNL     1       5.402   3.096  19.589  0.00  0.00    +0.000 OA
ATOM     10  O   UNL     1       3.558   2.469  18.007  0.00  0.00    +0.000 OA
BRANCH   8  11
ATOM     11  N   UNL     1       5.155   4.376  17.384  0.00  0.00    +0.000 NA
ATOM     12  C   UNL     1       6.530   4.833  17.677  0.00  0.00    +0.000 C 
ATOM     13  C   UNL     1       7.223   5.543  16.522  0.00  0.00    +0.000 C 
ATOM     14  C   UNL     1       7.066   4.781  15.225  0.00  0.00    +0.000 C 
ATOM     15  C   UNL     1       5.588   4.694  14.912  0.00  0.00    +0.000 C 
ATOM     16  C   UNL     1       4.813   3.970  16.004  0.00  0.00    +0.000 C 
ENDBRANCH   8  11
ENDBRANCH   7   8
BRANCH   5  17
ATOM     17  C   UNL     1       2.128   8.200  18.841  0.00  0.00    +0.000 C 
ATOM     18  O   UNL     1       2.570   8.501  17.745  0.00  0.00    +0.000 OA
BRANCH  17  19
ATOM     19  O   UNL     1       1.689   9.069  19.787  0.00  0.00    +0.000 OA
BRANCH  19  20
ATOM     20  C   UNL     1       0.491   9.778  19.446  0.00  0.00    +0.000 C 
BRANCH  20  21
ATOM     21  C   UNL     1       0.476  11.084  20.240  0.00  0.00    +0.000 C 
ATOM     22  O   UNL     1       1.233  12.018  19.994  0.00  0.00    +0.000 OA
ATOM     23  N   UNL     1      -0.523  11.147  21.185  0.00  0.00    +0.000 N 
ATOM     24  H   UNL     1      -0.986  10.283  21.445  0.00  0.00    +0.000 HD
BRANCH  23  25
ATOM     25  C   UNL     1      -0.815  12.350  21.930  0.00  0.00    +0.000 C 
BRANCH  25  26
ATOM     26  C   UNL     1      -2.287  12.535  22.240  0.00  0.00    +0.000 A 
ATOM     27  C   UNL     1      -2.827  12.405  23.529  0.00  0.00    +0.000 A 
ATOM     28  C   UNL     1      -4.183  12.629  23.779  0.00  0.00    +0.000 A 
ATOM     29  C   UNL     1      -5.030  12.985  22.735  0.00  0.00    +0.000 A 
ATOM     30  C   UNL     1      -4.518  13.093  21.445  0.00  0.00    +0.000 A 
ATOM     31 CL   UNL     1      -5.572  13.491  20.144  0.00  0.00    +0.000 Cl
ATOM     32  C   UNL     1      -3.163  12.856  21.192  0.00  0.00    +0.000 A 
ENDBRANCH  25  26
ENDBRANCH  23  25
ENDBRANCH  20  21
ENDBRANCH  19  20
ENDBRANCH  17  19
ENDBRANCH   5  17
TORSDOF 8
ENDMDL
MODEL 8
REMARK VINA RESULT:      -7.4      3.340      9.126
REMARK  Name = 
REMARK  9 active torsions:
REMARK  status: ('A' for Active; 'I' for Inactive)
REMARK    1  A    between atoms: C_1  and  C_2
REMARK    2  A    between atoms: C_5  and  C_6
REMARK    3  A    between atoms: C_6  and  O_8
REMARK    4  A    between atoms: O_8  and  C_9
REMARK    5  A    between atoms: C_9  and  C_10
REMARK    6  A    between atoms: N_12  and  C_13
REMARK    7  A    between atoms: C_13  and  C_14
REMARK    8  A    between atoms: C_22  and  S_23
REMARK    9  A    between atoms: S_23  and  N_26
REMARK                            x       y       z     vdW  Elec       q    Type
REMARK                         _______ _______ _______ _____ _____    ______ ____
ROOT
ATOM      1  C   UNL     1       2.113   9.660  18.237  0.00  0.00    +0.000 C 
ATOM      2  C   UNL     1       2.047   8.338  18.949  0.00  0.00    +0.000 A 
ATOM      3  C   UNL     1       2.543   7.221  18.244  0.00  0.00    +0.000 A 
ATOM      4  C   UNL     1       2.478   5.932  18.773  0.00  0.00    +0.000 A 
ATOM      5  C   UNL     1       1.896   5.730  20.022  0.00  0.00    +0.000 A 
ATOM      6  C   UNL     1       1.378   6.826  20.736  0.00  0.00    +0.000 A 
ATOM      7  C   UNL     1       1.475   8.142  20.227  0.00  0.00    +0.000 A 
ENDROOT
BRANCH   7   8
ATOM      8  S   UNL     1       0.674   9.456  21.179  0.00  0.00    +0.000 S 
ATOM      9  O   UNL     1      -0.528   8.906  21.761  0.00  0.00    +0.000 OA
ATOM     10  O   UNL     1       1.697  10.035  22.024  0.00  0.00    +0.000 OA
BRANCH   8  11
ATOM     11  N   UNL     1       0.199  10.660  20.040  0.00  0.00    +0.000 NA
ATOM     12  C   UNL     1      -1.103  10.434  19.377  0.00  0.00    +0.000 C 
ATOM     13  C   UNL     1      -1.545  11.555  18.446  0.00  0.00    +0.000 C 
ATOM     14  C   UNL     1      -1.385  12.912  19.094  0.00  0.00    +0.000 C 
ATOM     15  C   UNL     1       0.082  13.107  19.411  0.00  0.00    +0.000 C 
ATOM     16  C   UNL     1       0.608  12.043  20.363  0.00  0.00    +0.000 C 
ENDBRANCH   8  11
ENDBRANCH   7   8
BRANCH   5  17
ATOM     17  C   UNL     1       1.848   4.380  20.636  0.00  0.00    +0.000 C 
ATOM     18  O   UNL     1       2.274   4.116  21.748  0.00  0.00    +0.000 OA
BRANCH  17  19
ATOM     19  O   UNL     1       1.443   3.479  19.706  0.00  0.00    +0.000 OA
BRANCH  19  20
ATOM     20  C   UNL     1       2.047   2.183  19.817  0.00  0.00    +0.000 C 
BRANCH  20  21
ATOM     21  C   UNL     1       3.065   2.041  18.685  0.00  0.00    +0.000 C 
ATOM     22  O   UNL     1       3.744   1.031  18.528  0.00  0.00    +0.000 OA
ATOM     23  N   UNL     1       3.076   3.104  17.812  0.00  0.00    +0.000 N 
ATOM     24  H   UNL     1       2.621   3.963  18.104  0.00  0.00    +0.000 HD
BRANCH  23  25
ATOM     25  C   UNL     1       3.845   3.100  16.589  0.00  0.00    +0.000 C 
BRANCH  25  26
ATOM     26  C   UNL     1       5.051   4.016  16.621  0.00  0.00    +0.000 A 
ATOM     27  C   UNL     1       5.659   4.533  15.466  0.00  0.00    +0.000 A 
ATOM     28  C   UNL     1       6.743   5.412  15.542  0.00  0.00    +0.000 A 
ATOM     29  C   UNL     1       7.246   5.786  16.784  0.00  0.00    +0.000 A 
ATOM     30  C   UNL     1       6.674   5.262  17.940  0.00  0.00    +0.000 A 
ATOM     31 CL   UNL     1       7.320   5.689  19.476  0.00  0.00    +0.000 Cl
ATOM     32  C   UNL     1       5.597   4.372  17.864  0.00  0.00    +0.000 A 
ENDBRANCH  25  26
ENDBRANCH  23  25
ENDBRANCH  20  21
ENDBRANCH  19  20
ENDBRANCH  17  19
ENDBRANCH   5  17
TORSDOF 8
ENDMDL
MODEL 9
REMARK VINA RESULT:      -7.3      2.815      3.683
REMARK  Name = 
REMARK  9 active torsions:
REMARK  status: ('A' for Active; 'I' for Inactive)
REMARK    1  A    between atoms: C_1  and  C_2
REMARK    2  A    between atoms: C_5  and  C_6
REMARK    3  A    between atoms: C_6  and  O_8
REMARK    4  A    between atoms: O_8  and  C_9
REMARK    5  A    between atoms: C_9  and  C_10
REMARK    6  A    between atoms: N_12  and  C_13
REMARK    7  A    between atoms: C_13  and  C_14
REMARK    8  A    between atoms: C_22  and  S_23
REMARK    9  A    between atoms: S_23  and  N_26
REMARK                            x       y       z     vdW  Elec       q    Type
REMARK                         _______ _______ _______ _____ _____    ______ ____
ROOT
ATOM      1  C   UNL     1       2.365   3.261  21.507  0.00  0.00    +0.000 C 
ATOM      2  C   UNL     1       2.479   4.491  20.650  0.00  0.00    +0.000 A 
ATOM      3  C   UNL     1       1.539   5.514  20.893  0.00  0.00    +0.000 A 
ATOM      4  C   UNL     1       1.503   6.675  20.121  0.00  0.00    +0.000 A 
ATOM      5  C   UNL     1       2.404   6.830  19.070  0.00  0.00    +0.000 A 
ATOM      6  C   UNL     1       3.339   5.815  18.797  0.00  0.00    +0.000 A 
ATOM      7  C   UNL     1       3.410   4.653  19.598  0.00  0.00    +0.000 A 
ENDROOT
BRANCH   7   8
ATOM      8  S   UNL     1       4.575   3.366  19.083  0.00  0.00    +0.000 S 
ATOM      9  O   UNL     1       4.981   2.643  20.265  0.00  0.00    +0.000 OA
ATOM     10  O   UNL     1       3.954   2.668  17.976  0.00  0.00    +0.000 OA
BRANCH   8  11
ATOM     11  N   UNL     1       5.962   4.184  18.468  0.00  0.00    +0.000 NA
ATOM     12  C   UNL     1       6.009   4.346  16.999  0.00  0.00    +0.000 C 
ATOM     13  C   UNL     1       7.195   5.153  16.487  0.00  0.00    +0.000 C 
ATOM     14  C   UNL     1       7.383   6.429  17.276  0.00  0.00    +0.000 C 
ATOM     15  C   UNL     1       7.651   6.050  18.717  0.00  0.00    +0.000 C 
ATOM     16  C   UNL     1       6.501   5.261  19.325  0.00  0.00    +0.000 C 
ENDBRANCH   8  11
ENDBRANCH   7   8
BRANCH   5  17
ATOM     17  C   UNL     1       2.424   8.070  18.255  0.00  0.00    +0.000 C 
ATOM     18  O   UNL     1       3.158   8.251  17.298  0.00  0.00    +0.000 OA
BRANCH  17  19
ATOM     19  O   UNL     1       1.654   9.013  18.854  0.00  0.00    +0.000 OA
BRANCH  19  20
ATOM     20  C   UNL     1       1.690  10.306  18.236  0.00  0.00    +0.000 C 
BRANCH  20  21
ATOM     21  C   UNL     1       0.759  11.229  19.023  0.00  0.00    +0.000 C 
ATOM     22  O   UNL     1       0.503  11.057  20.211  0.00  0.00    +0.000 OA
ATOM     23  N   UNL     1       0.317  12.315  18.303  0.00  0.00    +0.000 N 
ATOM     24  H   UNL     1       0.426  12.293  17.294  0.00  0.00    +0.000 HD
BRANCH  23  25
ATOM     25  C   UNL     1      -0.438  13.391  18.901  0.00  0.00    +0.000 C 
BRANCH  25  26
ATOM     26  C   UNL     1       0.300  14.715  18.930  0.00  0.00    +0.000 A 
ATOM     27  C   UNL     1       1.664  14.845  18.624  0.00  0.00    +0.000 A 
ATOM     28  C   UNL     1       2.295  16.092  18.619  0.00  0.00    +0.000 A 
ATOM     29  C   UNL     1       1.570  17.237  18.928  0.00  0.00    +0.000 A 
ATOM     30  C   UNL     1       0.222  17.125  19.261  0.00  0.00    +0.000 A 
ATOM     31 CL   UNL     1      -0.668  18.535  19.685  0.00  0.00    +0.000 Cl
ATOM     32  C   UNL     1      -0.407  15.875  19.278  0.00  0.00    +0.000 A 
ENDBRANCH  25  26
ENDBRANCH  23  25
ENDBRANCH  20  21
ENDBRANCH  19  20
ENDBRANCH  17  19
ENDBRANCH   5  17
TORSDOF 8
ENDMDL
