MODEL 1
REMARK VINA RESULT:      -8.9      0.000      0.000
REMARK  Name = 
REMARK  8 active torsions:
REMARK  status: ('A' for Active; 'I' for Inactive)
REMARK    1  A    between atoms: C_2  and  C_3
REMARK    2  A    between atoms: C_3  and  N_4
REMARK    3  A    between atoms: N_4  and  C_5
REMARK    4  A    between atoms: C_12  and  C_13
REMARK    5  A    between atoms: N_19  and  C_20
REMARK    6  A    between atoms: N_22  and  C_23
REMARK    7  A    between atoms: C_26  and  O_27
REMARK    8  A    between atoms: C_26  and  C_28
REMARK                            x       y       z     vdW  Elec       q    Type
REMARK                         _______ _______ _______ _____ _____    ______ ____
ROOT
ATOM      1  O   UNL     1       7.442   4.887  15.579  0.00  0.00    +0.000 OA
ATOM      2  C   UNL     1       7.236   5.514  16.610  0.00  0.00    +0.000 C 
ATOM      3  N   UNL     1       7.560   6.852  16.647  0.00  0.00    +0.000 N 
ATOM      4  H   UNL     1       7.956   7.172  15.770  0.00  0.00    +0.000 HD
ENDROOT
BRANCH   3   5
ATOM      5  C   UNL     1       7.380   7.793  17.771  0.00  0.00    +0.000 C 
ATOM      6  C   UNL     1       8.578   7.863  18.761  0.00  0.00    +0.000 C 
ATOM      7  N   UNL     1       8.350   9.317  18.836  0.00  0.00    +0.000 NA
ATOM      8  C   UNL     1       7.736   9.281  17.498  0.00  0.00    +0.000 C 
BRANCH   7   9
ATOM      9  C   UNL     1       9.576  10.128  18.928  0.00  0.00    +0.000 C 
ATOM     10  C   UNL     1       9.874  11.117  17.781  0.00  0.00    +0.000 C 
ATOM     11  C   UNL     1      11.044  12.044  18.096  0.00  0.00    +0.000 C 
ATOM     12  C   UNL     1      10.783  12.862  19.381  0.00  0.00    +0.000 C 
ATOM     13  C   UNL     1      10.667  11.838  20.531  0.00  0.00    +0.000 C 
ATOM     14  C   UNL     1       9.575  10.782  20.325  0.00  0.00    +0.000 C 
BRANCH  12  15
ATOM     15  C   UNL     1       9.593  13.817  19.199  0.00  0.00    +0.000 A 
ATOM     16  C   UNL     1       9.436  14.624  18.057  0.00  0.00    +0.000 A 
ATOM     17  C   UNL     1       8.523  15.679  18.024  0.00  0.00    +0.000 A 
ATOM     18  C   UNL     1       7.660  15.886  19.092  0.00  0.00    +0.000 A 
ATOM     19  C   UNL     1       7.702  15.021  20.180  0.00  0.00    +0.000 A 
ATOM     20  C   UNL     1       8.659  14.003  20.238  0.00  0.00    +0.000 A 
ENDBRANCH  12  15
BRANCH  12  21
ATOM     21  O   UNL     1      11.963  13.630  19.644  0.00  0.00    +0.000 OA
ATOM     22  H   UNL     1      12.724  13.027  19.637  0.00  0.00    +0.000 HD
ENDBRANCH  12  21
ENDBRANCH   7   9
ENDBRANCH   3   5
BRANCH   2  23
ATOM     23  C   UNL     1       6.629   4.885  17.866  0.00  0.00    +0.000 C 
BRANCH  23  24
ATOM     24  N   UNL     1       5.493   4.016  17.528  0.00  0.00    +0.000 N 
ATOM     25  H   UNL     1       5.806   3.122  17.155  0.00  0.00    +0.000 HD
BRANCH  24  26
ATOM     26  C   UNL     1       4.650   3.761  18.639  0.00  0.00    +0.000 A 
ATOM     27  N   UNL     1       4.843   2.627  19.337  0.00  0.00    +0.000 NA
ATOM     28  C   UNL     1       4.064   2.424  20.387  0.00  0.00    +0.000 A 
ATOM     29  N   UNL     1       3.116   3.254  20.842  0.00  0.00    +0.000 NA
ATOM     30  C   UNL     1       2.931   4.387  20.157  0.00  0.00    +0.000 A 
ATOM     31  C   UNL     1       1.978   5.301  20.596  0.00  0.00    +0.000 A 
ATOM     32  C   UNL     1       1.741   6.514  19.935  0.00  0.00    +0.000 A 
ATOM     33  C   UNL     1       2.451   6.820  18.775  0.00  0.00    +0.000 A 
ATOM     34  C   UNL     1       3.383   5.891  18.297  0.00  0.00    +0.000 A 
ATOM     35  C   UNL     1       3.664   4.689  18.996  0.00  0.00    +0.000 A 
BRANCH  33  36
ATOM     36  C   UNL     1       2.277   8.135  18.045  0.00  0.00    +0.000 C 
ATOM     37  F   UNL     1       3.203   8.340  17.064  0.00  0.00    +0.000 F 
ATOM     38  F   UNL     1       1.065   8.223  17.438  0.00  0.00    +0.000 F 
ATOM     39  F   UNL     1       2.359   9.204  18.877  0.00  0.00    +0.000 F 
ENDBRANCH  33  36
ENDBRANCH  24  26
ENDBRANCH  23  24
ENDBRANCH   2  23
TORSDOF 8
ENDMDL
MODEL 2
REMARK VINA RESULT:      -8.7      2.427      3.212
REMARK  Name = 
REMARK  8 active torsions:
REMARK  status: ('A' for Active; 'I' for Inactive)
REMARK    1  A    between atoms: C_2  and  C_3
REMARK    2  A    between atoms: C_3  and  N_4
REMARK    3  A    between atoms: N_4  and  C_5
REMARK    4  A    between atoms: C_12  and  C_13
REMARK    5  A    between atoms: N_19  and  C_20
REMARK    6  A    between atoms: N_22  and  C_23
REMARK    7  A    between atoms: C_26  and  O_27
REMARK    8  A    between atoms: C_26  and  C_28
REMARK                            x       y       z     vdW  Elec       q    Type
REMARK                         _______ _______ _______ _____ _____    ______ ____
ROOT
ATOM      1  O   UNL     1       7.445   4.990  15.772  0.00  0.00    +0.000 OA
ATOM      2  C   UNL     1       7.087   5.778  16.639  0.00  0.00    +0.000 C 
ATOM      3  N   UNL     1       7.806   6.938  16.818  0.00  0.00    +0.000 N 
ATOM      4  H   UNL     1       8.592   7.001  16.178  0.00  0.00    +0.000 HD
ENDROOT
BRANCH   3   5
ATOM      5  C   UNL     1       7.542   8.024  17.782  0.00  0.00    +0.000 C 
ATOM      6  C   UNL     1       8.618   8.185  18.895  0.00  0.00    +0.000 C 
ATOM      7  N   UNL     1       8.454   9.643  18.757  0.00  0.00    +0.000 NA
ATOM      8  C   UNL     1       7.999   9.451  17.369  0.00  0.00    +0.000 C 
BRANCH   7   9
ATOM      9  C   UNL     1       9.698  10.418  18.894  0.00  0.00    +0.000 C 
ATOM     10  C   UNL     1      10.030  11.449  17.795  0.00  0.00    +0.000 C 
ATOM     11  C   UNL     1      11.219  12.332  18.159  0.00  0.00    +0.000 C 
ATOM     12  C   UNL     1      10.967  13.098  19.478  0.00  0.00    +0.000 C 
ATOM     13  C   UNL     1      10.815  12.027  20.580  0.00  0.00    +0.000 C 
ATOM     14  C   UNL     1       9.700  11.010  20.319  0.00  0.00    +0.000 C 
BRANCH  12  15
ATOM     15  C   UNL     1       9.802  14.090  19.328  0.00  0.00    +0.000 A 
ATOM     16  C   UNL     1       8.732  14.145  20.240  0.00  0.00    +0.000 A 
ATOM     17  C   UNL     1       7.556  14.837  19.949  0.00  0.00    +0.000 A 
ATOM     18  C   UNL     1       7.460  15.589  18.785  0.00  0.00    +0.000 A 
ATOM     19  C   UNL     1       8.553  15.660  17.927  0.00  0.00    +0.000 A 
ATOM     20  C   UNL     1       9.707  14.915  18.191  0.00  0.00    +0.000 A 
ENDBRANCH  12  15
BRANCH  12  21
ATOM     21  O   UNL     1      12.163  13.824  19.784  0.00  0.00    +0.000 OA
ATOM     22  H   UNL     1      12.513  13.490  20.626  0.00  0.00    +0.000 HD
ENDBRANCH  12  21
ENDBRANCH   7   9
ENDBRANCH   3   5
BRANCH   2  23
ATOM     23  C   UNL     1       5.870   5.539  17.535  0.00  0.00    +0.000 C 
BRANCH  23  24
ATOM     24  N   UNL     1       4.625   5.919  16.853  0.00  0.00    +0.000 N 
ATOM     25  H   UNL     1       4.125   5.102  16.508  0.00  0.00    +0.000 HD
BRANCH  24  26
ATOM     26  C   UNL     1       3.747   6.656  17.687  0.00  0.00    +0.000 A 
ATOM     27  N   UNL     1       3.465   7.927  17.348  0.00  0.00    +0.000 NA
ATOM     28  C   UNL     1       2.620   8.586  18.123  0.00  0.00    +0.000 A 
ATOM     29  N   UNL     1       1.992   8.101  19.203  0.00  0.00    +0.000 NA
ATOM     30  C   UNL     1       2.260   6.833  19.534  0.00  0.00    +0.000 A 
ATOM     31  C   UNL     1       1.619   6.264  20.630  0.00  0.00    +0.000 A 
ATOM     32  C   UNL     1       1.842   4.939  21.026  0.00  0.00    +0.000 A 
ATOM     33  C   UNL     1       2.761   4.154  20.329  0.00  0.00    +0.000 A 
ATOM     34  C   UNL     1       3.446   4.726  19.250  0.00  0.00    +0.000 A 
ATOM     35  C   UNL     1       3.180   6.049  18.815  0.00  0.00    +0.000 A 
BRANCH  33  36
ATOM     36  C   UNL     1       3.008   2.702  20.676  0.00  0.00    +0.000 C 
ATOM     37  F   UNL     1       4.324   2.343  20.615  0.00  0.00    +0.000 F 
ATOM     38  F   UNL     1       2.599   2.402  21.936  0.00  0.00    +0.000 F 
ATOM     39  F   UNL     1       2.343   1.852  19.852  0.00  0.00    +0.000 F 
ENDBRANCH  33  36
ENDBRANCH  24  26
ENDBRANCH  23  24
ENDBRANCH   2  23
TORSDOF 8
ENDMDL
MODEL 3
REMARK VINA RESULT:      -8.5      9.357     12.478
REMARK  Name = 
REMARK  8 active torsions:
REMARK  status: ('A' for Active; 'I' for Inactive)
REMARK    1  A    between atoms: C_2  and  C_3
REMARK    2  A    between atoms: C_3  and  N_4
REMARK    3  A    between atoms: N_4  and  C_5
REMARK    4  A    between atoms: C_12  and  C_13
REMARK    5  A    between atoms: N_19  and  C_20
REMARK    6  A    between atoms: N_22  and  C_23
REMARK    7  A    between atoms: C_26  and  O_27
REMARK    8  A    between atoms: C_26  and  C_28
REMARK                            x       y       z     vdW  Elec       q    Type
REMARK                         _______ _______ _______ _____ _____    ______ ____
ROOT
ATOM      1  O   UNL     1      -7.681  14.752  17.669  0.00  0.00    +0.000 OA
ATOM      2  C   UNL     1      -7.175  13.728  18.111  0.00  0.00    +0.000 C 
ATOM      3  N   UNL     1      -6.281  13.038  17.324  0.00  0.00    +0.000 N 
ATOM      4  H   UNL     1      -6.147  13.483  16.421  0.00  0.00    +0.000 HD
ENDROOT
BRANCH   3   5
ATOM      5  C   UNL     1      -5.546  11.803  17.662  0.00  0.00    +0.000 C 
ATOM      6  C   UNL     1      -4.385  11.448  16.689  0.00  0.00    +0.000 C 
ATOM      7  N   UNL     1      -3.610  11.022  17.868  0.00  0.00    +0.000 NA
ATOM      8  C   UNL     1      -4.405  11.935  18.708  0.00  0.00    +0.000 C 
BRANCH   7   9
ATOM      9  C   UNL     1      -2.173  11.338  17.807  0.00  0.00    +0.000 C 
ATOM     10  C   UNL     1      -1.614  12.353  18.827  0.00  0.00    +0.000 C 
ATOM     11  C   UNL     1      -0.090  12.429  18.802  0.00  0.00    +0.000 C 
ATOM     12  C   UNL     1       0.546  11.051  19.095  0.00  0.00    +0.000 C 
ATOM     13  C   UNL     1       0.099  10.115  17.952  0.00  0.00    +0.000 C 
ATOM     14  C   UNL     1      -1.420   9.992  17.797  0.00  0.00    +0.000 C 
BRANCH  12  15
ATOM     15  C   UNL     1       0.222  10.583  20.523  0.00  0.00    +0.000 A 
ATOM     16  C   UNL     1       0.220   9.226  20.894  0.00  0.00    +0.000 A 
ATOM     17  C   UNL     1      -0.343   8.795  22.096  0.00  0.00    +0.000 A 
ATOM     18  C   UNL     1      -0.821   9.722  23.013  0.00  0.00    +0.000 A 
ATOM     19  C   UNL     1      -0.711  11.080  22.730  0.00  0.00    +0.000 A 
ATOM     20  C   UNL     1      -0.203  11.506  21.499  0.00  0.00    +0.000 A 
ENDBRANCH  12  15
BRANCH  12  21
ATOM     21  O   UNL     1       1.965  11.200  18.962  0.00  0.00    +0.000 OA
ATOM     22  H   UNL     1       2.361  10.314  18.933  0.00  0.00    +0.000 HD
ENDBRANCH  12  21
ENDBRANCH   7   9
ENDBRANCH   3   5
BRANCH   2  23
ATOM     23  C   UNL     1      -7.483  13.176  19.504  0.00  0.00    +0.000 C 
BRANCH  23  24
ATOM     24  N   UNL     1      -6.740  13.906  20.541  0.00  0.00    +0.000 N 
ATOM     25  H   UNL     1      -7.094  14.853  20.656  0.00  0.00    +0.000 HD
BRANCH  24  26
ATOM     26  C   UNL     1      -6.784  13.260  21.803  0.00  0.00    +0.000 A 
ATOM     27  N   UNL     1      -7.906  12.598  22.139  0.00  0.00    +0.000 NA
ATOM     28  C   UNL     1      -7.914  11.978  23.308  0.00  0.00    +0.000 A 
ATOM     29  N   UNL     1      -6.899  11.923  24.182  0.00  0.00    +0.000 NA
ATOM     30  C   UNL     1      -5.779  12.570  23.844  0.00  0.00    +0.000 A 
ATOM     31  C   UNL     1      -4.682  12.527  24.699  0.00  0.00    +0.000 A 
ATOM     32  C   UNL     1      -3.474  13.171  24.402  0.00  0.00    +0.000 A 
ATOM     33  C   UNL     1      -3.355  13.914  23.227  0.00  0.00    +0.000 A 
ATOM     34  C   UNL     1      -4.465  14.002  22.378  0.00  0.00    +0.000 A 
ATOM     35  C   UNL     1      -5.670  13.305  22.650  0.00  0.00    +0.000 A 
BRANCH  33  36
ATOM     36  C   UNL     1      -2.061  14.589  22.827  0.00  0.00    +0.000 C 
ATOM     37  F   UNL     1      -0.976  14.146  23.525  0.00  0.00    +0.000 F 
ATOM     38  F   UNL     1      -1.768  14.389  21.515  0.00  0.00    +0.000 F 
ATOM     39  F   UNL     1      -2.104  15.935  23.001  0.00  0.00    +0.000 F 
ENDBRANCH  33  36
ENDBRANCH  24  26
ENDBRANCH  23  24
ENDBRANCH   2  23
TORSDOF 8
ENDMDL
MODEL 4
REMARK VINA RESULT:      -8.4      6.640     10.321
REMARK  Name = 
REMARK  8 active torsions:
REMARK  status: ('A' for Active; 'I' for Inactive)
REMARK    1  A    between atoms: C_2  and  C_3
REMARK    2  A    between atoms: C_3  and  N_4
REMARK    3  A    between atoms: N_4  and  C_5
REMARK    4  A    between atoms: C_12  and  C_13
REMARK    5  A    between atoms: N_19  and  C_20
REMARK    6  A    between atoms: N_22  and  C_23
REMARK    7  A    between atoms: C_26  and  O_27
REMARK    8  A    between atoms: C_26  and  C_28
REMARK                            x       y       z     vdW  Elec       q    Type
REMARK                         _______ _______ _______ _____ _____    ______ ____
ROOT
ATOM      1  O   UNL     1      -1.584  11.286  17.624  0.00  0.00    +0.000 OA
ATOM      2  C   UNL     1      -0.708  10.906  18.391  0.00  0.00    +0.000 C 
ATOM      3  N   UNL     1       0.291  10.094  17.905  0.00  0.00    +0.000 N 
ATOM      4  H   UNL     1       0.171   9.893  16.917  0.00  0.00    +0.000 HD
ENDROOT
BRANCH   3   5
ATOM      5  C   UNL     1       1.445   9.542  18.643  0.00  0.00    +0.000 C 
ATOM      6  C   UNL     1       1.095   8.399  19.639  0.00  0.00    +0.000 C 
ATOM      7  N   UNL     1       2.342   7.734  19.219  0.00  0.00    +0.000 NA
ATOM      8  C   UNL     1       2.267   8.435  17.925  0.00  0.00    +0.000 C 
BRANCH   7   9
ATOM      9  C   UNL     1       2.257   6.267  19.128  0.00  0.00    +0.000 C 
ATOM     10  C   UNL     1       2.160   5.636  17.723  0.00  0.00    +0.000 C 
ATOM     11  C   UNL     1       2.296   4.117  17.753  0.00  0.00    +0.000 C 
ATOM     12  C   UNL     1       3.641   3.685  18.383  0.00  0.00    +0.000 C 
ATOM     13  C   UNL     1       3.617   4.189  19.843  0.00  0.00    +0.000 C 
ATOM     14  C   UNL     1       3.408   5.700  19.984  0.00  0.00    +0.000 C 
BRANCH  12  15
ATOM     15  C   UNL     1       4.829   4.148  17.524  0.00  0.00    +0.000 A 
ATOM     16  C   UNL     1       4.809   4.108  16.118  0.00  0.00    +0.000 A 
ATOM     17  C   UNL     1       5.973   4.258  15.363  0.00  0.00    +0.000 A 
ATOM     18  C   UNL     1       7.174   4.564  15.990  0.00  0.00    +0.000 A 
ATOM     19  C   UNL     1       7.198   4.740  17.370  0.00  0.00    +0.000 A 
ATOM     20  C   UNL     1       6.043   4.529  18.129  0.00  0.00    +0.000 A 
ENDBRANCH  12  15
BRANCH  12  21
ATOM     21  O   UNL     1       3.640   2.255  18.450  0.00  0.00    +0.000 OA
ATOM     22  H   UNL     1       2.849   1.931  17.989  0.00  0.00    +0.000 HD
ENDBRANCH  12  21
ENDBRANCH   7   9
ENDBRANCH   3   5
BRANCH   2  23
ATOM     23  C   UNL     1      -0.664  11.296  19.870  0.00  0.00    +0.000 C 
BRANCH  23  24
ATOM     24  N   UNL     1      -1.314  12.594  20.097  0.00  0.00    +0.000 N 
ATOM     25  H   UNL     1      -1.746  12.948  19.246  0.00  0.00    +0.000 HD
BRANCH  24  26
ATOM     26  C   UNL     1      -2.308  12.539  21.107  0.00  0.00    +0.000 A 
ATOM     27  N   UNL     1      -1.909  12.548  22.392  0.00  0.00    +0.000 NA
ATOM     28  C   UNL     1      -2.854  12.527  23.318  0.00  0.00    +0.000 A 
ATOM     29  N   UNL     1      -4.177  12.525  23.100  0.00  0.00    +0.000 NA
ATOM     30  C   UNL     1      -4.575  12.530  21.824  0.00  0.00    +0.000 A 
ATOM     31  C   UNL     1      -5.936  12.555  21.534  0.00  0.00    +0.000 A 
ATOM     32  C   UNL     1      -6.423  12.573  20.221  0.00  0.00    +0.000 A 
ATOM     33  C   UNL     1      -5.530  12.532  19.150  0.00  0.00    +0.000 A 
ATOM     34  C   UNL     1      -4.159  12.464  19.426  0.00  0.00    +0.000 A 
ATOM     35  C   UNL     1      -3.663  12.501  20.754  0.00  0.00    +0.000 A 
BRANCH  33  36
ATOM     36  C   UNL     1      -5.992  12.601  17.710  0.00  0.00    +0.000 C 
ATOM     37  F   UNL     1      -5.085  12.102  16.822  0.00  0.00    +0.000 F 
ATOM     38  F   UNL     1      -7.137  11.898  17.509  0.00  0.00    +0.000 F 
ATOM     39  F   UNL     1      -6.257  13.872  17.312  0.00  0.00    +0.000 F 
ENDBRANCH  33  36
ENDBRANCH  24  26
ENDBRANCH  23  24
ENDBRANCH   2  23
TORSDOF 8
ENDMDL
MODEL 5
REMARK VINA RESULT:      -8.4      5.175      7.609
REMARK  Name = 
REMARK  8 active torsions:
REMARK  status: ('A' for Active; 'I' for Inactive)
REMARK    1  A    between atoms: C_2  and  C_3
REMARK    2  A    between atoms: C_3  and  N_4
REMARK    3  A    between atoms: N_4  and  C_5
REMARK    4  A    between atoms: C_12  and  C_13
REMARK    5  A    between atoms: N_19  and  C_20
REMARK    6  A    between atoms: N_22  and  C_23
REMARK    7  A    between atoms: C_26  and  O_27
REMARK    8  A    between atoms: C_26  and  C_28
REMARK                            x       y       z     vdW  Elec       q    Type
REMARK                         _______ _______ _______ _____ _____    ______ ____
ROOT
ATOM      1  O   UNL     1       2.012   2.281  18.717  0.00  0.00    +0.000 OA
ATOM      2  C   UNL     1       2.642   3.331  18.686  0.00  0.00    +0.000 C 
ATOM      3  N   UNL     1       2.060   4.468  19.199  0.00  0.00    +0.000 N 
ATOM      4  H   UNL     1       1.127   4.290  19.555  0.00  0.00    +0.000 HD
ENDROOT
BRANCH   3   5
ATOM      5  C   UNL     1       2.643   5.822  19.281  0.00  0.00    +0.000 C 
ATOM      6  C   UNL     1       1.983   6.874  18.343  0.00  0.00    +0.000 C 
ATOM      7  N   UNL     1       2.127   7.849  19.438  0.00  0.00    +0.000 NA
ATOM      8  C   UNL     1       2.110   6.744  20.412  0.00  0.00    +0.000 C 
BRANCH   7   9
ATOM      9  C   UNL     1       1.009   8.799  19.568  0.00  0.00    +0.000 C 
ATOM     10  C   UNL     1       1.002   9.741  20.791  0.00  0.00    +0.000 C 
ATOM     11  C   UNL     1      -0.079  10.814  20.697  0.00  0.00    +0.000 C 
ATOM     12  C   UNL     1       0.094  11.676  19.426  0.00  0.00    +0.000 C 
ATOM     13  C   UNL     1      -0.081  10.721  18.226  0.00  0.00    +0.000 C 
ATOM     14  C   UNL     1       0.891   9.536  18.218  0.00  0.00    +0.000 C 
BRANCH  12  15
ATOM     15  C   UNL     1       1.407  12.475  19.473  0.00  0.00    +0.000 A 
ATOM     16  C   UNL     1       1.881  13.086  20.648  0.00  0.00    +0.000 A 
ATOM     17  C   UNL     1       2.907  14.031  20.621  0.00  0.00    +0.000 A 
ATOM     18  C   UNL     1       3.564  14.311  19.430  0.00  0.00    +0.000 A 
ATOM     19  C   UNL     1       3.205  13.624  18.274  0.00  0.00    +0.000 A 
ATOM     20  C   UNL     1       2.136  12.723  18.292  0.00  0.00    +0.000 A 
ENDBRANCH  12  15
BRANCH  12  21
ATOM     21  O   UNL     1      -1.008  12.590  19.378  0.00  0.00    +0.000 OA
ATOM     22  H   UNL     1      -0.776  13.373  19.902  0.00  0.00    +0.000 HD
ENDBRANCH  12  21
ENDBRANCH   7   9
ENDBRANCH   3   5
BRANCH   2  23
ATOM     23  C   UNL     1       4.054   3.442  18.108  0.00  0.00    +0.000 C 
BRANCH  23  24
ATOM     24  N   UNL     1       4.029   3.997  16.747  0.00  0.00    +0.000 N 
ATOM     25  H   UNL     1       3.319   4.721  16.654  0.00  0.00    +0.000 HD
BRANCH  24  26
ATOM     26  C   UNL     1       5.276   4.548  16.357  0.00  0.00    +0.000 A 
ATOM     27  N   UNL     1       6.049   5.107  17.306  0.00  0.00    +0.000 NA
ATOM     28  C   UNL     1       7.221   5.587  16.924  0.00  0.00    +0.000 A 
ATOM     29  N   UNL     1       7.728   5.547  15.685  0.00  0.00    +0.000 NA
ATOM     30  C   UNL     1       6.967   4.981  14.743  0.00  0.00    +0.000 A 
ATOM     31  C   UNL     1       7.450   4.886  13.441  0.00  0.00    +0.000 A 
ATOM     32  C   UNL     1       6.712   4.294  12.408  0.00  0.00    +0.000 A 
ATOM     33  C   UNL     1       5.431   3.804  12.664  0.00  0.00    +0.000 A 
ATOM     34  C   UNL     1       4.915   3.931  13.959  0.00  0.00    +0.000 A 
ATOM     35  C   UNL     1       5.682   4.480  15.018  0.00  0.00    +0.000 A 
BRANCH  33  36
ATOM     36  C   UNL     1       4.606   3.108  11.604  0.00  0.00    +0.000 C 
ATOM     37  F   UNL     1       4.502   3.817  10.442  0.00  0.00    +0.000 F 
ATOM     38  F   UNL     1       5.130   1.904  11.259  0.00  0.00    +0.000 F 
ATOM     39  F   UNL     1       3.335   2.862  12.015  0.00  0.00    +0.000 F 
ENDBRANCH  33  36
ENDBRANCH  24  26
ENDBRANCH  23  24
ENDBRANCH   2  23
TORSDOF 8
ENDMDL
MODEL 6
REMARK VINA RESULT:      -8.4      6.456     10.376
REMARK  Name = 
REMARK  8 active torsions:
REMARK  status: ('A' for Active; 'I' for Inactive)
REMARK    1  A    between atoms: C_2  and  C_3
REMARK    2  A    between atoms: C_3  and  N_4
REMARK    3  A    between atoms: N_4  and  C_5
REMARK    4  A    between atoms: C_12  and  C_13
REMARK    5  A    between atoms: N_19  and  C_20
REMARK    6  A    between atoms: N_22  and  C_23
REMARK    7  A    between atoms: C_26  and  O_27
REMARK    8  A    between atoms: C_26  and  C_28
REMARK                            x       y       z     vdW  Elec       q    Type
REMARK                         _______ _______ _______ _____ _____    ______ ____
ROOT
ATOM      1  O   UNL     1      -1.580  11.177  18.130  0.00  0.00    +0.000 OA
ATOM      2  C   UNL     1      -0.484  10.943  18.623  0.00  0.00    +0.000 C 
ATOM      3  N   UNL     1       0.079   9.702  18.428  0.00  0.00    +0.000 N 
ATOM      4  H   UNL     1      -0.518   9.097  17.874  0.00  0.00    +0.000 HD
ENDROOT
BRANCH   3   5
ATOM      5  C   UNL     1       1.388   9.218  18.911  0.00  0.00    +0.000 C 
ATOM      6  C   UNL     1       1.314   8.033  19.916  0.00  0.00    +0.000 C 
ATOM      7  N   UNL     1       2.496   7.468  19.241  0.00  0.00    +0.000 NA
ATOM      8  C   UNL     1       2.127   8.189  18.011  0.00  0.00    +0.000 C 
BRANCH   7   9
ATOM      9  C   UNL     1       2.493   6.000  19.118  0.00  0.00    +0.000 C 
ATOM     10  C   UNL     1       2.252   5.395  17.719  0.00  0.00    +0.000 C 
ATOM     11  C   UNL     1       2.487   3.888  17.684  0.00  0.00    +0.000 C 
ATOM     12  C   UNL     1       3.926   3.533  18.122  0.00  0.00    +0.000 C 
ATOM     13  C   UNL     1       4.062   4.001  19.587  0.00  0.00    +0.000 C 
ATOM     14  C   UNL     1       3.780   5.492  19.800  0.00  0.00    +0.000 C 
BRANCH  12  15
ATOM     15  C   UNL     1       4.960   4.092  17.131  0.00  0.00    +0.000 A 
ATOM     16  C   UNL     1       4.747   4.107  15.740  0.00  0.00    +0.000 A 
ATOM     17  C   UNL     1       5.786   4.349  14.841  0.00  0.00    +0.000 A 
ATOM     18  C   UNL     1       7.047   4.693  15.311  0.00  0.00    +0.000 A 
ATOM     19  C   UNL     1       7.254   4.815  16.681  0.00  0.00    +0.000 A 
ATOM     20  C   UNL     1       6.227   4.512  17.581  0.00  0.00    +0.000 A 
ENDBRANCH  12  15
BRANCH  12  21
ATOM     21  O   UNL     1       4.024   2.104  18.144  0.00  0.00    +0.000 OA
ATOM     22  H   UNL     1       4.962   1.864  18.077  0.00  0.00    +0.000 HD
ENDBRANCH  12  21
ENDBRANCH   7   9
ENDBRANCH   3   5
BRANCH   2  23
ATOM     23  C   UNL     1       0.301  11.968  19.444  0.00  0.00    +0.000 C 
BRANCH  23  24
ATOM     24  N   UNL     1      -0.062  11.899  20.867  0.00  0.00    +0.000 N 
ATOM     25  H   UNL     1       0.434  11.147  21.341  0.00  0.00    +0.000 HD
BRANCH  24  26
ATOM     26  C   UNL     1       0.200  13.109  21.558  0.00  0.00    +0.000 A 
ATOM     27  N   UNL     1       1.361  13.742  21.314  0.00  0.00    +0.000 NA
ATOM     28  C   UNL     1       1.572  14.884  21.948  0.00  0.00    +0.000 A 
ATOM     29  N   UNL     1       0.725  15.489  22.793  0.00  0.00    +0.000 NA
ATOM     30  C   UNL     1      -0.435  14.867  23.028  0.00  0.00    +0.000 A 
ATOM     31  C   UNL     1      -1.366  15.458  23.876  0.00  0.00    +0.000 A 
ATOM     32  C   UNL     1      -2.606  14.869  24.156  0.00  0.00    +0.000 A 
ATOM     33  C   UNL     1      -2.926  13.630  23.601  0.00  0.00    +0.000 A 
ATOM     34  C   UNL     1      -1.981  13.003  22.779  0.00  0.00    +0.000 A 
ATOM     35  C   UNL     1      -0.749  13.624  22.451  0.00  0.00    +0.000 A 
BRANCH  33  36
ATOM     36  C   UNL     1      -4.268  12.968  23.824  0.00  0.00    +0.000 C 
ATOM     37  F   UNL     1      -4.741  12.311  22.726  0.00  0.00    +0.000 F 
ATOM     38  F   UNL     1      -4.220  12.043  24.819  0.00  0.00    +0.000 F 
ATOM     39  F   UNL     1      -5.231  13.856  24.182  0.00  0.00    +0.000 F 
ENDBRANCH  33  36
ENDBRANCH  24  26
ENDBRANCH  23  24
ENDBRANCH   2  23
TORSDOF 8
ENDMDL
MODEL 7
REMARK VINA RESULT:      -8.4      6.943     10.980
REMARK  Name = 
REMARK  8 active torsions:
REMARK  status: ('A' for Active; 'I' for Inactive)
REMARK    1  A    between atoms: C_2  and  C_3
REMARK    2  A    between atoms: C_3  and  N_4
REMARK    3  A    between atoms: N_4  and  C_5
REMARK    4  A    between atoms: C_12  and  C_13
REMARK    5  A    between atoms: N_19  and  C_20
REMARK    6  A    between atoms: N_22  and  C_23
REMARK    7  A    between atoms: C_26  and  O_27
REMARK    8  A    between atoms: C_26  and  C_28
REMARK                            x       y       z     vdW  Elec       q    Type
REMARK                         _______ _______ _______ _____ _____    ______ ____
ROOT
ATOM      1  O   UNL     1       2.949  10.252  17.392  0.00  0.00    +0.000 OA
ATOM      2  C   UNL     1       2.014   9.841  18.069  0.00  0.00    +0.000 C 
ATOM      3  N   UNL     1       0.993  10.709  18.383  0.00  0.00    +0.000 N 
ATOM      4  H   UNL     1       1.149  11.635  18.000  0.00  0.00    +0.000 HD
ENDROOT
BRANCH   3   5
ATOM      5  C   UNL     1      -0.228  10.422  19.163  0.00  0.00    +0.000 C 
ATOM      6  C   UNL     1      -0.950  11.678  19.729  0.00  0.00    +0.000 C 
ATOM      7  N   UNL     1      -2.225  11.014  19.405  0.00  0.00    +0.000 NA
ATOM      8  C   UNL     1      -1.543  10.236  18.358  0.00  0.00    +0.000 C 
BRANCH   7   9
ATOM      9  C   UNL     1      -3.281  11.916  18.913  0.00  0.00    +0.000 C 
ATOM     10  C   UNL     1      -4.294  11.350  17.895  0.00  0.00    +0.000 C 
ATOM     11  C   UNL     1      -5.455  12.305  17.632  0.00  0.00    +0.000 C 
ATOM     12  C   UNL     1      -6.216  12.638  18.936  0.00  0.00    +0.000 C 
ATOM     13  C   UNL     1      -5.207  13.359  19.855  0.00  0.00    +0.000 C 
ATOM     14  C   UNL     1      -3.939  12.552  20.155  0.00  0.00    +0.000 C 
BRANCH  12  15
ATOM     15  C   UNL     1      -6.891  11.386  19.518  0.00  0.00    +0.000 A 
ATOM     16  C   UNL     1      -7.557  11.391  20.757  0.00  0.00    +0.000 A 
ATOM     17  C   UNL     1      -7.915  10.207  21.403  0.00  0.00    +0.000 A 
ATOM     18  C   UNL     1      -7.718   8.984  20.773  0.00  0.00    +0.000 A 
ATOM     19  C   UNL     1      -7.182   8.956  19.490  0.00  0.00    +0.000 A 
ATOM     20  C   UNL     1      -6.767  10.140  18.872  0.00  0.00    +0.000 A 
ENDBRANCH  12  15
BRANCH  12  21
ATOM     21  O   UNL     1      -7.222  13.603  18.607  0.00  0.00    +0.000 OA
ATOM     22  H   UNL     1      -8.045  13.346  19.053  0.00  0.00    +0.000 HD
ENDBRANCH  12  21
ENDBRANCH   7   9
ENDBRANCH   3   5
BRANCH   2  23
ATOM     23  C   UNL     1       1.920   8.402  18.581  0.00  0.00    +0.000 C 
BRANCH  23  24
ATOM     24  N   UNL     1       2.189   7.437  17.505  0.00  0.00    +0.000 N 
ATOM     25  H   UNL     1       2.204   7.890  16.594  0.00  0.00    +0.000 HD
BRANCH  24  26
ATOM     26  C   UNL     1       3.418   6.752  17.679  0.00  0.00    +0.000 A 
ATOM     27  N   UNL     1       4.544   7.344  17.240  0.00  0.00    +0.000 NA
ATOM     28  C   UNL     1       5.682   6.700  17.440  0.00  0.00    +0.000 A 
ATOM     29  N   UNL     1       5.828   5.523  18.064  0.00  0.00    +0.000 NA
ATOM     30  C   UNL     1       4.711   4.939  18.513  0.00  0.00    +0.000 A 
ATOM     31  C   UNL     1       4.801   3.728  19.193  0.00  0.00    +0.000 A 
ATOM     32  C   UNL     1       3.674   3.068  19.701  0.00  0.00    +0.000 A 
ATOM     33  C   UNL     1       2.405   3.610  19.501  0.00  0.00    +0.000 A 
ATOM     34  C   UNL     1       2.295   4.806  18.781  0.00  0.00    +0.000 A 
ATOM     35  C   UNL     1       3.439   5.504  18.315  0.00  0.00    +0.000 A 
BRANCH  33  36
ATOM     36  C   UNL     1       1.156   2.972  20.069  0.00  0.00    +0.000 C 
ATOM     37  F   UNL     1       1.354   2.365  21.275  0.00  0.00    +0.000 F 
ATOM     38  F   UNL     1       0.165   3.880  20.267  0.00  0.00    +0.000 F 
ATOM     39  F   UNL     1       0.638   2.024  19.245  0.00  0.00    +0.000 F 
ENDBRANCH  33  36
ENDBRANCH  24  26
ENDBRANCH  23  24
ENDBRANCH   2  23
TORSDOF 8
ENDMDL
MODEL 8
REMARK VINA RESULT:      -8.3      6.776      9.518
REMARK  Name = 
REMARK  8 active torsions:
REMARK  status: ('A' for Active; 'I' for Inactive)
REMARK    1  A    between atoms: C_2  and  C_3
REMARK    2  A    between atoms: C_3  and  N_4
REMARK    3  A    between atoms: N_4  and  C_5
REMARK    4  A    between atoms: C_12  and  C_13
REMARK    5  A    between atoms: N_19  and  C_20
REMARK    6  A    between atoms: N_22  and  C_23
REMARK    7  A    between atoms: C_26  and  O_27
REMARK    8  A    between atoms: C_26  and  C_28
REMARK                            x       y       z     vdW  Elec       q    Type
REMARK                         _______ _______ _______ _____ _____    ______ ____
ROOT
ATOM      1  O   UNL     1       2.597   9.052  17.563  0.00  0.00    +0.000 OA
ATOM      2  C   UNL     1       1.606   9.114  18.278  0.00  0.00    +0.000 C 
ATOM      3  N   UNL     1       0.624  10.028  17.972  0.00  0.00    +0.000 N 
ATOM      4  H   UNL     1       0.856  10.574  17.148  0.00  0.00    +0.000 HD
ENDROOT
BRANCH   3   5
ATOM      5  C   UNL     1      -0.651  10.256  18.681  0.00  0.00    +0.000 C 
ATOM      6  C   UNL     1      -0.506  10.576  20.197  0.00  0.00    +0.000 C 
ATOM      7  N   UNL     1      -1.595  11.555  20.032  0.00  0.00    +0.000 NA
ATOM      8  C   UNL     1      -1.244  11.691  18.608  0.00  0.00    +0.000 C 
BRANCH   7   9
ATOM      9  C   UNL     1      -1.441  12.787  20.824  0.00  0.00    +0.000 C 
ATOM     10  C   UNL     1      -2.491  13.902  20.633  0.00  0.00    +0.000 C 
ATOM     11  C   UNL     1      -2.346  15.023  21.657  0.00  0.00    +0.000 C 
ATOM     12  C   UNL     1      -2.472  14.486  23.101  0.00  0.00    +0.000 C 
ATOM     13  C   UNL     1      -1.297  13.505  23.302  0.00  0.00    +0.000 C 
ATOM     14  C   UNL     1      -1.259  12.353  22.293  0.00  0.00    +0.000 C 
BRANCH  12  15
ATOM     15  C   UNL     1      -3.879  13.924  23.362  0.00  0.00    +0.000 A 
ATOM     16  C   UNL     1      -5.050  14.604  22.982  0.00  0.00    +0.000 A 
ATOM     17  C   UNL     1      -6.305  14.233  23.467  0.00  0.00    +0.000 A 
ATOM     18  C   UNL     1      -6.437  13.099  24.258  0.00  0.00    +0.000 A 
ATOM     19  C   UNL     1      -5.313  12.330  24.542  0.00  0.00    +0.000 A 
ATOM     20  C   UNL     1      -4.049  12.739  24.106  0.00  0.00    +0.000 A 
ENDBRANCH  12  15
BRANCH  12  21
ATOM     21  O   UNL     1      -2.235  15.586  23.987  0.00  0.00    +0.000 OA
ATOM     22  H   UNL     1      -1.320  15.525  24.306  0.00  0.00    +0.000 HD
ENDBRANCH  12  21
ENDBRANCH   7   9
ENDBRANCH   3   5
BRANCH   2  23
ATOM     23  C   UNL     1       1.398   8.216  19.500  0.00  0.00    +0.000 C 
BRANCH  23  24
ATOM     24  N   UNL     1       2.619   7.464  19.820  0.00  0.00    +0.000 N 
ATOM     25  H   UNL     1       2.956   7.682  20.755  0.00  0.00    +0.000 HD
BRANCH  24  26
ATOM     26  C   UNL     1       2.436   6.060  19.732  0.00  0.00    +0.000 A 
ATOM     27  N   UNL     1       1.607   5.470  20.612  0.00  0.00    +0.000 NA
ATOM     28  C   UNL     1       1.428   4.165  20.492  0.00  0.00    +0.000 A 
ATOM     29  N   UNL     1       1.973   3.373  19.558  0.00  0.00    +0.000 NA
ATOM     30  C   UNL     1       2.787   3.960  18.674  0.00  0.00    +0.000 A 
ATOM     31  C   UNL     1       3.362   3.195  17.664  0.00  0.00    +0.000 A 
ATOM     32  C   UNL     1       4.214   3.745  16.698  0.00  0.00    +0.000 A 
ATOM     33  C   UNL     1       4.536   5.102  16.751  0.00  0.00    +0.000 A 
ATOM     34  C   UNL     1       3.998   5.876  17.786  0.00  0.00    +0.000 A 
ATOM     35  C   UNL     1       3.093   5.331  18.732  0.00  0.00    +0.000 A 
BRANCH  33  36
ATOM     36  C   UNL     1       5.408   5.766  15.707  0.00  0.00    +0.000 C 
ATOM     37  F   UNL     1       5.524   5.044  14.555  0.00  0.00    +0.000 F 
ATOM     38  F   UNL     1       4.925   6.981  15.339  0.00  0.00    +0.000 F 
ATOM     39  F   UNL     1       6.673   5.983  16.151  0.00  0.00    +0.000 F 
ENDBRANCH  33  36
ENDBRANCH  24  26
ENDBRANCH  23  24
ENDBRANCH   2  23
TORSDOF 8
ENDMDL
MODEL 9
REMARK VINA RESULT:      -8.3      7.058     11.161
REMARK  Name = 
REMARK  8 active torsions:
REMARK  status: ('A' for Active; 'I' for Inactive)
REMARK    1  A    between atoms: C_2  and  C_3
REMARK    2  A    between atoms: C_3  and  N_4
REMARK    3  A    between atoms: N_4  and  C_5
REMARK    4  A    between atoms: C_12  and  C_13
REMARK    5  A    between atoms: N_19  and  C_20
REMARK    6  A    between atoms: N_22  and  C_23
REMARK    7  A    between atoms: C_26  and  O_27
REMARK    8  A    between atoms: C_26  and  C_28
REMARK                            x       y       z     vdW  Elec       q    Type
REMARK                         _______ _______ _______ _____ _____    ______ ____
ROOT
ATOM      1  O   UNL     1       2.655  11.095  17.951  0.00  0.00    +0.000 OA
ATOM      2  C   UNL     1       1.688  10.686  18.580  0.00  0.00    +0.000 C 
ATOM      3  N   UNL     1       0.822  11.603  19.133  0.00  0.00    +0.000 N 
ATOM      4  H   UNL     1       1.109  12.558  18.946  0.00  0.00    +0.000 HD
ENDROOT
BRANCH   3   5
ATOM      5  C   UNL     1      -0.406  11.332  19.907  0.00  0.00    +0.000 C 
ATOM      6  C   UNL     1      -1.313  12.574  20.145  0.00  0.00    +0.000 C 
ATOM      7  N   UNL     1      -2.473  11.690  19.927  0.00  0.00    +0.000 NA
ATOM      8  C   UNL     1      -1.630  10.801  19.111  0.00  0.00    +0.000 C 
BRANCH   7   9
ATOM      9  C   UNL     1      -3.593  12.313  19.202  0.00  0.00    +0.000 C 
ATOM     10  C   UNL     1      -4.350  11.451  18.169  0.00  0.00    +0.000 C 
ATOM     11  C   UNL     1      -5.612  12.134  17.649  0.00  0.00    +0.000 C 
ATOM     12  C   UNL     1      -6.585  12.468  18.803  0.00  0.00    +0.000 C 
ATOM     13  C   UNL     1      -5.846  13.469  19.717  0.00  0.00    +0.000 C 
ATOM     14  C   UNL     1      -4.510  12.955  20.263  0.00  0.00    +0.000 C 
BRANCH  12  15
ATOM     15  C   UNL     1      -7.106  11.188  19.477  0.00  0.00    +0.000 A 
ATOM     16  C   UNL     1      -7.707  11.192  20.749  0.00  0.00    +0.000 A 
ATOM     17  C   UNL     1      -7.916  10.014  21.466  0.00  0.00    +0.000 A 
ATOM     18  C   UNL     1      -7.632   8.785  20.883  0.00  0.00    +0.000 A 
ATOM     19  C   UNL     1      -7.159   8.744  19.575  0.00  0.00    +0.000 A 
ATOM     20  C   UNL     1      -6.893   9.929  18.882  0.00  0.00    +0.000 A 
ENDBRANCH  12  15
BRANCH  12  21
ATOM     21  O   UNL     1      -7.690  13.181  18.235  0.00  0.00    +0.000 OA
ATOM     22  H   UNL     1      -7.643  14.102  18.537  0.00  0.00    +0.000 HD
ENDBRANCH  12  21
ENDBRANCH   7   9
ENDBRANCH   3   5
BRANCH   2  23
ATOM     23  C   UNL     1       1.387   9.199  18.781  0.00  0.00    +0.000 C 
BRANCH  23  24
ATOM     24  N   UNL     1       2.514   8.365  18.341  0.00  0.00    +0.000 N 
ATOM     25  H   UNL     1       3.405   8.836  18.487  0.00  0.00    +0.000 HD
BRANCH  24  26
ATOM     26  C   UNL     1       2.561   7.113  19.005  0.00  0.00    +0.000 A 
ATOM     27  N   UNL     1       1.790   6.942  20.094  0.00  0.00    +0.000 NA
ATOM     28  C   UNL     1       1.827   5.757  20.680  0.00  0.00    +0.000 A 
ATOM     29  N   UNL     1       2.540   4.696  20.277  0.00  0.00    +0.000 NA
ATOM     30  C   UNL     1       3.297   4.860  19.187  0.00  0.00    +0.000 A 
ATOM     31  C   UNL     1       4.039   3.786  18.705  0.00  0.00    +0.000 A 
ATOM     32  C   UNL     1       4.844   3.884  17.562  0.00  0.00    +0.000 A 
ATOM     33  C   UNL     1       4.943   5.101  16.887  0.00  0.00    +0.000 A 
ATOM     34  C   UNL     1       4.235   6.201  17.385  0.00  0.00    +0.000 A 
ATOM     35  C   UNL     1       3.378   6.089  18.509  0.00  0.00    +0.000 A 
BRANCH  33  36
ATOM     36  C   UNL     1       5.754   5.256  15.618  0.00  0.00    +0.000 C 
ATOM     37  F   UNL     1       5.940   4.084  14.944  0.00  0.00    +0.000 F 
ATOM     38  F   UNL     1       5.163   6.104  14.737  0.00  0.00    +0.000 F 
ATOM     39  F   UNL     1       6.992   5.761  15.853  0.00  0.00    +0.000 F 
ENDBRANCH  33  36
ENDBRANCH  24  26
ENDBRANCH  23  24
ENDBRANCH   2  23
TORSDOF 8
ENDMDL
