MODEL 1
REMARK VINA RESULT:      -6.8      0.000      0.000
REMARK  Name = 
REMARK  7 active torsions:
REMARK  status: ('A' for Active; 'I' for Inactive)
REMARK    1  A    between atoms: C_1  and  C_2
REMARK    2  A    between atoms: N_4  and  C_5
REMARK    3  A    between atoms: C_5  and  C_6
REMARK    4  A    between atoms: C_6  and  O_8
REMARK    5  A    between atoms: O_8  and  C_9
REMARK    6  A    between atoms: C_9  and  C_10
REMARK    7  A    between atoms: C_10  and  C_12
REMARK                            x       y       z     vdW  Elec       q    Type
REMARK                         _______ _______ _______ _____ _____    ______ ____
ROOT
ATOM      1  C   UNL     1       7.216   4.753  17.165  0.00  0.00    +0.000 C 
ENDROOT
BRANCH   1   2
ATOM      2  C   UNL     1       6.044   5.684  17.452  0.00  0.00    +0.000 C 
ATOM      3  O   UNL     1       6.095   6.894  17.225  0.00  0.00    +0.000 OA
BRANCH   2   4
ATOM      4  C   UNL     1       4.791   5.103  18.026  0.00  0.00    +0.000 A 
ATOM      5  C   UNL     1       3.962   4.233  17.303  0.00  0.00    +0.000 A 
ATOM      6  C   UNL     1       2.818   3.693  17.902  0.00  0.00    +0.000 A 
ATOM      7  C   UNL     1       2.497   4.023  19.218  0.00  0.00    +0.000 A 
ATOM      8 BR   UNL     1       0.971   3.261  20.032  0.00  0.00    +0.000 Br
ATOM      9  C   UNL     1       3.300   4.902  19.939  0.00  0.00    +0.000 A 
ATOM     10  C   UNL     1       4.444   5.441  19.343  0.00  0.00    +0.000 A 
ENDBRANCH   2   4
ENDBRANCH   1   2
BRANCH   1  11
ATOM     11  O   UNL     1       7.005   3.990  15.975  0.00  0.00    +0.000 OA
BRANCH  11  12
ATOM     12  C   UNL     1       7.031   4.703  14.815  0.00  0.00    +0.000 C 
ATOM     13  O   UNL     1       7.882   5.536  14.523  0.00  0.00    +0.000 OA
BRANCH  12  14
ATOM     14  C   UNL     1       5.929   4.243  13.872  0.00  0.00    +0.000 C 
BRANCH  14  18
ATOM     15  C   UNL     1       6.147   1.574  11.192  0.00  0.00    +0.000 C 
ATOM     16  C   UNL     1       5.596   2.757  11.944  0.00  0.00    +0.000 C 
ATOM     17  O   UNL     1       4.570   3.328  11.599  0.00  0.00    +0.000 OA
ATOM     18  N   UNL     1       6.345   3.127  13.033  0.00  0.00    +0.000 N 
ATOM     19  H   UNL     1       7.133   2.563  13.327  0.00  0.00    +0.000 HD
ENDBRANCH  14  18
ENDBRANCH  12  14
ENDBRANCH  11  12
ENDBRANCH   1  11
TORSDOF 6
ENDMDL
MODEL 2
REMARK VINA RESULT:      -6.8      3.369      4.517
REMARK  Name = 
REMARK  7 active torsions:
REMARK  status: ('A' for Active; 'I' for Inactive)
REMARK    1  A    between atoms: C_1  and  C_2
REMARK    2  A    between atoms: N_4  and  C_5
REMARK    3  A    between atoms: C_5  and  C_6
REMARK    4  A    between atoms: C_6  and  O_8
REMARK    5  A    between atoms: O_8  and  C_9
REMARK    6  A    between atoms: C_9  and  C_10
REMARK    7  A    between atoms: C_10  and  C_12
REMARK                            x       y       z     vdW  Elec       q    Type
REMARK                         _______ _______ _______ _____ _____    ______ ____
ROOT
ATOM      1  C   UNL     1       4.491   5.411  19.241  0.00  0.00    +0.000 C 
ENDROOT
BRANCH   1   2
ATOM      2  C   UNL     1       3.174   5.741  18.546  0.00  0.00    +0.000 C 
ATOM      3  O   UNL     1       2.647   4.973  17.740  0.00  0.00    +0.000 OA
BRANCH   2   4
ATOM      4  C   UNL     1       2.504   7.040  18.860  0.00  0.00    +0.000 A 
ATOM      5  C   UNL     1       2.389   8.077  17.922  0.00  0.00    +0.000 A 
ATOM      6  C   UNL     1       1.722   9.260  18.260  0.00  0.00    +0.000 A 
ATOM      7  C   UNL     1       1.172   9.412  19.533  0.00  0.00    +0.000 A 
ATOM      8 BR   UNL     1       0.241  10.997  19.970  0.00  0.00    +0.000 Br
ATOM      9  C   UNL     1       1.296   8.398  20.479  0.00  0.00    +0.000 A 
ATOM     10  C   UNL     1       1.962   7.216  20.143  0.00  0.00    +0.000 A 
ENDBRANCH   2   4
ENDBRANCH   1   2
BRANCH   1  11
ATOM     11  O   UNL     1       5.616   5.783  18.444  0.00  0.00    +0.000 OA
BRANCH  11  12
ATOM     12  C   UNL     1       6.821   5.338  18.895  0.00  0.00    +0.000 C 
ATOM     13  O   UNL     1       7.147   5.273  20.075  0.00  0.00    +0.000 OA
BRANCH  12  14
ATOM     14  C   UNL     1       7.670   4.813  17.746  0.00  0.00    +0.000 C 
BRANCH  14  18
ATOM     15  C   UNL     1       6.029   3.861  14.467  0.00  0.00    +0.000 C 
ATOM     16  C   UNL     1       6.928   4.613  15.413  0.00  0.00    +0.000 C 
ATOM     17  O   UNL     1       7.644   5.532  15.038  0.00  0.00    +0.000 OA
ATOM     18  N   UNL     1       6.870   4.171  16.711  0.00  0.00    +0.000 N 
ATOM     19  H   UNL     1       6.193   3.470  16.983  0.00  0.00    +0.000 HD
ENDBRANCH  14  18
ENDBRANCH  12  14
ENDBRANCH  11  12
ENDBRANCH   1  11
TORSDOF 6
ENDMDL
MODEL 3
REMARK VINA RESULT:      -6.6      1.531      1.747
REMARK  Name = 
REMARK  7 active torsions:
REMARK  status: ('A' for Active; 'I' for Inactive)
REMARK    1  A    between atoms: C_1  and  C_2
REMARK    2  A    between atoms: N_4  and  C_5
REMARK    3  A    between atoms: C_5  and  C_6
REMARK    4  A    between atoms: C_6  and  O_8
REMARK    5  A    between atoms: O_8  and  C_9
REMARK    6  A    between atoms: C_9  and  C_10
REMARK    7  A    between atoms: C_10  and  C_12
REMARK                            x       y       z     vdW  Elec       q    Type
REMARK                         _______ _______ _______ _____ _____    ______ ____
ROOT
ATOM      1  C   UNL     1       6.815   6.594  17.574  0.00  0.00    +0.000 C 
ENDROOT
BRANCH   1   2
ATOM      2  C   UNL     1       6.692   5.444  18.566  0.00  0.00    +0.000 C 
ATOM      3  O   UNL     1       7.678   4.904  19.071  0.00  0.00    +0.000 OA
BRANCH   2   4
ATOM      4  C   UNL     1       5.326   4.960  18.939  0.00  0.00    +0.000 A 
ATOM      5  C   UNL     1       4.994   3.599  18.985  0.00  0.00    +0.000 A 
ATOM      6  C   UNL     1       3.709   3.202  19.373  0.00  0.00    +0.000 A 
ATOM      7  C   UNL     1       2.754   4.161  19.710  0.00  0.00    +0.000 A 
ATOM      8 BR   UNL     1       1.032   3.616  20.267  0.00  0.00    +0.000 Br
ATOM      9  C   UNL     1       3.066   5.516  19.648  0.00  0.00    +0.000 A 
ATOM     10  C   UNL     1       4.349   5.914  19.262  0.00  0.00    +0.000 A 
ENDBRANCH   2   4
ENDBRANCH   1   2
BRANCH   1  11
ATOM     11  O   UNL     1       7.376   6.162  16.333  0.00  0.00    +0.000 OA
BRANCH  11  12
ATOM     12  C   UNL     1       6.494   5.605  15.458  0.00  0.00    +0.000 C 
ATOM     13  O   UNL     1       5.427   6.109  15.122  0.00  0.00    +0.000 OA
BRANCH  12  14
ATOM     14  C   UNL     1       7.061   4.329  14.855  0.00  0.00    +0.000 C 
BRANCH  14  18
ATOM     15  C   UNL     1       5.199   2.951  11.857  0.00  0.00    +0.000 C 
ATOM     16  C   UNL     1       6.277   3.675  12.620  0.00  0.00    +0.000 C 
ATOM     17  O   UNL     1       7.216   4.224  12.059  0.00  0.00    +0.000 OA
ATOM     18  N   UNL     1       6.109   3.655  13.982  0.00  0.00    +0.000 N 
ATOM     19  H   UNL     1       5.267   3.266  14.387  0.00  0.00    +0.000 HD
ENDBRANCH  14  18
ENDBRANCH  12  14
ENDBRANCH  11  12
ENDBRANCH   1  11
TORSDOF 6
ENDMDL
MODEL 4
REMARK VINA RESULT:      -6.5      1.137      1.307
REMARK  Name = 
REMARK  7 active torsions:
REMARK  status: ('A' for Active; 'I' for Inactive)
REMARK    1  A    between atoms: C_1  and  C_2
REMARK    2  A    between atoms: N_4  and  C_5
REMARK    3  A    between atoms: C_5  and  C_6
REMARK    4  A    between atoms: C_6  and  O_8
REMARK    5  A    between atoms: O_8  and  C_9
REMARK    6  A    between atoms: C_9  and  C_10
REMARK    7  A    between atoms: C_10  and  C_12
REMARK                            x       y       z     vdW  Elec       q    Type
REMARK                         _______ _______ _______ _____ _____    ______ ____
ROOT
ATOM      1  C   UNL     1       6.335   4.332  16.590  0.00  0.00    +0.000 C 
ENDROOT
BRANCH   1   2
ATOM      2  C   UNL     1       5.040   5.045  16.963  0.00  0.00    +0.000 C 
ATOM      3  O   UNL     1       4.680   6.085  16.410  0.00  0.00    +0.000 OA
BRANCH   2   4
ATOM      4  C   UNL     1       4.180   4.455  18.035  0.00  0.00    +0.000 A 
ATOM      5  C   UNL     1       4.638   3.457  18.907  0.00  0.00    +0.000 A 
ATOM      6  C   UNL     1       3.799   2.964  19.914  0.00  0.00    +0.000 A 
ATOM      7  C   UNL     1       2.504   3.463  20.049  0.00  0.00    +0.000 A 
ATOM      8 BR   UNL     1       1.390   2.820  21.433  0.00  0.00    +0.000 Br
ATOM      9  C   UNL     1       2.031   4.440  19.177  0.00  0.00    +0.000 A 
ATOM     10  C   UNL     1       2.868   4.933  18.172  0.00  0.00    +0.000 A 
ENDBRANCH   2   4
ENDBRANCH   1   2
BRANCH   1  11
ATOM     11  O   UNL     1       6.256   3.738  15.293  0.00  0.00    +0.000 OA
BRANCH  11  12
ATOM     12  C   UNL     1       6.708   4.514  14.270  0.00  0.00    +0.000 C 
ATOM     13  O   UNL     1       7.630   5.319  14.354  0.00  0.00    +0.000 OA
BRANCH  12  14
ATOM     14  C   UNL     1       5.998   4.165  12.970  0.00  0.00    +0.000 C 
BRANCH  14  18
ATOM     15  C   UNL     1       6.251   0.890  11.083  0.00  0.00    +0.000 C 
ATOM     16  C   UNL     1       5.647   2.185  11.559  0.00  0.00    +0.000 C 
ATOM     17  O   UNL     1       4.535   2.555  11.204  0.00  0.00    +0.000 OA
ATOM     18  N   UNL     1       6.453   2.900  12.410  0.00  0.00    +0.000 N 
ATOM     19  H   UNL     1       7.322   2.503  12.743  0.00  0.00    +0.000 HD
ENDBRANCH  14  18
ENDBRANCH  12  14
ENDBRANCH  11  12
ENDBRANCH   1  11
TORSDOF 6
ENDMDL
MODEL 5
REMARK VINA RESULT:      -6.5      1.271      1.660
REMARK  Name = 
REMARK  7 active torsions:
REMARK  status: ('A' for Active; 'I' for Inactive)
REMARK    1  A    between atoms: C_1  and  C_2
REMARK    2  A    between atoms: N_4  and  C_5
REMARK    3  A    between atoms: C_5  and  C_6
REMARK    4  A    between atoms: C_6  and  O_8
REMARK    5  A    between atoms: O_8  and  C_9
REMARK    6  A    between atoms: C_9  and  C_10
REMARK    7  A    between atoms: C_10  and  C_12
REMARK                            x       y       z     vdW  Elec       q    Type
REMARK                         _______ _______ _______ _____ _____    ______ ____
ROOT
ATOM      1  C   UNL     1       6.583   6.262  17.662  0.00  0.00    +0.000 C 
ENDROOT
BRANCH   1   2
ATOM      2  C   UNL     1       6.332   5.552  18.987  0.00  0.00    +0.000 C 
ATOM      3  O   UNL     1       7.208   5.434  19.846  0.00  0.00    +0.000 OA
BRANCH   2   4
ATOM      4  C   UNL     1       4.974   4.982  19.250  0.00  0.00    +0.000 A 
ATOM      5  C   UNL     1       3.845   5.788  19.457  0.00  0.00    +0.000 A 
ATOM      6  C   UNL     1       2.591   5.201  19.666  0.00  0.00    +0.000 A 
ATOM      7  C   UNL     1       2.464   3.812  19.674  0.00  0.00    +0.000 A 
ATOM      8 BR   UNL     1       0.763   3.027  19.921  0.00  0.00    +0.000 Br
ATOM      9  C   UNL     1       3.581   3.001  19.490  0.00  0.00    +0.000 A 
ATOM     10  C   UNL     1       4.833   3.587  19.280  0.00  0.00    +0.000 A 
ENDBRANCH   2   4
ENDBRANCH   1   2
BRANCH   1  11
ATOM     11  O   UNL     1       5.869   5.645  16.589  0.00  0.00    +0.000 OA
BRANCH  11  12
ATOM     12  C   UNL     1       6.634   4.936  15.714  0.00  0.00    +0.000 C 
ATOM     13  O   UNL     1       7.792   4.590  15.916  0.00  0.00    +0.000 OA
BRANCH  12  14
ATOM     14  C   UNL     1       5.821   4.522  14.496  0.00  0.00    +0.000 C 
BRANCH  14  18
ATOM     15  C   UNL     1       6.962   2.489  11.510  0.00  0.00    +0.000 C 
ATOM     16  C   UNL     1       6.029   3.285  12.384  0.00  0.00    +0.000 C 
ATOM     17  O   UNL     1       4.863   3.493  12.072  0.00  0.00    +0.000 OA
ATOM     18  N   UNL     1       6.603   3.751  13.540  0.00  0.00    +0.000 N 
ATOM     19  H   UNL     1       7.543   3.472  13.791  0.00  0.00    +0.000 HD
ENDBRANCH  14  18
ENDBRANCH  12  14
ENDBRANCH  11  12
ENDBRANCH   1  11
TORSDOF 6
ENDMDL
MODEL 6
REMARK VINA RESULT:      -6.5      1.225      1.241
REMARK  Name = 
REMARK  7 active torsions:
REMARK  status: ('A' for Active; 'I' for Inactive)
REMARK    1  A    between atoms: C_1  and  C_2
REMARK    2  A    between atoms: N_4  and  C_5
REMARK    3  A    between atoms: C_5  and  C_6
REMARK    4  A    between atoms: C_6  and  O_8
REMARK    5  A    between atoms: O_8  and  C_9
REMARK    6  A    between atoms: C_9  and  C_10
REMARK    7  A    between atoms: C_10  and  C_12
REMARK                            x       y       z     vdW  Elec       q    Type
REMARK                         _______ _______ _______ _____ _____    ______ ____
ROOT
ATOM      1  C   UNL     1       7.295   5.460  17.572  0.00  0.00    +0.000 C 
ENDROOT
BRANCH   1   2
ATOM      2  C   UNL     1       6.711   5.217  18.959  0.00  0.00    +0.000 C 
ATOM      3  O   UNL     1       7.341   5.462  19.989  0.00  0.00    +0.000 OA
BRANCH   2   4
ATOM      4  C   UNL     1       5.324   4.666  19.067  0.00  0.00    +0.000 A 
ATOM      5  C   UNL     1       5.044   3.298  18.947  0.00  0.00    +0.000 A 
ATOM      6  C   UNL     1       3.731   2.834  19.090  0.00  0.00    +0.000 A 
ATOM      7  C   UNL     1       2.697   3.733  19.348  0.00  0.00    +0.000 A 
ATOM      8 BR   UNL     1       0.933   3.096  19.576  0.00  0.00    +0.000 Br
ATOM      9  C   UNL     1       2.960   5.097  19.449  0.00  0.00    +0.000 A 
ATOM     10  C   UNL     1       4.270   5.561  19.308  0.00  0.00    +0.000 A 
ENDBRANCH   2   4
ENDBRANCH   1   2
BRANCH   1  11
ATOM     11  O   UNL     1       6.889   4.452  16.644  0.00  0.00    +0.000 OA
BRANCH  11  12
ATOM     12  C   UNL     1       6.940   4.815  15.333  0.00  0.00    +0.000 C 
ATOM     13  O   UNL     1       7.824   5.499  14.828  0.00  0.00    +0.000 OA
BRANCH  12  14
ATOM     14  C   UNL     1       5.818   4.156  14.545  0.00  0.00    +0.000 C 
BRANCH  14  18
ATOM     15  C   UNL     1       6.202   2.124  11.371  0.00  0.00    +0.000 C 
ATOM     16  C   UNL     1       5.557   3.054  12.364  0.00  0.00    +0.000 C 
ATOM     17  O   UNL     1       4.455   3.549  12.173  0.00  0.00    +0.000 OA
ATOM     18  N   UNL     1       6.316   3.291  13.484  0.00  0.00    +0.000 N 
ATOM     19  H   UNL     1       7.178   2.783  13.633  0.00  0.00    +0.000 HD
ENDBRANCH  14  18
ENDBRANCH  12  14
ENDBRANCH  11  12
ENDBRANCH   1  11
TORSDOF 6
ENDMDL
MODEL 7
REMARK VINA RESULT:      -6.4      2.086      2.456
REMARK  Name = 
REMARK  7 active torsions:
REMARK  status: ('A' for Active; 'I' for Inactive)
REMARK    1  A    between atoms: C_1  and  C_2
REMARK    2  A    between atoms: N_4  and  C_5
REMARK    3  A    between atoms: C_5  and  C_6
REMARK    4  A    between atoms: C_6  and  O_8
REMARK    5  A    between atoms: O_8  and  C_9
REMARK    6  A    between atoms: C_9  and  C_10
REMARK    7  A    between atoms: C_10  and  C_12
REMARK                            x       y       z     vdW  Elec       q    Type
REMARK                         _______ _______ _______ _____ _____    ______ ____
ROOT
ATOM      1  C   UNL     1       5.075   3.772  16.644  0.00  0.00    +0.000 C 
ENDROOT
BRANCH   1   2
ATOM      2  C   UNL     1       5.243   4.612  17.905  0.00  0.00    +0.000 C 
ATOM      3  O   UNL     1       6.172   4.433  18.694  0.00  0.00    +0.000 OA
BRANCH   2   4
ATOM      4  C   UNL     1       4.245   5.690  18.187  0.00  0.00    +0.000 A 
ATOM      5  C   UNL     1       3.432   5.685  19.329  0.00  0.00    +0.000 A 
ATOM      6  C   UNL     1       2.538   6.737  19.560  0.00  0.00    +0.000 A 
ATOM      7  C   UNL     1       2.451   7.791  18.651  0.00  0.00    +0.000 A 
ATOM      8 BR   UNL     1       1.269   9.227  18.987  0.00  0.00    +0.000 Br
ATOM      9  C   UNL     1       3.239   7.798  17.503  0.00  0.00    +0.000 A 
ATOM     10  C   UNL     1       4.133   6.748  17.272  0.00  0.00    +0.000 A 
ENDBRANCH   2   4
ENDBRANCH   1   2
BRANCH   1  11
ATOM     11  O   UNL     1       6.313   3.610  15.950  0.00  0.00    +0.000 OA
BRANCH  11  12
ATOM     12  C   UNL     1       6.602   4.581  15.040  0.00  0.00    +0.000 C 
ATOM     13  O   UNL     1       7.450   5.455  15.192  0.00  0.00    +0.000 OA
BRANCH  12  14
ATOM     14  C   UNL     1       5.817   4.370  13.754  0.00  0.00    +0.000 C 
BRANCH  14  18
ATOM     15  C   UNL     1       6.209   1.559  11.245  0.00  0.00    +0.000 C 
ATOM     16  C   UNL     1       5.580   2.746  11.926  0.00  0.00    +0.000 C 
ATOM     17  O   UNL     1       4.516   3.223  11.553  0.00  0.00    +0.000 OA
ATOM     18  N   UNL     1       6.306   3.235  12.984  0.00  0.00    +0.000 N 
ATOM     19  H   UNL     1       7.131   2.746  13.306  0.00  0.00    +0.000 HD
ENDBRANCH  14  18
ENDBRANCH  12  14
ENDBRANCH  11  12
ENDBRANCH   1  11
TORSDOF 6
ENDMDL
MODEL 8
REMARK VINA RESULT:      -6.4      1.272      1.533
REMARK  Name = 
REMARK  7 active torsions:
REMARK  status: ('A' for Active; 'I' for Inactive)
REMARK    1  A    between atoms: C_1  and  C_2
REMARK    2  A    between atoms: N_4  and  C_5
REMARK    3  A    between atoms: C_5  and  C_6
REMARK    4  A    between atoms: C_6  and  O_8
REMARK    5  A    between atoms: O_8  and  C_9
REMARK    6  A    between atoms: C_9  and  C_10
REMARK    7  A    between atoms: C_10  and  C_12
REMARK                            x       y       z     vdW  Elec       q    Type
REMARK                         _______ _______ _______ _____ _____    ______ ____
ROOT
ATOM      1  C   UNL     1       5.269   5.819  15.602  0.00  0.00    +0.000 C 
ENDROOT
BRANCH   1   2
ATOM      2  C   UNL     1       5.316   6.073  17.104  0.00  0.00    +0.000 C 
ATOM      3  O   UNL     1       6.094   6.884  17.610  0.00  0.00    +0.000 OA
BRANCH   2   4
ATOM      4  C   UNL     1       4.381   5.313  17.990  0.00  0.00    +0.000 A 
ATOM      5  C   UNL     1       4.813   4.281  18.835  0.00  0.00    +0.000 A 
ATOM      6  C   UNL     1       3.899   3.624  19.668  0.00  0.00    +0.000 A 
ATOM      7  C   UNL     1       2.554   3.993  19.655  0.00  0.00    +0.000 A 
ATOM      8 BR   UNL     1       1.332   3.128  20.808  0.00  0.00    +0.000 Br
ATOM      9  C   UNL     1       2.109   5.002  18.806  0.00  0.00    +0.000 A 
ATOM     10  C   UNL     1       3.021   5.659  17.975  0.00  0.00    +0.000 A 
ENDBRANCH   2   4
ENDBRANCH   1   2
BRANCH   1  11
ATOM     11  O   UNL     1       5.943   4.610  15.250  0.00  0.00    +0.000 OA
BRANCH  11  12
ATOM     12  C   UNL     1       6.816   4.713  14.210  0.00  0.00    +0.000 C 
ATOM     13  O   UNL     1       7.739   5.518  14.146  0.00  0.00    +0.000 OA
BRANCH  12  14
ATOM     14  C   UNL     1       6.572   3.613  13.187  0.00  0.00    +0.000 C 
BRANCH  14  18
ATOM     15  C   UNL     1       3.593   3.188  10.886  0.00  0.00    +0.000 C 
ATOM     16  C   UNL     1       4.891   2.845  11.569  0.00  0.00    +0.000 C 
ATOM     17  O   UNL     1       5.492   1.803  11.340  0.00  0.00    +0.000 OA
ATOM     18  N   UNL     1       5.323   3.794  12.462  0.00  0.00    +0.000 N 
ATOM     19  H   UNL     1       4.835   4.677  12.543  0.00  0.00    +0.000 HD
ENDBRANCH  14  18
ENDBRANCH  12  14
ENDBRANCH  11  12
ENDBRANCH   1  11
TORSDOF 6
ENDMDL
MODEL 9
REMARK VINA RESULT:      -6.3      4.466      6.729
REMARK  Name = 
REMARK  7 active torsions:
REMARK  status: ('A' for Active; 'I' for Inactive)
REMARK    1  A    between atoms: C_1  and  C_2
REMARK    2  A    between atoms: N_4  and  C_5
REMARK    3  A    between atoms: C_5  and  C_6
REMARK    4  A    between atoms: C_6  and  O_8
REMARK    5  A    between atoms: O_8  and  C_9
REMARK    6  A    between atoms: C_9  and  C_10
REMARK    7  A    between atoms: C_10  and  C_12
REMARK                            x       y       z     vdW  Elec       q    Type
REMARK                         _______ _______ _______ _____ _____    ______ ____
ROOT
ATOM      1  C   UNL     1       3.048   2.524  19.610  0.00  0.00    +0.000 C 
ENDROOT
BRANCH   1   2
ATOM      2  C   UNL     1       3.524   2.860  18.201  0.00  0.00    +0.000 C 
ATOM      3  O   UNL     1       3.100   2.269  17.206  0.00  0.00    +0.000 OA
BRANCH   2   4
ATOM      4  C   UNL     1       4.538   3.945  18.026  0.00  0.00    +0.000 A 
ATOM      5  C   UNL     1       4.799   4.541  16.783  0.00  0.00    +0.000 A 
ATOM      6  C   UNL     1       5.736   5.576  16.683  0.00  0.00    +0.000 A 
ATOM      7  C   UNL     1       6.415   6.015  17.820  0.00  0.00    +0.000 A 
ATOM      8 BR   UNL     1       7.652   7.438  17.684  0.00  0.00    +0.000 Br
ATOM      9  C   UNL     1       6.179   5.418  19.055  0.00  0.00    +0.000 A 
ATOM     10  C   UNL     1       5.243   4.385  19.156  0.00  0.00    +0.000 A 
ENDBRANCH   2   4
ENDBRANCH   1   2
BRANCH   1  11
ATOM     11  O   UNL     1       1.863   3.245  19.952  0.00  0.00    +0.000 OA
BRANCH  11  12
ATOM     12  C   UNL     1       1.908   3.909  21.140  0.00  0.00    +0.000 C 
ATOM     13  O   UNL     1       2.176   3.394  22.221  0.00  0.00    +0.000 OA
BRANCH  12  14
ATOM     14  C   UNL     1       1.704   5.402  20.935  0.00  0.00    +0.000 C 
BRANCH  14  18
ATOM     15  C   UNL     1       2.883   7.542  18.040  0.00  0.00    +0.000 C 
ATOM     16  C   UNL     1       2.261   7.214  19.371  0.00  0.00    +0.000 C 
ATOM     17  O   UNL     1       1.785   8.075  20.098  0.00  0.00    +0.000 OA
ATOM     18  N   UNL     1       2.285   5.878  19.687  0.00  0.00    +0.000 N 
ATOM     19  H   UNL     1       2.608   5.199  19.009  0.00  0.00    +0.000 HD
ENDBRANCH  14  18
ENDBRANCH  12  14
ENDBRANCH  11  12
ENDBRANCH   1  11
TORSDOF 6
ENDMDL
