MODEL 1
REMARK VINA RESULT:      -7.8      0.000      0.000
REMARK  Name = 
REMARK  8 active torsions:
REMARK  status: ('A' for Active; 'I' for Inactive)
REMARK    1  A    between atoms: C_1  and  C_2
REMARK    2  A    between atoms: N_4  and  C_5
REMARK    3  A    between atoms: C_11  and  S_12
REMARK    4  A    between atoms: S_12  and  C_15
REMARK    5  A    between atoms: C_22  and  C_23
REMARK    6  A    between atoms: N_24  and  O_25
REMARK    7  A    between atoms: O_25  and  C_26
REMARK    8  A    between atoms: C_26  and  C_27
REMARK                            x       y       z     vdW  Elec       q    Type
REMARK                         _______ _______ _______ _____ _____    ______ ____
ROOT
ATOM      1  C   UNL     1       0.818   8.800  22.352  0.00  0.00    +0.000 C 
ATOM      2  C   UNL     1      -0.007   9.998  22.037  0.00  0.00    +0.000 A 
ATOM      3  N   UNL     1      -0.461  10.784  23.009  0.00  0.00    +0.000 NA
ATOM      4  N   UNL     1      -1.294  11.675  22.397  0.00  0.00    +0.000 N 
ATOM      5  C   UNL     1      -1.211  11.572  21.005  0.00  0.00    +0.000 A 
ATOM      6  C   UNL     1      -0.389  10.467  20.763  0.00  0.00    +0.000 A 
ENDROOT
BRANCH   4   7
ATOM      7  C   UNL     1      -1.966  12.622  23.234  0.00  0.00    +0.000 A 
ATOM      8  C   UNL     1      -1.354  13.861  23.492  0.00  0.00    +0.000 A 
ATOM      9  C   UNL     1      -2.070  14.886  24.123  0.00  0.00    +0.000 A 
ATOM     10  C   UNL     1      -3.390  14.675  24.517  0.00  0.00    +0.000 A 
ATOM     11  C   UNL     1      -3.967  13.420  24.347  0.00  0.00    +0.000 A 
ATOM     12  C   UNL     1      -3.248  12.385  23.740  0.00  0.00    +0.000 A 
ENDBRANCH   4   7
BRANCH   5  13
ATOM     13  S   UNL     1      -1.915  12.738  19.870  0.00  0.00    +0.000 S 
ATOM     14  O   UNL     1      -3.066  13.318  20.532  0.00  0.00    +0.000 OA
ATOM     15  O   UNL     1      -0.797  13.540  19.426  0.00  0.00    +0.000 OA
BRANCH  13  16
ATOM     16  C   UNL     1      -2.624  11.912  18.475  0.00  0.00    +0.000 A 
ATOM     17  C   UNL     1      -1.813  11.559  17.392  0.00  0.00    +0.000 A 
ATOM     18  C   UNL     1      -2.391  10.955  16.280  0.00  0.00    +0.000 A 
ATOM     19  C   UNL     1      -3.757  10.673  16.284  0.00  0.00    +0.000 A 
ATOM     20  F   UNL     1      -4.301  10.080  15.214  0.00  0.00    +0.000 F 
ATOM     21  C   UNL     1      -4.559  10.995  17.373  0.00  0.00    +0.000 A 
ATOM     22  C   UNL     1      -3.995  11.625  18.481  0.00  0.00    +0.000 A 
ENDBRANCH  13  16
ENDBRANCH   5  13
BRANCH   6  23
ATOM     23  C   UNL     1       0.089   9.931  19.507  0.00  0.00    +0.000 C 
ATOM     24  N   UNL     1       1.237  10.255  19.020  0.00  0.00    +0.000 NA
BRANCH  24  25
ATOM     25  O   UNL     1       1.450   9.498  17.852  0.00  0.00    +0.000 OA
BRANCH  25  26
ATOM     26  C   UNL     1       2.844   9.183  17.751  0.00  0.00    +0.000 C 
BRANCH  26  27
ATOM     27  C   UNL     1       3.001   7.688  17.742  0.00  0.00    +0.000 A 
ATOM     28  C   UNL     1       2.043   6.835  18.303  0.00  0.00    +0.000 A 
ATOM     29  C   UNL     1       2.242   5.456  18.270  0.00  0.00    +0.000 A 
ATOM     30  C   UNL     1       3.397   4.981  17.676  0.00  0.00    +0.000 A 
ATOM     31 CL   UNL     1       3.717   3.298  17.594  0.00  0.00    +0.000 Cl
ATOM     32  N   UNL     1       4.348   5.763  17.127  0.00  0.00    +0.000 NA
ATOM     33  C   UNL     1       4.126   7.097  17.173  0.00  0.00    +0.000 A 
ENDBRANCH  26  27
ENDBRANCH  25  26
ENDBRANCH  24  25
ENDBRANCH   6  23
TORSDOF 7
ENDMDL
MODEL 2
REMARK VINA RESULT:      -7.8      1.461      1.966
REMARK  Name = 
REMARK  8 active torsions:
REMARK  status: ('A' for Active; 'I' for Inactive)
REMARK    1  A    between atoms: C_1  and  C_2
REMARK    2  A    between atoms: N_4  and  C_5
REMARK    3  A    between atoms: C_11  and  S_12
REMARK    4  A    between atoms: S_12  and  C_15
REMARK    5  A    between atoms: C_22  and  C_23
REMARK    6  A    between atoms: N_24  and  O_25
REMARK    7  A    between atoms: O_25  and  C_26
REMARK    8  A    between atoms: C_26  and  C_27
REMARK                            x       y       z     vdW  Elec       q    Type
REMARK                         _______ _______ _______ _____ _____    ______ ____
ROOT
ATOM      1  C   UNL     1       1.009   9.064  22.354  0.00  0.00    +0.000 C 
ATOM      2  C   UNL     1       0.147  10.218  21.980  0.00  0.00    +0.000 A 
ATOM      3  N   UNL     1      -0.294  11.065  22.905  0.00  0.00    +0.000 NA
ATOM      4  N   UNL     1      -1.167  11.889  22.258  0.00  0.00    +0.000 N 
ATOM      5  C   UNL     1      -1.127  11.684  20.875  0.00  0.00    +0.000 A 
ATOM      6  C   UNL     1      -0.287  10.582  20.688  0.00  0.00    +0.000 A 
ENDROOT
BRANCH   4   7
ATOM      7  C   UNL     1      -1.834  12.882  23.044  0.00  0.00    +0.000 A 
ATOM      8  C   UNL     1      -3.165  12.659  23.441  0.00  0.00    +0.000 A 
ATOM      9  C   UNL     1      -3.773  13.500  24.380  0.00  0.00    +0.000 A 
ATOM     10  C   UNL     1      -3.068  14.576  24.914  0.00  0.00    +0.000 A 
ATOM     11  C   UNL     1      -1.784  14.855  24.454  0.00  0.00    +0.000 A 
ATOM     12  C   UNL     1      -1.180  14.032  23.497  0.00  0.00    +0.000 A 
ENDBRANCH   4   7
BRANCH   5  13
ATOM     13  S   UNL     1      -1.894  12.747  19.681  0.00  0.00    +0.000 S 
ATOM     14  O   UNL     1      -2.190  13.991  20.364  0.00  0.00    +0.000 OA
ATOM     15  O   UNL     1      -1.026  12.690  18.527  0.00  0.00    +0.000 OA
BRANCH  13  16
ATOM     16  C   UNL     1      -3.495  12.141  19.233  0.00  0.00    +0.000 A 
ATOM     17  C   UNL     1      -3.634  11.311  18.116  0.00  0.00    +0.000 A 
ATOM     18  C   UNL     1      -4.904  10.882  17.744  0.00  0.00    +0.000 A 
ATOM     19  C   UNL     1      -6.007  11.249  18.515  0.00  0.00    +0.000 A 
ATOM     20  F   UNL     1      -7.223  10.820  18.156  0.00  0.00    +0.000 F 
ATOM     21  C   UNL     1      -5.866  12.048  19.644  0.00  0.00    +0.000 A 
ATOM     22  C   UNL     1      -4.601  12.506  20.010  0.00  0.00    +0.000 A 
ENDBRANCH  13  16
ENDBRANCH   5  13
BRANCH   6  23
ATOM     23  C   UNL     1       0.161   9.963  19.460  0.00  0.00    +0.000 C 
ATOM     24  N   UNL     1       1.392   9.625  19.276  0.00  0.00    +0.000 NA
BRANCH  24  25
ATOM     25  O   UNL     1       1.488   8.964  18.037  0.00  0.00    +0.000 OA
BRANCH  25  26
ATOM     26  C   UNL     1       2.671   8.158  18.032  0.00  0.00    +0.000 C 
BRANCH  26  27
ATOM     27  C   UNL     1       2.344   6.821  18.638  0.00  0.00    +0.000 A 
ATOM     28  C   UNL     1       2.229   6.638  20.021  0.00  0.00    +0.000 A 
ATOM     29  C   UNL     1       1.929   5.376  20.529  0.00  0.00    +0.000 A 
ATOM     30  C   UNL     1       1.758   4.338  19.629  0.00  0.00    +0.000 A 
ATOM     31 CL   UNL     1       1.386   2.755  20.172  0.00  0.00    +0.000 Cl
ATOM     32  N   UNL     1       1.864   4.466  18.292  0.00  0.00    +0.000 NA
ATOM     33  C   UNL     1       2.154   5.704  17.829  0.00  0.00    +0.000 A 
ENDBRANCH  26  27
ENDBRANCH  25  26
ENDBRANCH  24  25
ENDBRANCH   6  23
TORSDOF 7
ENDMDL
MODEL 3
REMARK VINA RESULT:      -7.6      8.216     10.468
REMARK  Name = 
REMARK  8 active torsions:
REMARK  status: ('A' for Active; 'I' for Inactive)
REMARK    1  A    between atoms: C_1  and  C_2
REMARK    2  A    between atoms: N_4  and  C_5
REMARK    3  A    between atoms: C_11  and  S_12
REMARK    4  A    between atoms: S_12  and  C_15
REMARK    5  A    between atoms: C_22  and  C_23
REMARK    6  A    between atoms: N_24  and  O_25
REMARK    7  A    between atoms: O_25  and  C_26
REMARK    8  A    between atoms: C_26  and  C_27
REMARK                            x       y       z     vdW  Elec       q    Type
REMARK                         _______ _______ _______ _____ _____    ______ ____
ROOT
ATOM      1  C   UNL     1       6.588   4.416  14.243  0.00  0.00    +0.000 C 
ATOM      2  C   UNL     1       5.776   4.511  15.486  0.00  0.00    +0.000 A 
ATOM      3  N   UNL     1       4.738   3.703  15.683  0.00  0.00    +0.000 NA
ATOM      4  N   UNL     1       4.135   4.155  16.820  0.00  0.00    +0.000 N 
ATOM      5  C   UNL     1       4.912   5.133  17.451  0.00  0.00    +0.000 A 
ATOM      6  C   UNL     1       5.974   5.384  16.576  0.00  0.00    +0.000 A 
ENDROOT
BRANCH   4   7
ATOM      7  C   UNL     1       2.944   3.483  17.240  0.00  0.00    +0.000 A 
ATOM      8  C   UNL     1       3.011   2.120  17.579  0.00  0.00    +0.000 A 
ATOM      9  C   UNL     1       1.923   1.488  18.193  0.00  0.00    +0.000 A 
ATOM     10  C   UNL     1       0.757   2.205  18.454  0.00  0.00    +0.000 A 
ATOM     11  C   UNL     1       0.653   3.528  18.036  0.00  0.00    +0.000 A 
ATOM     12  C   UNL     1       1.729   4.157  17.399  0.00  0.00    +0.000 A 
ENDBRANCH   4   7
BRANCH   5  13
ATOM     13  S   UNL     1       4.612   5.752  19.085  0.00  0.00    +0.000 S 
ATOM     14  O   UNL     1       5.903   5.835  19.739  0.00  0.00    +0.000 OA
ATOM     15  O   UNL     1       3.771   6.910  18.890  0.00  0.00    +0.000 OA
BRANCH  13  16
ATOM     16  C   UNL     1       3.741   4.561  20.061  0.00  0.00    +0.000 A 
ATOM     17  C   UNL     1       2.511   4.900  20.634  0.00  0.00    +0.000 A 
ATOM     18  C   UNL     1       1.859   3.973  21.440  0.00  0.00    +0.000 A 
ATOM     19  C   UNL     1       2.421   2.709  21.627  0.00  0.00    +0.000 A 
ATOM     20  F   UNL     1       1.779   1.820  22.395  0.00  0.00    +0.000 F 
ATOM     21  C   UNL     1       3.628   2.360  21.033  0.00  0.00    +0.000 A 
ATOM     22  C   UNL     1       4.303   3.291  20.244  0.00  0.00    +0.000 A 
ENDBRANCH  13  16
ENDBRANCH   5  13
BRANCH   6  23
ATOM     23  C   UNL     1       7.113   6.260  16.737  0.00  0.00    +0.000 C 
ATOM     24  N   UNL     1       6.980   7.501  17.060  0.00  0.00    +0.000 NA
BRANCH  24  25
ATOM     25  O   UNL     1       8.263   8.052  17.235  0.00  0.00    +0.000 OA
BRANCH  25  26
ATOM     26  C   UNL     1       8.405   8.472  18.596  0.00  0.00    +0.000 C 
BRANCH  26  27
ATOM     27  C   UNL     1       8.804   9.922  18.613  0.00  0.00    +0.000 A 
ATOM     28  C   UNL     1       8.369  10.826  17.638  0.00  0.00    +0.000 A 
ATOM     29  C   UNL     1       8.773  12.158  17.699  0.00  0.00    +0.000 A 
ATOM     30  C   UNL     1       9.604  12.536  18.739  0.00  0.00    +0.000 A 
ATOM     31 CL   UNL     1      10.146  14.156  18.887  0.00  0.00    +0.000 Cl
ATOM     32  N   UNL     1      10.051  11.701  19.698  0.00  0.00    +0.000 NA
ATOM     33  C   UNL     1       9.640  10.415  19.612  0.00  0.00    +0.000 A 
ENDBRANCH  26  27
ENDBRANCH  25  26
ENDBRANCH  24  25
ENDBRANCH   6  23
TORSDOF 7
ENDMDL
MODEL 4
REMARK VINA RESULT:      -7.6      1.106      1.487
REMARK  Name = 
REMARK  8 active torsions:
REMARK  status: ('A' for Active; 'I' for Inactive)
REMARK    1  A    between atoms: C_1  and  C_2
REMARK    2  A    between atoms: N_4  and  C_5
REMARK    3  A    between atoms: C_11  and  S_12
REMARK    4  A    between atoms: S_12  and  C_15
REMARK    5  A    between atoms: C_22  and  C_23
REMARK    6  A    between atoms: N_24  and  O_25
REMARK    7  A    between atoms: O_25  and  C_26
REMARK    8  A    between atoms: C_26  and  C_27
REMARK                            x       y       z     vdW  Elec       q    Type
REMARK                         _______ _______ _______ _____ _____    ______ ____
ROOT
ATOM      1  C   UNL     1       1.367   9.005  22.458  0.00  0.00    +0.000 C 
ATOM      2  C   UNL     1       0.460  10.118  22.066  0.00  0.00    +0.000 A 
ATOM      3  N   UNL     1      -0.168  10.840  22.989  0.00  0.00    +0.000 NA
ATOM      4  N   UNL     1      -1.022  11.650  22.301  0.00  0.00    +0.000 N 
ATOM      5  C   UNL     1      -0.790  11.576  20.923  0.00  0.00    +0.000 A 
ATOM      6  C   UNL     1       0.161  10.563  20.762  0.00  0.00    +0.000 A 
ENDROOT
BRANCH   4   7
ATOM      7  C   UNL     1      -1.868  12.512  23.068  0.00  0.00    +0.000 A 
ATOM      8  C   UNL     1      -1.358  13.740  23.526  0.00  0.00    +0.000 A 
ATOM      9  C   UNL     1      -2.212  14.695  24.090  0.00  0.00    +0.000 A 
ATOM     10  C   UNL     1      -3.573  14.424  24.219  0.00  0.00    +0.000 A 
ATOM     11  C   UNL     1      -4.065  13.175  23.854  0.00  0.00    +0.000 A 
ATOM     12  C   UNL     1      -3.211  12.207  23.313  0.00  0.00    +0.000 A 
ENDBRANCH   4   7
BRANCH   5  13
ATOM     13  S   UNL     1      -1.492  12.680  19.727  0.00  0.00    +0.000 S 
ATOM     14  O   UNL     1      -1.799  13.910  20.430  0.00  0.00    +0.000 OA
ATOM     15  O   UNL     1      -0.577  12.640  18.609  0.00  0.00    +0.000 OA
BRANCH  13  16
ATOM     16  C   UNL     1      -3.081  12.110  19.198  0.00  0.00    +0.000 A 
ATOM     17  C   UNL     1      -3.175  11.223  18.119  0.00  0.00    +0.000 A 
ATOM     18  C   UNL     1      -4.432  10.821  17.680  0.00  0.00    +0.000 A 
ATOM     19  C   UNL     1      -5.571  11.272  18.348  0.00  0.00    +0.000 A 
ATOM     20  F   UNL     1      -6.775  10.869  17.925  0.00  0.00    +0.000 F 
ATOM     21  C   UNL     1      -5.477  12.129  19.439  0.00  0.00    +0.000 A 
ATOM     22  C   UNL     1      -4.224  12.560  19.871  0.00  0.00    +0.000 A 
ENDBRANCH  13  16
ENDBRANCH   5  13
BRANCH   6  23
ATOM     23  C   UNL     1       0.814  10.096  19.558  0.00  0.00    +0.000 C 
ATOM     24  N   UNL     1       0.191   9.399  18.671  0.00  0.00    +0.000 NA
BRANCH  24  25
ATOM     25  O   UNL     1       1.061   9.186  17.586  0.00  0.00    +0.000 OA
BRANCH  25  26
ATOM     26  C   UNL     1       2.404   9.101  18.078  0.00  0.00    +0.000 C 
BRANCH  26  27
ATOM     27  C   UNL     1       2.906   7.700  17.866  0.00  0.00    +0.000 A 
ATOM     28  C   UNL     1       4.098   7.431  17.183  0.00  0.00    +0.000 A 
ATOM     29  C   UNL     1       4.514   6.113  17.011  0.00  0.00    +0.000 A 
ATOM     30  C   UNL     1       3.717   5.108  17.530  0.00  0.00    +0.000 A 
ATOM     31 CL   UNL     1       4.158   3.459  17.362  0.00  0.00    +0.000 Cl
ATOM     32  N   UNL     1       2.561   5.318  18.190  0.00  0.00    +0.000 NA
ATOM     33  C   UNL     1       2.184   6.609  18.342  0.00  0.00    +0.000 A 
ENDBRANCH  26  27
ENDBRANCH  25  26
ENDBRANCH  24  25
ENDBRANCH   6  23
TORSDOF 7
ENDMDL
MODEL 5
REMARK VINA RESULT:      -7.5      2.766      3.335
REMARK  Name = 
REMARK  8 active torsions:
REMARK  status: ('A' for Active; 'I' for Inactive)
REMARK    1  A    between atoms: C_1  and  C_2
REMARK    2  A    between atoms: N_4  and  C_5
REMARK    3  A    between atoms: C_11  and  S_12
REMARK    4  A    between atoms: S_12  and  C_15
REMARK    5  A    between atoms: C_22  and  C_23
REMARK    6  A    between atoms: N_24  and  O_25
REMARK    7  A    between atoms: O_25  and  C_26
REMARK    8  A    between atoms: C_26  and  C_27
REMARK                            x       y       z     vdW  Elec       q    Type
REMARK                         _______ _______ _______ _____ _____    ______ ____
ROOT
ATOM      1  C   UNL     1       1.275   8.873  22.056  0.00  0.00    +0.000 C 
ATOM      2  C   UNL     1       0.406  10.045  21.763  0.00  0.00    +0.000 A 
ATOM      3  N   UNL     1      -0.116  10.768  22.750  0.00  0.00    +0.000 NA
ATOM      4  N   UNL     1      -0.968  11.645  22.147  0.00  0.00    +0.000 N 
ATOM      5  C   UNL     1      -0.835  11.607  20.756  0.00  0.00    +0.000 A 
ATOM      6  C   UNL     1       0.045  10.551  20.497  0.00  0.00    +0.000 A 
ENDROOT
BRANCH   4   7
ATOM      7  C   UNL     1      -1.712  12.524  22.998  0.00  0.00    +0.000 A 
ATOM      8  C   UNL     1      -1.176  13.786  23.313  0.00  0.00    +0.000 A 
ATOM      9  C   UNL     1      -1.961  14.746  23.961  0.00  0.00    +0.000 A 
ATOM     10  C   UNL     1      -3.276  14.450  24.315  0.00  0.00    +0.000 A 
ATOM     11  C   UNL     1      -3.778  13.172  24.089  0.00  0.00    +0.000 A 
ATOM     12  C   UNL     1      -2.989  12.200  23.465  0.00  0.00    +0.000 A 
ENDBRANCH   4   7
BRANCH   5  13
ATOM     13  S   UNL     1      -1.555  12.788  19.646  0.00  0.00    +0.000 S 
ATOM     14  O   UNL     1      -1.433  12.231  18.313  0.00  0.00    +0.000 OA
ATOM     15  O   UNL     1      -2.836  13.109  20.232  0.00  0.00    +0.000 OA
BRANCH  13  16
ATOM     16  C   UNL     1      -0.571  14.256  19.562  0.00  0.00    +0.000 A 
ATOM     17  C   UNL     1       0.698  14.207  18.974  0.00  0.00    +0.000 A 
ATOM     18  C   UNL     1       1.482  15.356  18.959  0.00  0.00    +0.000 A 
ATOM     19  C   UNL     1       0.975  16.542  19.489  0.00  0.00    +0.000 A 
ATOM     20  F   UNL     1       1.733  17.645  19.458  0.00  0.00    +0.000 F 
ATOM     21  C   UNL     1      -0.298  16.599  20.046  0.00  0.00    +0.000 A 
ATOM     22  C   UNL     1      -1.082  15.448  20.090  0.00  0.00    +0.000 A 
ENDBRANCH  13  16
ENDBRANCH   5  13
BRANCH   6  23
ATOM     23  C   UNL     1       0.588  10.091  19.237  0.00  0.00    +0.000 C 
ATOM     24  N   UNL     1       1.750  10.460  18.820  0.00  0.00    +0.000 NA
BRANCH  24  25
ATOM     25  O   UNL     1       2.029   9.771  17.625  0.00  0.00    +0.000 OA
BRANCH  25  26
ATOM     26  C   UNL     1       1.475   8.453  17.709  0.00  0.00    +0.000 C 
BRANCH  26  27
ATOM     27  C   UNL     1       2.573   7.492  18.073  0.00  0.00    +0.000 A 
ATOM     28  C   UNL     1       2.482   6.639  19.179  0.00  0.00    +0.000 A 
ATOM     29  C   UNL     1       3.531   5.772  19.472  0.00  0.00    +0.000 A 
ATOM     30  C   UNL     1       4.640   5.792  18.644  0.00  0.00    +0.000 A 
ATOM     31 CL   UNL     1       5.975   4.755  18.935  0.00  0.00    +0.000 Cl
ATOM     32  N   UNL     1       4.775   6.598  17.572  0.00  0.00    +0.000 NA
ATOM     33  C   UNL     1       3.738   7.427  17.312  0.00  0.00    +0.000 A 
ENDBRANCH  26  27
ENDBRANCH  25  26
ENDBRANCH  24  25
ENDBRANCH   6  23
TORSDOF 7
ENDMDL
MODEL 6
REMARK VINA RESULT:      -7.4      2.914      3.457
REMARK  Name = 
REMARK  8 active torsions:
REMARK  status: ('A' for Active; 'I' for Inactive)
REMARK    1  A    between atoms: C_1  and  C_2
REMARK    2  A    between atoms: N_4  and  C_5
REMARK    3  A    between atoms: C_11  and  S_12
REMARK    4  A    between atoms: S_12  and  C_15
REMARK    5  A    between atoms: C_22  and  C_23
REMARK    6  A    between atoms: N_24  and  O_25
REMARK    7  A    between atoms: O_25  and  C_26
REMARK    8  A    between atoms: C_26  and  C_27
REMARK                            x       y       z     vdW  Elec       q    Type
REMARK                         _______ _______ _______ _____ _____    ______ ____
ROOT
ATOM      1  C   UNL     1       1.426   8.494  21.890  0.00  0.00    +0.000 C 
ATOM      2  C   UNL     1       0.633   9.701  21.531  0.00  0.00    +0.000 A 
ATOM      3  N   UNL     1       0.168  10.514  22.474  0.00  0.00    +0.000 NA
ATOM      4  N   UNL     1      -0.631  11.408  21.823  0.00  0.00    +0.000 N 
ATOM      5  C   UNL     1      -0.513  11.276  20.436  0.00  0.00    +0.000 A 
ATOM      6  C   UNL     1       0.295  10.151  20.238  0.00  0.00    +0.000 A 
ENDROOT
BRANCH   4   7
ATOM      7  C   UNL     1      -1.308  12.383  22.623  0.00  0.00    +0.000 A 
ATOM      8  C   UNL     1      -0.725  13.652  22.791  0.00  0.00    +0.000 A 
ATOM      9  C   UNL     1      -1.452  14.692  23.382  0.00  0.00    +0.000 A 
ATOM     10  C   UNL     1      -2.754  14.469  23.825  0.00  0.00    +0.000 A 
ATOM     11  C   UNL     1      -3.299  13.191  23.746  0.00  0.00    +0.000 A 
ATOM     12  C   UNL     1      -2.567  12.142  23.179  0.00  0.00    +0.000 A 
ENDBRANCH   4   7
BRANCH   5  13
ATOM     13  S   UNL     1      -1.164  12.432  19.259  0.00  0.00    +0.000 S 
ATOM     14  O   UNL     1      -1.092  11.788  17.963  0.00  0.00    +0.000 OA
ATOM     15  O   UNL     1      -2.415  12.873  19.832  0.00  0.00    +0.000 OA
BRANCH  13  16
ATOM     16  C   UNL     1      -0.086  13.823  19.079  0.00  0.00    +0.000 A 
ATOM     17  C   UNL     1      -0.577  15.114  19.305  0.00  0.00    +0.000 A 
ATOM     18  C   UNL     1       0.266  16.203  19.111  0.00  0.00    +0.000 A 
ATOM     19  C   UNL     1       1.594  15.988  18.740  0.00  0.00    +0.000 A 
ATOM     20  F   UNL     1       2.400  17.043  18.569  0.00  0.00    +0.000 F 
ATOM     21  C   UNL     1       2.091  14.705  18.546  0.00  0.00    +0.000 A 
ATOM     22  C   UNL     1       1.248  13.607  18.711  0.00  0.00    +0.000 A 
ENDBRANCH  13  16
ENDBRANCH   5  13
BRANCH   6  23
ATOM     23  C   UNL     1       0.795   9.581  19.006  0.00  0.00    +0.000 C 
ATOM     24  N   UNL     1       1.943   9.908  18.520  0.00  0.00    +0.000 NA
BRANCH  24  25
ATOM     25  O   UNL     1       2.182   9.116  17.381  0.00  0.00    +0.000 OA
BRANCH  25  26
ATOM     26  C   UNL     1       1.882   7.751  17.695  0.00  0.00    +0.000 C 
BRANCH  26  27
ATOM     27  C   UNL     1       3.173   7.018  17.938  0.00  0.00    +0.000 A 
ATOM     28  C   UNL     1       3.317   6.085  18.970  0.00  0.00    +0.000 A 
ATOM     29  C   UNL     1       4.538   5.439  19.153  0.00  0.00    +0.000 A 
ATOM     30  C   UNL     1       5.574   5.755  18.292  0.00  0.00    +0.000 A 
ATOM     31 CL   UNL     1       7.108   5.003  18.449  0.00  0.00    +0.000 Cl
ATOM     32  N   UNL     1       5.483   6.649  17.288  0.00  0.00    +0.000 NA
ATOM     33  C   UNL     1       4.286   7.258  17.135  0.00  0.00    +0.000 A 
ENDBRANCH  26  27
ENDBRANCH  25  26
ENDBRANCH  24  25
ENDBRANCH   6  23
TORSDOF 7
ENDMDL
MODEL 7
REMARK VINA RESULT:      -7.4      7.072      9.966
REMARK  Name = 
REMARK  8 active torsions:
REMARK  status: ('A' for Active; 'I' for Inactive)
REMARK    1  A    between atoms: C_1  and  C_2
REMARK    2  A    between atoms: N_4  and  C_5
REMARK    3  A    between atoms: C_11  and  S_12
REMARK    4  A    between atoms: S_12  and  C_15
REMARK    5  A    between atoms: C_22  and  C_23
REMARK    6  A    between atoms: N_24  and  O_25
REMARK    7  A    between atoms: O_25  and  C_26
REMARK    8  A    between atoms: C_26  and  C_27
REMARK                            x       y       z     vdW  Elec       q    Type
REMARK                         _______ _______ _______ _____ _____    ______ ____
ROOT
ATOM      1  C   UNL     1       2.333   9.078  17.993  0.00  0.00    +0.000 C 
ATOM      2  C   UNL     1       2.736   7.653  18.140  0.00  0.00    +0.000 A 
ATOM      3  N   UNL     1       1.854   6.733  18.517  0.00  0.00    +0.000 NA
ATOM      4  N   UNL     1       2.576   5.590  18.703  0.00  0.00    +0.000 N 
ATOM      5  C   UNL     1       3.891   5.743  18.251  0.00  0.00    +0.000 A 
ATOM      6  C   UNL     1       4.008   7.092  17.901  0.00  0.00    +0.000 A 
ENDROOT
BRANCH   4   7
ATOM      7  C   UNL     1       1.867   4.436  19.166  0.00  0.00    +0.000 A 
ATOM      8  C   UNL     1       1.276   3.575  18.224  0.00  0.00    +0.000 A 
ATOM      9  C   UNL     1       0.763   2.335  18.623  0.00  0.00    +0.000 A 
ATOM     10  C   UNL     1       0.820   1.955  19.963  0.00  0.00    +0.000 A 
ATOM     11  C   UNL     1       1.318   2.844  20.911  0.00  0.00    +0.000 A 
ATOM     12  C   UNL     1       1.809   4.095  20.520  0.00  0.00    +0.000 A 
ENDBRANCH   4   7
BRANCH   5  13
ATOM     13  S   UNL     1       5.046   4.412  18.058  0.00  0.00    +0.000 S 
ATOM     14  O   UNL     1       6.161   4.701  18.939  0.00  0.00    +0.000 OA
ATOM     15  O   UNL     1       4.251   3.213  18.191  0.00  0.00    +0.000 OA
BRANCH  13  16
ATOM     16  C   UNL     1       5.783   4.444  16.450  0.00  0.00    +0.000 A 
ATOM     17  C   UNL     1       7.114   4.850  16.305  0.00  0.00    +0.000 A 
ATOM     18  C   UNL     1       7.667   4.920  15.031  0.00  0.00    +0.000 A 
ATOM     19  C   UNL     1       6.901   4.543  13.927  0.00  0.00    +0.000 A 
ATOM     20  F   UNL     1       7.447   4.601  12.706  0.00  0.00    +0.000 F 
ATOM     21  C   UNL     1       5.588   4.110  14.073  0.00  0.00    +0.000 A 
ATOM     22  C   UNL     1       5.015   4.062  15.343  0.00  0.00    +0.000 A 
ENDBRANCH  13  16
ENDBRANCH   5  13
BRANCH   6  23
ATOM     23  C   UNL     1       5.128   7.799  17.320  0.00  0.00    +0.000 C 
ATOM     24  N   UNL     1       6.245   7.941  17.947  0.00  0.00    +0.000 NA
BRANCH  24  25
ATOM     25  O   UNL     1       7.157   8.581  17.086  0.00  0.00    +0.000 OA
BRANCH  25  26
ATOM     26  C   UNL     1       8.453   8.573  17.694  0.00  0.00    +0.000 C 
BRANCH  26  27
ATOM     27  C   UNL     1       8.733   9.942  18.249  0.00  0.00    +0.000 A 
ATOM     28  C   UNL     1       9.336  10.131  19.498  0.00  0.00    +0.000 A 
ATOM     29  C   UNL     1       9.567  11.423  19.966  0.00  0.00    +0.000 A 
ATOM     30  C   UNL     1       9.183  12.482  19.162  0.00  0.00    +0.000 A 
ATOM     31 CL   UNL     1       9.433  14.103  19.663  0.00  0.00    +0.000 Cl
ATOM     32  N   UNL     1       8.596  12.349  17.956  0.00  0.00    +0.000 NA
ATOM     33  C   UNL     1       8.386  11.082  17.529  0.00  0.00    +0.000 A 
ENDBRANCH  26  27
ENDBRANCH  25  26
ENDBRANCH  24  25
ENDBRANCH   6  23
TORSDOF 7
ENDMDL
MODEL 8
REMARK VINA RESULT:      -7.4      1.253      1.523
REMARK  Name = 
REMARK  8 active torsions:
REMARK  status: ('A' for Active; 'I' for Inactive)
REMARK    1  A    between atoms: C_1  and  C_2
REMARK    2  A    between atoms: N_4  and  C_5
REMARK    3  A    between atoms: C_11  and  S_12
REMARK    4  A    between atoms: S_12  and  C_15
REMARK    5  A    between atoms: C_22  and  C_23
REMARK    6  A    between atoms: N_24  and  O_25
REMARK    7  A    between atoms: O_25  and  C_26
REMARK    8  A    between atoms: C_26  and  C_27
REMARK                            x       y       z     vdW  Elec       q    Type
REMARK                         _______ _______ _______ _____ _____    ______ ____
ROOT
ATOM      1  C   UNL     1       1.123   8.575  22.100  0.00  0.00    +0.000 C 
ATOM      2  C   UNL     1       0.292   9.769  21.783  0.00  0.00    +0.000 A 
ATOM      3  N   UNL     1      -0.169  10.552  22.753  0.00  0.00    +0.000 NA
ATOM      4  N   UNL     1      -1.005  11.438  22.140  0.00  0.00    +0.000 N 
ATOM      5  C   UNL     1      -0.917  11.336  20.748  0.00  0.00    +0.000 A 
ATOM      6  C   UNL     1      -0.088  10.236  20.508  0.00  0.00    +0.000 A 
ENDROOT
BRANCH   4   7
ATOM      7  C   UNL     1      -1.686  12.381  22.974  0.00  0.00    +0.000 A 
ATOM      8  C   UNL     1      -1.042  13.584  23.313  0.00  0.00    +0.000 A 
ATOM      9  C   UNL     1      -1.750  14.613  23.943  0.00  0.00    +0.000 A 
ATOM     10  C   UNL     1      -3.098  14.443  24.256  0.00  0.00    +0.000 A 
ATOM     11  C   UNL     1      -3.713  13.220  24.008  0.00  0.00    +0.000 A 
ATOM     12  C   UNL     1      -3.002  12.179  23.401  0.00  0.00    +0.000 A 
ENDBRANCH   4   7
BRANCH   5  13
ATOM     13  S   UNL     1      -1.624  12.498  19.610  0.00  0.00    +0.000 S 
ATOM     14  O   UNL     1      -1.724  13.760  20.317  0.00  0.00    +0.000 OA
ATOM     15  O   UNL     1      -0.843  12.352  18.403  0.00  0.00    +0.000 OA
BRANCH  13  16
ATOM     16  C   UNL     1      -3.311  12.095  19.262  0.00  0.00    +0.000 A 
ATOM     17  C   UNL     1      -3.618  11.290  18.159  0.00  0.00    +0.000 A 
ATOM     18  C   UNL     1      -4.951  11.021  17.866  0.00  0.00    +0.000 A 
ATOM     19  C   UNL     1      -5.952  11.520  18.700  0.00  0.00    +0.000 A 
ATOM     20  F   UNL     1      -7.231  11.244  18.416  0.00  0.00    +0.000 F 
ATOM     21  C   UNL     1      -5.647  12.293  19.814  0.00  0.00    +0.000 A 
ATOM     22  C   UNL     1      -4.316  12.592  20.102  0.00  0.00    +0.000 A 
ENDBRANCH  13  16
ENDBRANCH   5  13
BRANCH   6  23
ATOM     23  C   UNL     1       0.396   9.702  19.254  0.00  0.00    +0.000 C 
ATOM     24  N   UNL     1       1.584   9.216  19.132  0.00  0.00    +0.000 NA
BRANCH  24  25
ATOM     25  O   UNL     1       1.716   8.693  17.832  0.00  0.00    +0.000 OA
BRANCH  25  26
ATOM     26  C   UNL     1       3.066   8.253  17.644  0.00  0.00    +0.000 C 
BRANCH  26  27
ATOM     27  C   UNL     1       3.114   6.760  17.815  0.00  0.00    +0.000 A 
ATOM     28  C   UNL     1       1.957   5.995  18.007  0.00  0.00    +0.000 A 
ATOM     29  C   UNL     1       2.060   4.615  18.165  0.00  0.00    +0.000 A 
ATOM     30  C   UNL     1       3.322   4.049  18.126  0.00  0.00    +0.000 A 
ATOM     31 CL   UNL     1       3.535   2.358  18.310  0.00  0.00    +0.000 Cl
ATOM     32  N   UNL     1       4.463   4.745  17.947  0.00  0.00    +0.000 NA
ATOM     33  C   UNL     1       4.330   6.083  17.796  0.00  0.00    +0.000 A 
ENDBRANCH  26  27
ENDBRANCH  25  26
ENDBRANCH  24  25
ENDBRANCH   6  23
TORSDOF 7
ENDMDL
MODEL 9
REMARK VINA RESULT:      -7.3      1.576      1.975
REMARK  Name = 
REMARK  8 active torsions:
REMARK  status: ('A' for Active; 'I' for Inactive)
REMARK    1  A    between atoms: C_1  and  C_2
REMARK    2  A    between atoms: N_4  and  C_5
REMARK    3  A    between atoms: C_11  and  S_12
REMARK    4  A    between atoms: S_12  and  C_15
REMARK    5  A    between atoms: C_22  and  C_23
REMARK    6  A    between atoms: N_24  and  O_25
REMARK    7  A    between atoms: O_25  and  C_26
REMARK    8  A    between atoms: C_26  and  C_27
REMARK                            x       y       z     vdW  Elec       q    Type
REMARK                         _______ _______ _______ _____ _____    ______ ____
ROOT
ATOM      1  C   UNL     1       0.314   9.298  23.591  0.00  0.00    +0.000 C 
ATOM      2  C   UNL     1      -0.377  10.360  22.809  0.00  0.00    +0.000 A 
ATOM      3  N   UNL     1      -1.224  11.197  23.399  0.00  0.00    +0.000 NA
ATOM      4  N   UNL     1      -1.787  11.920  22.389  0.00  0.00    +0.000 N 
ATOM      5  C   UNL     1      -1.145  11.671  21.171  0.00  0.00    +0.000 A 
ATOM      6  C   UNL     1      -0.238  10.640  21.433  0.00  0.00    +0.000 A 
ENDROOT
BRANCH   4   7
ATOM      7  C   UNL     1      -2.788  12.877  22.748  0.00  0.00    +0.000 A 
ATOM      8  C   UNL     1      -4.143  12.554  22.556  0.00  0.00    +0.000 A 
ATOM      9  C   UNL     1      -5.147  13.370  23.089  0.00  0.00    +0.000 A 
ATOM     10  C   UNL     1      -4.809  14.521  23.797  0.00  0.00    +0.000 A 
ATOM     11  C   UNL     1      -3.473  14.894  23.908  0.00  0.00    +0.000 A 
ATOM     12  C   UNL     1      -2.466  14.095  23.356  0.00  0.00    +0.000 A 
ENDBRANCH   4   7
BRANCH   5  13
ATOM     13  S   UNL     1      -1.393  12.621  19.695  0.00  0.00    +0.000 S 
ATOM     14  O   UNL     1      -2.435  13.584  19.993  0.00  0.00    +0.000 OA
ATOM     15  O   UNL     1      -0.066  13.024  19.290  0.00  0.00    +0.000 OA
BRANCH  13  16
ATOM     16  C   UNL     1      -2.113  11.629  18.419  0.00  0.00    +0.000 A 
ATOM     17  C   UNL     1      -1.329  10.679  17.754  0.00  0.00    +0.000 A 
ATOM     18  C   UNL     1      -1.892   9.940  16.719  0.00  0.00    +0.000 A 
ATOM     19  C   UNL     1      -3.235  10.127  16.392  0.00  0.00    +0.000 A 
ATOM     20  F   UNL     1      -3.770   9.401  15.403  0.00  0.00    +0.000 F 
ATOM     21  C   UNL     1      -4.023  11.048  17.073  0.00  0.00    +0.000 A 
ATOM     22  C   UNL     1      -3.463  11.813  18.094  0.00  0.00    +0.000 A 
ENDBRANCH  13  16
ENDBRANCH   5  13
BRANCH   6  23
ATOM     23  C   UNL     1       0.732  10.020  20.557  0.00  0.00    +0.000 C 
ATOM     24  N   UNL     1       0.563   8.832  20.084  0.00  0.00    +0.000 NA
BRANCH  24  25
ATOM     25  O   UNL     1       1.619   8.557  19.196  0.00  0.00    +0.000 OA
BRANCH  25  26
ATOM     26  C   UNL     1       2.531   7.650  19.827  0.00  0.00    +0.000 C 
BRANCH  26  27
ATOM     27  C   UNL     1       2.124   6.243  19.485  0.00  0.00    +0.000 A 
ATOM     28  C   UNL     1       2.207   5.739  18.182  0.00  0.00    +0.000 A 
ATOM     29  C   UNL     1       1.811   4.429  17.921  0.00  0.00    +0.000 A 
ATOM     30  C   UNL     1       1.343   3.670  18.979  0.00  0.00    +0.000 A 
ATOM     31 CL   UNL     1       0.838   2.048  18.743  0.00  0.00    +0.000 Cl
ATOM     32  N   UNL     1       1.242   4.113  20.248  0.00  0.00    +0.000 NA
ATOM     33  C   UNL     1       1.635   5.388  20.470  0.00  0.00    +0.000 A 
ENDBRANCH  26  27
ENDBRANCH  25  26
ENDBRANCH  24  25
ENDBRANCH   6  23
TORSDOF 7
ENDMDL
