MODEL 1
REMARK VINA RESULT:      -7.9      0.000      0.000
REMARK  Name = 
REMARK  10 active torsions:
REMARK  status: ('A' for Active; 'I' for Inactive)
REMARK    1  A    between atoms: C_1  and  C_2
REMARK    2  A    between atoms: C_2  and  N_3
REMARK    3  A    between atoms: N_3  and  C_4
REMARK    4  A    between atoms: N_3  and  S_6
REMARK    5  A    between atoms: C_4  and  C_5
REMARK    6  A    between atoms: S_6  and  C_9
REMARK    7  A    between atoms: C_12  and  C_13
REMARK    8  A    between atoms: C_13  and  C_15
REMARK    9  A    between atoms: C_16  and  C_17
REMARK   10  A    between atoms: C_21  and  O_22
REMARK                            x       y       z     vdW  Elec       q    Type
REMARK                         _______ _______ _______ _____ _____    ______ ____
ROOT
ATOM      1  C   UNL     1       3.674   5.513  18.695  0.00  0.00    +0.000 A 
ATOM      2  C   UNL     1       4.882   5.069  19.234  0.00  0.00    +0.000 A 
ATOM      3  C   UNL     1       6.085   5.594  18.747  0.00  0.00    +0.000 A 
ATOM      4  C   UNL     1       6.083   6.560  17.727  0.00  0.00    +0.000 A 
ATOM      5  C   UNL     1       4.861   6.974  17.177  0.00  0.00    +0.000 A 
ATOM      6  C   UNL     1       3.657   6.455  17.662  0.00  0.00    +0.000 A 
ENDROOT
BRANCH   1   7
ATOM      7  S   UNL     1       2.137   4.837  19.304  0.00  0.00    +0.000 S 
ATOM      8  O   UNL     1       1.362   4.442  18.153  0.00  0.00    +0.000 OA
ATOM      9  O   UNL     1       1.609   5.768  20.286  0.00  0.00    +0.000 OA
BRANCH   7  10
ATOM     10  N   UNL     1       2.628   3.427  20.160  0.00  0.00    +0.000 NA
BRANCH  10  12
ATOM     11  C   UNL     1       1.451   2.275  22.076  0.00  0.00    +0.000 C 
ATOM     12  C   UNL     1       2.285   3.458  21.613  0.00  0.00    +0.000 C 
ENDBRANCH  10  12
BRANCH  10  13
ATOM     13  C   UNL     1       2.284   2.151  19.451  0.00  0.00    +0.000 C 
ATOM     14  C   UNL     1       3.457   1.528  18.711  0.00  0.00    +0.000 C 
ENDBRANCH  10  13
ENDBRANCH   7  10
ENDBRANCH   1   7
BRANCH   4  15
ATOM     15  C   UNL     1       7.398   7.092  17.260  0.00  0.00    +0.000 C 
ATOM     16  O   UNL     1       7.922   6.638  16.248  0.00  0.00    +0.000 OA
BRANCH  15  17
ATOM     17  C   UNL     1       8.068   8.125  18.100  0.00  0.00    +0.000 C 
ATOM     18  C   UNL     1       8.228   9.383  17.657  0.00  0.00    +0.000 C 
BRANCH  18  19
ATOM     19  C   UNL     1       8.949  10.415  18.418  0.00  0.00    +0.000 A 
ATOM     20  C   UNL     1       9.316  10.171  19.749  0.00  0.00    +0.000 A 
ATOM     21  C   UNL     1       9.976  11.153  20.501  0.00  0.00    +0.000 A 
ATOM     22  C   UNL     1      10.269  12.394  19.933  0.00  0.00    +0.000 A 
ATOM     23  C   UNL     1       9.891  12.642  18.620  0.00  0.00    +0.000 A 
ATOM     24  C   UNL     1       9.232  11.674  17.867  0.00  0.00    +0.000 A 
BRANCH  23  25
ATOM     25  O   UNL     1      10.143  13.840  18.017  0.00  0.00    +0.000 OA
ATOM     26  H   UNL     1       9.721  14.543  18.541  0.00  0.00    +0.000 HD
ENDBRANCH  23  25
ENDBRANCH  18  19
ENDBRANCH  15  17
ENDBRANCH   4  15
TORSDOF 8
ENDMDL
MODEL 2
REMARK VINA RESULT:      -7.7      1.135      1.721
REMARK  Name = 
REMARK  10 active torsions:
REMARK  status: ('A' for Active; 'I' for Inactive)
REMARK    1  A    between atoms: C_1  and  C_2
REMARK    2  A    between atoms: C_2  and  N_3
REMARK    3  A    between atoms: N_3  and  C_4
REMARK    4  A    between atoms: N_3  and  S_6
REMARK    5  A    between atoms: C_4  and  C_5
REMARK    6  A    between atoms: S_6  and  C_9
REMARK    7  A    between atoms: C_12  and  C_13
REMARK    8  A    between atoms: C_13  and  C_15
REMARK    9  A    between atoms: C_16  and  C_17
REMARK   10  A    between atoms: C_21  and  O_22
REMARK                            x       y       z     vdW  Elec       q    Type
REMARK                         _______ _______ _______ _____ _____    ______ ____
ROOT
ATOM      1  C   UNL     1       3.608   5.484  18.540  0.00  0.00    +0.000 A 
ATOM      2  C   UNL     1       3.702   6.371  17.465  0.00  0.00    +0.000 A 
ATOM      3  C   UNL     1       4.962   6.837  17.071  0.00  0.00    +0.000 A 
ATOM      4  C   UNL     1       6.122   6.421  17.743  0.00  0.00    +0.000 A 
ATOM      5  C   UNL     1       6.007   5.553  18.838  0.00  0.00    +0.000 A 
ATOM      6  C   UNL     1       4.751   5.082  19.235  0.00  0.00    +0.000 A 
ENDROOT
BRANCH   1   7
ATOM      7  S   UNL     1       2.002   4.895  19.056  0.00  0.00    +0.000 S 
ATOM      8  O   UNL     1       1.167   4.856  17.881  0.00  0.00    +0.000 OA
ATOM      9  O   UNL     1       1.616   5.655  20.232  0.00  0.00    +0.000 OA
BRANCH   7  10
ATOM     10  N   UNL     1       2.313   3.284  19.576  0.00  0.00    +0.000 NA
BRANCH  10  12
ATOM     11  C   UNL     1       2.488   2.454  21.957  0.00  0.00    +0.000 C 
ATOM     12  C   UNL     1       1.582   2.906  20.823  0.00  0.00    +0.000 C 
ENDBRANCH  10  12
BRANCH  10  13
ATOM     13  C   UNL     1       2.244   2.278  18.466  0.00  0.00    +0.000 C 
ATOM     14  C   UNL     1       3.596   1.956  17.850  0.00  0.00    +0.000 C 
ENDBRANCH  10  13
ENDBRANCH   7  10
ENDBRANCH   1   7
BRANCH   4  15
ATOM     15  C   UNL     1       7.438   6.943  17.265  0.00  0.00    +0.000 C 
ATOM     16  O   UNL     1       7.920   6.531  16.216  0.00  0.00    +0.000 OA
BRANCH  15  17
ATOM     17  C   UNL     1       8.160   7.911  18.139  0.00  0.00    +0.000 C 
ATOM     18  C   UNL     1       8.259   9.208  17.804  0.00  0.00    +0.000 C 
BRANCH  18  19
ATOM     19  C   UNL     1       9.025  10.184  18.595  0.00  0.00    +0.000 A 
ATOM     20  C   UNL     1      10.010  10.964  17.974  0.00  0.00    +0.000 A 
ATOM     21  C   UNL     1      10.772  11.878  18.716  0.00  0.00    +0.000 A 
ATOM     22  C   UNL     1      10.564  12.015  20.089  0.00  0.00    +0.000 A 
ATOM     23  C   UNL     1       9.600  11.230  20.708  0.00  0.00    +0.000 A 
ATOM     24  C   UNL     1       8.841  10.317  19.979  0.00  0.00    +0.000 A 
BRANCH  23  25
ATOM     25  O   UNL     1       9.360  11.314  22.048  0.00  0.00    +0.000 OA
ATOM     26  H   UNL     1       8.401  11.409  22.184  0.00  0.00    +0.000 HD
ENDBRANCH  23  25
ENDBRANCH  18  19
ENDBRANCH  15  17
ENDBRANCH   4  15
TORSDOF 8
ENDMDL
MODEL 3
REMARK VINA RESULT:      -7.6      5.194      8.555
REMARK  Name = 
REMARK  10 active torsions:
REMARK  status: ('A' for Active; 'I' for Inactive)
REMARK    1  A    between atoms: C_1  and  C_2
REMARK    2  A    between atoms: C_2  and  N_3
REMARK    3  A    between atoms: N_3  and  C_4
REMARK    4  A    between atoms: N_3  and  S_6
REMARK    5  A    between atoms: C_4  and  C_5
REMARK    6  A    between atoms: S_6  and  C_9
REMARK    7  A    between atoms: C_12  and  C_13
REMARK    8  A    between atoms: C_13  and  C_15
REMARK    9  A    between atoms: C_16  and  C_17
REMARK   10  A    between atoms: C_21  and  O_22
REMARK                            x       y       z     vdW  Elec       q    Type
REMARK                         _______ _______ _______ _____ _____    ______ ____
ROOT
ATOM      1  C   UNL     1       3.735   5.766  18.438  0.00  0.00    +0.000 A 
ATOM      2  C   UNL     1       3.760   6.862  17.574  0.00  0.00    +0.000 A 
ATOM      3  C   UNL     1       2.960   7.976  17.856  0.00  0.00    +0.000 A 
ATOM      4  C   UNL     1       2.141   7.998  18.996  0.00  0.00    +0.000 A 
ATOM      5  C   UNL     1       2.106   6.878  19.839  0.00  0.00    +0.000 A 
ATOM      6  C   UNL     1       2.904   5.763  19.563  0.00  0.00    +0.000 A 
ENDROOT
BRANCH   1   7
ATOM      7  S   UNL     1       4.743   4.337  18.077  0.00  0.00    +0.000 S 
ATOM      8  O   UNL     1       3.881   3.353  17.469  0.00  0.00    +0.000 OA
ATOM      9  O   UNL     1       5.513   4.032  19.269  0.00  0.00    +0.000 OA
BRANCH   7  10
ATOM     10  N   UNL     1       5.852   4.915  16.895  0.00  0.00    +0.000 NA
BRANCH  10  12
ATOM     11  C   UNL     1       7.442   6.700  17.716  0.00  0.00    +0.000 C 
ATOM     12  C   UNL     1       7.207   5.223  17.444  0.00  0.00    +0.000 C 
ENDBRANCH  10  12
BRANCH  10  13
ATOM     13  C   UNL     1       5.846   4.111  15.629  0.00  0.00    +0.000 C 
ATOM     14  C   UNL     1       6.689   4.715  14.517  0.00  0.00    +0.000 C 
ENDBRANCH  10  13
ENDBRANCH   7  10
ENDBRANCH   1   7
BRANCH   4  15
ATOM     15  C   UNL     1       1.322   9.221  19.251  0.00  0.00    +0.000 C 
ATOM     16  O   UNL     1       1.467   9.856  20.290  0.00  0.00    +0.000 OA
BRANCH  15  17
ATOM     17  C   UNL     1       0.288   9.588  18.241  0.00  0.00    +0.000 C 
ATOM     18  C   UNL     1      -0.931  10.008  18.618  0.00  0.00    +0.000 C 
BRANCH  18  19
ATOM     19  C   UNL     1      -2.007  10.308  17.660  0.00  0.00    +0.000 A 
ATOM     20  C   UNL     1      -1.979   9.737  16.380  0.00  0.00    +0.000 A 
ATOM     21  C   UNL     1      -2.979  10.035  15.443  0.00  0.00    +0.000 A 
ATOM     22  C   UNL     1      -4.011  10.914  15.771  0.00  0.00    +0.000 A 
ATOM     23  C   UNL     1      -4.030  11.493  17.034  0.00  0.00    +0.000 A 
ATOM     24  C   UNL     1      -3.040  11.206  17.969  0.00  0.00    +0.000 A 
BRANCH  23  25
ATOM     25  O   UNL     1      -5.009  12.367  17.406  0.00  0.00    +0.000 OA
ATOM     26  H   UNL     1      -5.000  12.444  18.376  0.00  0.00    +0.000 HD
ENDBRANCH  23  25
ENDBRANCH  18  19
ENDBRANCH  15  17
ENDBRANCH   4  15
TORSDOF 8
ENDMDL
MODEL 4
REMARK VINA RESULT:      -7.3      5.237      8.296
REMARK  Name = 
REMARK  10 active torsions:
REMARK  status: ('A' for Active; 'I' for Inactive)
REMARK    1  A    between atoms: C_1  and  C_2
REMARK    2  A    between atoms: C_2  and  N_3
REMARK    3  A    between atoms: N_3  and  C_4
REMARK    4  A    between atoms: N_3  and  S_6
REMARK    5  A    between atoms: C_4  and  C_5
REMARK    6  A    between atoms: S_6  and  C_9
REMARK    7  A    between atoms: C_12  and  C_13
REMARK    8  A    between atoms: C_13  and  C_15
REMARK    9  A    between atoms: C_16  and  C_17
REMARK   10  A    between atoms: C_21  and  O_22
REMARK                            x       y       z     vdW  Elec       q    Type
REMARK                         _______ _______ _______ _____ _____    ______ ____
ROOT
ATOM      1  C   UNL     1       2.993   6.428  18.809  0.00  0.00    +0.000 A 
ATOM      2  C   UNL     1       2.359   6.576  20.044  0.00  0.00    +0.000 A 
ATOM      3  C   UNL     1       1.675   7.765  20.326  0.00  0.00    +0.000 A 
ATOM      4  C   UNL     1       1.622   8.801  19.380  0.00  0.00    +0.000 A 
ATOM      5  C   UNL     1       2.287   8.648  18.156  0.00  0.00    +0.000 A 
ATOM      6  C   UNL     1       2.970   7.462  17.868  0.00  0.00    +0.000 A 
ENDROOT
BRANCH   1   7
ATOM      7  S   UNL     1       3.877   4.919  18.448  0.00  0.00    +0.000 S 
ATOM      8  O   UNL     1       5.089   4.942  19.230  0.00  0.00    +0.000 OA
ATOM      9  O   UNL     1       3.913   4.769  17.005  0.00  0.00    +0.000 OA
BRANCH   7  10
ATOM     10  N   UNL     1       2.840   3.689  19.059  0.00  0.00    +0.000 NA
BRANCH  10  12
ATOM     11  C   UNL     1       0.539   2.656  18.900  0.00  0.00    +0.000 C 
ATOM     12  C   UNL     1       1.640   3.439  18.204  0.00  0.00    +0.000 C 
ENDBRANCH  10  12
BRANCH  10  13
ATOM     13  C   UNL     1       3.573   2.459  19.503  0.00  0.00    +0.000 C 
ATOM     14  C   UNL     1       3.746   1.422  18.404  0.00  0.00    +0.000 C 
ENDBRANCH  10  13
ENDBRANCH   7  10
ENDBRANCH   1   7
BRANCH   4  15
ATOM     15  C   UNL     1       0.865  10.039  19.735  0.00  0.00    +0.000 C 
ATOM     16  O   UNL     1       1.025  10.567  20.830  0.00  0.00    +0.000 OA
BRANCH  15  17
ATOM     17  C   UNL     1      -0.130  10.552  18.750  0.00  0.00    +0.000 C 
ATOM     18  C   UNL     1      -1.359  10.016  18.662  0.00  0.00    +0.000 C 
BRANCH  18  19
ATOM     19  C   UNL     1      -2.347  10.437  17.657  0.00  0.00    +0.000 A 
ATOM     20  C   UNL     1      -3.458  11.197  18.049  0.00  0.00    +0.000 A 
ATOM     21  C   UNL     1      -4.427  11.583  17.112  0.00  0.00    +0.000 A 
ATOM     22  C   UNL     1      -4.301  11.205  15.774  0.00  0.00    +0.000 A 
ATOM     23  C   UNL     1      -3.209  10.437  15.389  0.00  0.00    +0.000 A 
ATOM     24  C   UNL     1      -2.244  10.047  16.314  0.00  0.00    +0.000 A 
BRANCH  23  25
ATOM     25  O   UNL     1      -3.040  10.031  14.098  0.00  0.00    +0.000 OA
ATOM     26  H   UNL     1      -2.267   9.441  14.059  0.00  0.00    +0.000 HD
ENDBRANCH  23  25
ENDBRANCH  18  19
ENDBRANCH  15  17
ENDBRANCH   4  15
TORSDOF 8
ENDMDL
MODEL 5
REMARK VINA RESULT:      -7.3      1.918      2.746
REMARK  Name = 
REMARK  10 active torsions:
REMARK  status: ('A' for Active; 'I' for Inactive)
REMARK    1  A    between atoms: C_1  and  C_2
REMARK    2  A    between atoms: C_2  and  N_3
REMARK    3  A    between atoms: N_3  and  C_4
REMARK    4  A    between atoms: N_3  and  S_6
REMARK    5  A    between atoms: C_4  and  C_5
REMARK    6  A    between atoms: S_6  and  C_9
REMARK    7  A    between atoms: C_12  and  C_13
REMARK    8  A    between atoms: C_13  and  C_15
REMARK    9  A    between atoms: C_16  and  C_17
REMARK   10  A    between atoms: C_21  and  O_22
REMARK                            x       y       z     vdW  Elec       q    Type
REMARK                         _______ _______ _______ _____ _____    ______ ____
ROOT
ATOM      1  C   UNL     1       4.864   3.852  18.553  0.00  0.00    +0.000 A 
ATOM      2  C   UNL     1       5.073   4.011  17.182  0.00  0.00    +0.000 A 
ATOM      3  C   UNL     1       5.949   5.008  16.733  0.00  0.00    +0.000 A 
ATOM      4  C   UNL     1       6.614   5.840  17.648  0.00  0.00    +0.000 A 
ATOM      5  C   UNL     1       6.371   5.685  19.020  0.00  0.00    +0.000 A 
ATOM      6  C   UNL     1       5.499   4.690  19.473  0.00  0.00    +0.000 A 
ENDROOT
BRANCH   1   7
ATOM      7  S   UNL     1       3.739   2.590  19.130  0.00  0.00    +0.000 S 
ATOM      8  O   UNL     1       4.237   2.130  20.403  0.00  0.00    +0.000 OA
ATOM      9  O   UNL     1       3.514   1.670  18.030  0.00  0.00    +0.000 OA
BRANCH   7  10
ATOM     10  N   UNL     1       2.268   3.447  19.381  0.00  0.00    +0.000 NA
BRANCH  10  12
ATOM     11  C   UNL     1       1.993   5.644  18.161  0.00  0.00    +0.000 C 
ATOM     12  C   UNL     1       1.764   4.141  18.158  0.00  0.00    +0.000 C 
ENDBRANCH  10  12
BRANCH  10  13
ATOM     13  C   UNL     1       1.240   2.657  20.134  0.00  0.00    +0.000 C 
ATOM     14  C   UNL     1       1.339   2.810  21.644  0.00  0.00    +0.000 C 
ENDBRANCH  10  13
ENDBRANCH   7  10
ENDBRANCH   1   7
BRANCH   4  15
ATOM     15  C   UNL     1       7.546   6.875  17.108  0.00  0.00    +0.000 C 
ATOM     16  O   UNL     1       7.929   6.813  15.944  0.00  0.00    +0.000 OA
BRANCH  15  17
ATOM     17  C   UNL     1       8.040   7.923  18.046  0.00  0.00    +0.000 C 
ATOM     18  C   UNL     1       8.435   9.126  17.596  0.00  0.00    +0.000 C 
BRANCH  18  19
ATOM     19  C   UNL     1       8.999  10.164  18.474  0.00  0.00    +0.000 A 
ATOM     20  C   UNL     1       9.774  11.195  17.924  0.00  0.00    +0.000 A 
ATOM     21  C   UNL     1      10.346  12.176  18.746  0.00  0.00    +0.000 A 
ATOM     22  C   UNL     1      10.158  12.132  20.129  0.00  0.00    +0.000 A 
ATOM     23  C   UNL     1       9.405  11.101  20.675  0.00  0.00    +0.000 A 
ATOM     24  C   UNL     1       8.836  10.121  19.866  0.00  0.00    +0.000 A 
BRANCH  23  25
ATOM     25  O   UNL     1       9.196  11.002  22.019  0.00  0.00    +0.000 OA
ATOM     26  H   UNL     1       9.098  11.899  22.383  0.00  0.00    +0.000 HD
ENDBRANCH  23  25
ENDBRANCH  18  19
ENDBRANCH  15  17
ENDBRANCH   4  15
TORSDOF 8
ENDMDL
MODEL 6
REMARK VINA RESULT:      -7.3      0.481      1.695
REMARK  Name = 
REMARK  10 active torsions:
REMARK  status: ('A' for Active; 'I' for Inactive)
REMARK    1  A    between atoms: C_1  and  C_2
REMARK    2  A    between atoms: C_2  and  N_3
REMARK    3  A    between atoms: N_3  and  C_4
REMARK    4  A    between atoms: N_3  and  S_6
REMARK    5  A    between atoms: C_4  and  C_5
REMARK    6  A    between atoms: S_6  and  C_9
REMARK    7  A    between atoms: C_12  and  C_13
REMARK    8  A    between atoms: C_13  and  C_15
REMARK    9  A    between atoms: C_16  and  C_17
REMARK   10  A    between atoms: C_21  and  O_22
REMARK                            x       y       z     vdW  Elec       q    Type
REMARK                         _______ _______ _______ _____ _____    ______ ____
ROOT
ATOM      1  C   UNL     1       3.662   5.498  18.630  0.00  0.00    +0.000 A 
ATOM      2  C   UNL     1       3.718   6.296  17.487  0.00  0.00    +0.000 A 
ATOM      3  C   UNL     1       4.958   6.777  17.047  0.00  0.00    +0.000 A 
ATOM      4  C   UNL     1       6.136   6.462  17.743  0.00  0.00    +0.000 A 
ATOM      5  C   UNL     1       6.058   5.682  18.906  0.00  0.00    +0.000 A 
ATOM      6  C   UNL     1       4.823   5.197  19.349  0.00  0.00    +0.000 A 
ENDROOT
BRANCH   1   7
ATOM      7  S   UNL     1       2.083   4.892  19.204  0.00  0.00    +0.000 S 
ATOM      8  O   UNL     1       1.135   5.105  18.137  0.00  0.00    +0.000 OA
ATOM      9  O   UNL     1       1.861   5.439  20.531  0.00  0.00    +0.000 OA
BRANCH   7  10
ATOM     10  N   UNL     1       2.345   3.202  19.392  0.00  0.00    +0.000 NA
BRANCH  10  12
ATOM     11  C   UNL     1       3.719   1.275  18.504  0.00  0.00    +0.000 C 
ATOM     12  C   UNL     1       2.956   2.553  18.193  0.00  0.00    +0.000 C 
ENDBRANCH  10  12
BRANCH  10  13
ATOM     13  C   UNL     1       2.977   2.841  20.704  0.00  0.00    +0.000 C 
ATOM     14  C   UNL     1       1.974   2.443  21.775  0.00  0.00    +0.000 C 
ENDBRANCH  10  13
ENDBRANCH   7  10
ENDBRANCH   1   7
BRANCH   4  15
ATOM     15  C   UNL     1       7.428   6.993  17.215  0.00  0.00    +0.000 C 
ATOM     16  O   UNL     1       7.905   6.539  16.180  0.00  0.00    +0.000 OA
BRANCH  15  17
ATOM     17  C   UNL     1       8.138   8.024  18.024  0.00  0.00    +0.000 C 
ATOM     18  C   UNL     1       8.074   9.326  17.700  0.00  0.00    +0.000 C 
BRANCH  18  19
ATOM     19  C   UNL     1       8.817  10.370  18.422  0.00  0.00    +0.000 A 
ATOM     20  C   UNL     1       9.222  10.147  19.745  0.00  0.00    +0.000 A 
ATOM     21  C   UNL     1       9.905  11.141  20.461  0.00  0.00    +0.000 A 
ATOM     22  C   UNL     1      10.182  12.372  19.865  0.00  0.00    +0.000 A 
ATOM     23  C   UNL     1       9.766  12.599  18.560  0.00  0.00    +0.000 A 
ATOM     24  C   UNL     1       9.085  11.619  17.843  0.00  0.00    +0.000 A 
BRANCH  23  25
ATOM     25  O   UNL     1      10.001  13.786  17.930  0.00  0.00    +0.000 OA
ATOM     26  H   UNL     1       9.144  14.188  17.700  0.00  0.00    +0.000 HD
ENDBRANCH  23  25
ENDBRANCH  18  19
ENDBRANCH  15  17
ENDBRANCH   4  15
TORSDOF 8
ENDMDL
MODEL 7
REMARK VINA RESULT:      -7.3      5.385      8.436
REMARK  Name = 
REMARK  10 active torsions:
REMARK  status: ('A' for Active; 'I' for Inactive)
REMARK    1  A    between atoms: C_1  and  C_2
REMARK    2  A    between atoms: C_2  and  N_3
REMARK    3  A    between atoms: N_3  and  C_4
REMARK    4  A    between atoms: N_3  and  S_6
REMARK    5  A    between atoms: C_4  and  C_5
REMARK    6  A    between atoms: S_6  and  C_9
REMARK    7  A    between atoms: C_12  and  C_13
REMARK    8  A    between atoms: C_13  and  C_15
REMARK    9  A    between atoms: C_16  and  C_17
REMARK   10  A    between atoms: C_21  and  O_22
REMARK                            x       y       z     vdW  Elec       q    Type
REMARK                         _______ _______ _______ _____ _____    ______ ____
ROOT
ATOM      1  C   UNL     1       2.970   6.438  18.839  0.00  0.00    +0.000 A 
ATOM      2  C   UNL     1       2.823   7.421  17.858  0.00  0.00    +0.000 A 
ATOM      3  C   UNL     1       2.114   8.590  18.159  0.00  0.00    +0.000 A 
ATOM      4  C   UNL     1       1.555   8.780  19.433  0.00  0.00    +0.000 A 
ATOM      5  C   UNL     1       1.687   7.771  20.398  0.00  0.00    +0.000 A 
ATOM      6  C   UNL     1       2.396   6.602  20.103  0.00  0.00    +0.000 A 
ENDROOT
BRANCH   1   7
ATOM      7  S   UNL     1       3.862   4.939  18.457  0.00  0.00    +0.000 S 
ATOM      8  O   UNL     1       5.202   5.103  18.965  0.00  0.00    +0.000 OA
ATOM      9  O   UNL     1       3.617   4.630  17.059  0.00  0.00    +0.000 OA
BRANCH   7  10
ATOM     10  N   UNL     1       3.052   3.740  19.388  0.00  0.00    +0.000 NA
BRANCH  10  12
ATOM     11  C   UNL     1       0.729   3.165  20.199  0.00  0.00    +0.000 C 
ATOM     12  C   UNL     1       1.610   3.577  19.032  0.00  0.00    +0.000 C 
ENDBRANCH  10  12
BRANCH  10  13
ATOM     13  C   UNL     1       3.826   2.461  19.513  0.00  0.00    +0.000 C 
ATOM     14  C   UNL     1       3.603   1.498  18.358  0.00  0.00    +0.000 C 
ENDBRANCH  10  13
ENDBRANCH   7  10
ENDBRANCH   1   7
BRANCH   4  15
ATOM     15  C   UNL     1       0.823  10.054  19.698  0.00  0.00    +0.000 C 
ATOM     16  O   UNL     1       1.007  10.666  20.744  0.00  0.00    +0.000 OA
BRANCH  15  17
ATOM     17  C   UNL     1      -0.178  10.503  18.688  0.00  0.00    +0.000 C 
ATOM     18  C   UNL     1      -1.441  10.047  18.714  0.00  0.00    +0.000 C 
BRANCH  18  19
ATOM     19  C   UNL     1      -2.443  10.403  17.696  0.00  0.00    +0.000 A 
ATOM     20  C   UNL     1      -2.360   9.844  16.413  0.00  0.00    +0.000 A 
ATOM     21  C   UNL     1      -3.287  10.193  15.420  0.00  0.00    +0.000 A 
ATOM     22  C   UNL     1      -4.300  11.112  15.696  0.00  0.00    +0.000 A 
ATOM     23  C   UNL     1      -4.372  11.678  16.962  0.00  0.00    +0.000 A 
ATOM     24  C   UNL     1      -3.455  11.340  17.953  0.00  0.00    +0.000 A 
BRANCH  23  25
ATOM     25  O   UNL     1      -5.335  12.589  17.286  0.00  0.00    +0.000 OA
ATOM     26  H   UNL     1      -4.914  13.331  17.753  0.00  0.00    +0.000 HD
ENDBRANCH  23  25
ENDBRANCH  18  19
ENDBRANCH  15  17
ENDBRANCH   4  15
TORSDOF 8
ENDMDL
MODEL 8
REMARK VINA RESULT:      -7.3      1.121      2.174
REMARK  Name = 
REMARK  10 active torsions:
REMARK  status: ('A' for Active; 'I' for Inactive)
REMARK    1  A    between atoms: C_1  and  C_2
REMARK    2  A    between atoms: C_2  and  N_3
REMARK    3  A    between atoms: N_3  and  C_4
REMARK    4  A    between atoms: N_3  and  S_6
REMARK    5  A    between atoms: C_4  and  C_5
REMARK    6  A    between atoms: S_6  and  C_9
REMARK    7  A    between atoms: C_12  and  C_13
REMARK    8  A    between atoms: C_13  and  C_15
REMARK    9  A    between atoms: C_16  and  C_17
REMARK   10  A    between atoms: C_21  and  O_22
REMARK                            x       y       z     vdW  Elec       q    Type
REMARK                         _______ _______ _______ _____ _____    ______ ____
ROOT
ATOM      1  C   UNL     1       3.544   5.361  18.518  0.00  0.00    +0.000 A 
ATOM      2  C   UNL     1       3.626   6.244  17.440  0.00  0.00    +0.000 A 
ATOM      3  C   UNL     1       4.874   6.763  17.073  0.00  0.00    +0.000 A 
ATOM      4  C   UNL     1       6.034   6.403  17.777  0.00  0.00    +0.000 A 
ATOM      5  C   UNL     1       5.930   5.538  18.875  0.00  0.00    +0.000 A 
ATOM      6  C   UNL     1       4.687   5.014  19.245  0.00  0.00    +0.000 A 
ENDROOT
BRANCH   1   7
ATOM      7  S   UNL     1       1.954   4.705  18.999  0.00  0.00    +0.000 S 
ATOM      8  O   UNL     1       1.083   4.825  17.855  0.00  0.00    +0.000 OA
ATOM      9  O   UNL     1       1.606   5.297  20.278  0.00  0.00    +0.000 OA
BRANCH   7  10
ATOM     10  N   UNL     1       2.277   3.038  19.285  0.00  0.00    +0.000 NA
BRANCH  10  12
ATOM     11  C   UNL     1       3.946   1.331  18.458  0.00  0.00    +0.000 C 
ATOM     12  C   UNL     1       2.855   2.329  18.105  0.00  0.00    +0.000 C 
ENDBRANCH  10  12
BRANCH  10  13
ATOM     13  C   UNL     1       2.976   2.784  20.587  0.00  0.00    +0.000 C 
ATOM     14  C   UNL     1       2.035   2.414  21.723  0.00  0.00    +0.000 C 
ENDBRANCH  10  13
ENDBRANCH   7  10
ENDBRANCH   1   7
BRANCH   4  15
ATOM     15  C   UNL     1       7.337   6.980  17.328  0.00  0.00    +0.000 C 
ATOM     16  O   UNL     1       7.880   6.559  16.312  0.00  0.00    +0.000 OA
BRANCH  15  17
ATOM     17  C   UNL     1       7.972   8.017  18.190  0.00  0.00    +0.000 C 
ATOM     18  C   UNL     1       8.415   9.174  17.672  0.00  0.00    +0.000 C 
BRANCH  18  19
ATOM     19  C   UNL     1       9.116  10.193  18.469  0.00  0.00    +0.000 A 
ATOM     20  C   UNL     1      10.017  11.067  17.846  0.00  0.00    +0.000 A 
ATOM     21  C   UNL     1      10.717  12.025  18.593  0.00  0.00    +0.000 A 
ATOM     22  C   UNL     1      10.531  12.114  19.973  0.00  0.00    +0.000 A 
ATOM     23  C   UNL     1       9.651  11.237  20.594  0.00  0.00    +0.000 A 
ATOM     24  C   UNL     1       8.954  10.280  19.860  0.00  0.00    +0.000 A 
BRANCH  23  25
ATOM     25  O   UNL     1       9.437  11.271  21.940  0.00  0.00    +0.000 OA
ATOM     26  H   UNL     1       9.854  10.487  22.339  0.00  0.00    +0.000 HD
ENDBRANCH  23  25
ENDBRANCH  18  19
ENDBRANCH  15  17
ENDBRANCH   4  15
TORSDOF 8
ENDMDL
MODEL 9
REMARK VINA RESULT:      -7.2      5.497      8.789
REMARK  Name = 
REMARK  10 active torsions:
REMARK  status: ('A' for Active; 'I' for Inactive)
REMARK    1  A    between atoms: C_1  and  C_2
REMARK    2  A    between atoms: C_2  and  N_3
REMARK    3  A    between atoms: N_3  and  C_4
REMARK    4  A    between atoms: N_3  and  S_6
REMARK    5  A    between atoms: C_4  and  C_5
REMARK    6  A    between atoms: S_6  and  C_9
REMARK    7  A    between atoms: C_12  and  C_13
REMARK    8  A    between atoms: C_13  and  C_15
REMARK    9  A    between atoms: C_16  and  C_17
REMARK   10  A    between atoms: C_21  and  O_22
REMARK                            x       y       z     vdW  Elec       q    Type
REMARK                         _______ _______ _______ _____ _____    ______ ____
ROOT
ATOM      1  C   UNL     1       3.246   6.462  18.521  0.00  0.00    +0.000 A 
ATOM      2  C   UNL     1       2.629   6.539  19.770  0.00  0.00    +0.000 A 
ATOM      3  C   UNL     1       1.862   7.667  20.088  0.00  0.00    +0.000 A 
ATOM      4  C   UNL     1       1.710   8.713  19.163  0.00  0.00    +0.000 A 
ATOM      5  C   UNL     1       2.360   8.632  17.923  0.00  0.00    +0.000 A 
ATOM      6  C   UNL     1       3.125   7.507  17.600  0.00  0.00    +0.000 A 
ENDROOT
BRANCH   1   7
ATOM      7  S   UNL     1       4.235   5.032  18.114  0.00  0.00    +0.000 S 
ATOM      8  O   UNL     1       3.417   4.169  17.298  0.00  0.00    +0.000 OA
ATOM      9  O   UNL     1       4.840   4.555  19.346  0.00  0.00    +0.000 OA
BRANCH   7  10
ATOM     10  N   UNL     1       5.503   5.681  17.148  0.00  0.00    +0.000 NA
BRANCH  10  12
ATOM     11  C   UNL     1       7.592   6.936  17.817  0.00  0.00    +0.000 C 
ATOM     12  C   UNL     1       6.847   5.611  17.798  0.00  0.00    +0.000 C 
ENDBRANCH  10  12
BRANCH  10  13
ATOM     13  C   UNL     1       5.460   5.218  15.722  0.00  0.00    +0.000 C 
ATOM     14  C   UNL     1       6.459   4.116  15.408  0.00  0.00    +0.000 C 
ENDBRANCH  10  13
ENDBRANCH   7  10
ENDBRANCH   1   7
BRANCH   4  15
ATOM     15  C   UNL     1       0.868   9.883  19.555  0.00  0.00    +0.000 C 
ATOM     16  O   UNL     1       0.983  10.378  20.671  0.00  0.00    +0.000 OA
BRANCH  15  17
ATOM     17  C   UNL     1      -0.150  10.365  18.580  0.00  0.00    +0.000 C 
ATOM     18  C   UNL     1      -1.457  10.107  18.756  0.00  0.00    +0.000 C 
BRANCH  18  19
ATOM     19  C   UNL     1      -2.489  10.497  17.783  0.00  0.00    +0.000 A 
ATOM     20  C   UNL     1      -2.428  10.011  16.470  0.00  0.00    +0.000 A 
ATOM     21  C   UNL     1      -3.385  10.394  15.520  0.00  0.00    +0.000 A 
ATOM     22  C   UNL     1      -4.408  11.276  15.869  0.00  0.00    +0.000 A 
ATOM     23  C   UNL     1      -4.460  11.772  17.165  0.00  0.00    +0.000 A 
ATOM     24  C   UNL     1      -3.512  11.398  18.115  0.00  0.00    +0.000 A 
BRANCH  23  25
ATOM     25  O   UNL     1      -5.431  12.643  17.560  0.00  0.00    +0.000 OA
ATOM     26  H   UNL     1      -5.881  12.984  16.767  0.00  0.00    +0.000 HD
ENDBRANCH  23  25
ENDBRANCH  18  19
ENDBRANCH  15  17
ENDBRANCH   4  15
TORSDOF 8
ENDMDL
