MODEL 1
REMARK VINA RESULT:      -7.5      0.000      0.000
REMARK  Name = 
REMARK  7 active torsions:
REMARK  status: ('A' for Active; 'I' for Inactive)
REMARK    1  A    between atoms: C_1  and  C_2
REMARK    2  A    between atoms: C_2  and  O_3
REMARK    3  A    between atoms: O_3  and  C_4
REMARK    4  A    between atoms: C_4  and  C_5
REMARK    5  A    between atoms: N_12  and  C_13
REMARK    6  A    between atoms: C_13  and  C_14
REMARK    7  A    between atoms: C_17  and  C_18
REMARK                            x       y       z     vdW  Elec       q    Type
REMARK                         _______ _______ _______ _____ _____    ______ ____
ROOT
ATOM      1  C   UNL     1       1.647   5.077  19.466  0.00  0.00    +0.000 C 
ATOM      2  C   UNL     1       1.067   4.492  20.764  0.00  0.00    +0.000 C 
ATOM      3  C   UNL     1       2.074   3.594  21.491  0.00  0.00    +0.000 C 
ATOM      4  C   UNL     1       2.716   2.558  20.557  0.00  0.00    +0.000 C 
ATOM      5  N   UNL     1       3.173   3.152  19.294  0.00  0.00    +0.000 N 
ATOM      6  C   UNL     1       4.526   3.159  18.974  0.00  0.00    +0.000 C 
ATOM      7  O   UNL     1       5.399   2.726  19.717  0.00  0.00    +0.000 OA
ATOM      8  N   UNL     1       4.805   3.726  17.755  0.00  0.00    +0.000 N 
ATOM      9  C   UNL     1       2.148   3.926  18.590  0.00  0.00    +0.000 C 
ATOM     10  H   UNL     1       4.095   3.616  17.053  0.00  0.00    +0.000 HD
ENDROOT
BRANCH   1  11
ATOM     11  C   UNL     1       2.758   6.099  19.756  0.00  0.00    +0.000 C 
BRANCH  11  12
ATOM     12  O   UNL     1       2.303   7.431  19.496  0.00  0.00    +0.000 OA
BRANCH  12  14
ATOM     13  C   UNL     1       2.238   9.261  17.929  0.00  0.00    +0.000 C 
ATOM     14  C   UNL     1       2.663   7.826  18.170  0.00  0.00    +0.000 C 
ENDBRANCH  12  14
ENDBRANCH  11  12
ENDBRANCH   1  11
BRANCH   8  15
ATOM     15  C   UNL     1       6.136   3.878  17.225  0.00  0.00    +0.000 C 
BRANCH  15  16
ATOM     16  C   UNL     1       6.669   5.256  17.518  0.00  0.00    +0.000 A 
ATOM     17  C   UNL     1       6.238   6.382  16.805  0.00  0.00    +0.000 A 
ATOM     18  C   UNL     1       6.789   7.643  17.070  0.00  0.00    +0.000 A 
ATOM     19  C   UNL     1       7.782   7.799  18.047  0.00  0.00    +0.000 A 
ATOM     20  C   UNL     1       8.208   6.667  18.753  0.00  0.00    +0.000 A 
ATOM     21  C   UNL     1       7.665   5.411  18.487  0.00  0.00    +0.000 A 
BRANCH  19  22
ATOM     22  C   UNL     1       8.360   9.113  18.325  0.00  0.00    +0.000 A 
ATOM     23  C   UNL     1       8.341  10.298  17.612  0.00  0.00    +0.000 A 
ATOM     24  C   UNL     1       9.059  11.217  18.398  0.00  0.00    +0.000 A 
ATOM     25  N   UNL     1       9.520  10.671  19.523  0.00  0.00    +0.000 NA
ATOM     26  N   UNL     1       9.093   9.399  19.451  0.00  0.00    +0.000 N 
ATOM     27  H   UNL     1       9.342   8.768  20.203  0.00  0.00    +0.000 HD
ENDBRANCH  19  22
ENDBRANCH  15  16
ENDBRANCH   8  15
TORSDOF 6
ENDMDL
MODEL 2
REMARK VINA RESULT:      -7.1      0.569      1.117
REMARK  Name = 
REMARK  7 active torsions:
REMARK  status: ('A' for Active; 'I' for Inactive)
REMARK    1  A    between atoms: C_1  and  C_2
REMARK    2  A    between atoms: C_2  and  O_3
REMARK    3  A    between atoms: O_3  and  C_4
REMARK    4  A    between atoms: C_4  and  C_5
REMARK    5  A    between atoms: N_12  and  C_13
REMARK    6  A    between atoms: C_13  and  C_14
REMARK    7  A    between atoms: C_17  and  C_18
REMARK                            x       y       z     vdW  Elec       q    Type
REMARK                         _______ _______ _______ _____ _____    ______ ____
ROOT
ATOM      1  C   UNL     1       1.654   5.425  18.914  0.00  0.00    +0.000 C 
ATOM      2  C   UNL     1       1.035   5.020  20.262  0.00  0.00    +0.000 C 
ATOM      3  C   UNL     1       2.014   4.221  21.129  0.00  0.00    +0.000 C 
ATOM      4  C   UNL     1       2.672   3.066  20.357  0.00  0.00    +0.000 C 
ATOM      5  N   UNL     1       3.166   3.485  19.040  0.00  0.00    +0.000 N 
ATOM      6  C   UNL     1       4.528   3.443  18.758  0.00  0.00    +0.000 C 
ATOM      7  O   UNL     1       5.377   3.107  19.575  0.00  0.00    +0.000 OA
ATOM      8  N   UNL     1       4.843   3.842  17.483  0.00  0.00    +0.000 N 
ATOM      9  C   UNL     1       2.167   4.165  18.212  0.00  0.00    +0.000 C 
ATOM     10  H   UNL     1       4.152   3.643  16.783  0.00  0.00    +0.000 HD
ENDROOT
BRANCH   1  11
ATOM     11  C   UNL     1       2.767   6.470  19.096  0.00  0.00    +0.000 C 
BRANCH  11  12
ATOM     12  O   UNL     1       2.854   7.323  17.950  0.00  0.00    +0.000 OA
BRANCH  12  14
ATOM     13  C   UNL     1       1.207   9.062  17.691  0.00  0.00    +0.000 C 
ATOM     14  C   UNL     1       2.533   8.669  18.309  0.00  0.00    +0.000 C 
ENDBRANCH  12  14
ENDBRANCH  11  12
ENDBRANCH   1  11
BRANCH   8  15
ATOM     15  C   UNL     1       6.190   3.915  16.975  0.00  0.00    +0.000 C 
BRANCH  15  16
ATOM     16  C   UNL     1       6.822   5.232  17.338  0.00  0.00    +0.000 A 
ATOM     17  C   UNL     1       7.646   5.372  18.463  0.00  0.00    +0.000 A 
ATOM     18  C   UNL     1       8.180   6.621  18.800  0.00  0.00    +0.000 A 
ATOM     19  C   UNL     1       7.897   7.754  18.024  0.00  0.00    +0.000 A 
ATOM     20  C   UNL     1       7.070   7.606  16.903  0.00  0.00    +0.000 A 
ATOM     21  C   UNL     1       6.533   6.363  16.569  0.00  0.00    +0.000 A 
BRANCH  19  22
ATOM     22  C   UNL     1       8.451   9.060  18.374  0.00  0.00    +0.000 A 
ATOM     23  C   UNL     1       8.433  10.277  17.717  0.00  0.00    +0.000 A 
ATOM     24  C   UNL     1       9.120  11.167  18.560  0.00  0.00    +0.000 A 
ATOM     25  N   UNL     1       9.563  10.576  19.669  0.00  0.00    +0.000 NA
ATOM     26  N   UNL     1       9.155   9.303  19.529  0.00  0.00    +0.000 N 
ATOM     27  H   UNL     1       9.396   8.641  20.257  0.00  0.00    +0.000 HD
ENDBRANCH  19  22
ENDBRANCH  15  16
ENDBRANCH   8  15
TORSDOF 6
ENDMDL
MODEL 3
REMARK VINA RESULT:      -7.1      3.046      6.021
REMARK  Name = 
REMARK  7 active torsions:
REMARK  status: ('A' for Active; 'I' for Inactive)
REMARK    1  A    between atoms: C_1  and  C_2
REMARK    2  A    between atoms: C_2  and  O_3
REMARK    3  A    between atoms: O_3  and  C_4
REMARK    4  A    between atoms: C_4  and  C_5
REMARK    5  A    between atoms: N_12  and  C_13
REMARK    6  A    between atoms: C_13  and  C_14
REMARK    7  A    between atoms: C_17  and  C_18
REMARK                            x       y       z     vdW  Elec       q    Type
REMARK                         _______ _______ _______ _____ _____    ______ ____
ROOT
ATOM      1  C   UNL     1       6.954   5.738  17.253  0.00  0.00    +0.000 C 
ATOM      2  C   UNL     1       7.303   5.109  15.894  0.00  0.00    +0.000 C 
ATOM      3  C   UNL     1       6.086   4.453  15.233  0.00  0.00    +0.000 C 
ATOM      4  C   UNL     1       5.331   3.520  16.192  0.00  0.00    +0.000 C 
ATOM      5  N   UNL     1       5.102   4.135  17.505  0.00  0.00    +0.000 N 
ATOM      6  C   UNL     1       3.807   4.388  17.942  0.00  0.00    +0.000 C 
ATOM      7  O   UNL     1       2.809   4.162  17.267  0.00  0.00    +0.000 OA
ATOM      8  N   UNL     1       3.742   4.944  19.196  0.00  0.00    +0.000 N 
ATOM      9  C   UNL     1       6.311   4.668  18.138  0.00  0.00    +0.000 C 
ATOM     10  H   UNL     1       4.471   4.671  19.829  0.00  0.00    +0.000 HD
ENDROOT
BRANCH   1  11
ATOM     11  C   UNL     1       6.043   6.966  17.088  0.00  0.00    +0.000 C 
BRANCH  11  12
ATOM     12  O   UNL     1       6.819   8.167  17.019  0.00  0.00    +0.000 OA
BRANCH  12  14
ATOM     13  C   UNL     1       8.467   9.471  18.198  0.00  0.00    +0.000 C 
ATOM     14  C   UNL     1       7.943   8.081  17.898  0.00  0.00    +0.000 C 
ENDBRANCH  12  14
ENDBRANCH  11  12
ENDBRANCH   1  11
BRANCH   8  15
ATOM     15  C   UNL     1       2.513   5.326  19.843  0.00  0.00    +0.000 C 
BRANCH  15  16
ATOM     16  C   UNL     1       2.222   6.785  19.611  0.00  0.00    +0.000 A 
ATOM     17  C   UNL     1       1.606   7.581  20.585  0.00  0.00    +0.000 A 
ATOM     18  C   UNL     1       1.305   8.923  20.319  0.00  0.00    +0.000 A 
ATOM     19  C   UNL     1       1.610   9.491  19.074  0.00  0.00    +0.000 A 
ATOM     20  C   UNL     1       2.223   8.687  18.105  0.00  0.00    +0.000 A 
ATOM     21  C   UNL     1       2.518   7.350  18.367  0.00  0.00    +0.000 A 
BRANCH  19  22
ATOM     22  C   UNL     1       1.297  10.891  18.793  0.00  0.00    +0.000 A 
ATOM     23  C   UNL     1       0.179  11.658  19.063  0.00  0.00    +0.000 A 
ATOM     24  C   UNL     1       0.474  12.938  18.563  0.00  0.00    +0.000 A 
ATOM     25  N   UNL     1       1.680  12.996  17.999  0.00  0.00    +0.000 NA
ATOM     26  N   UNL     1       2.152  11.746  18.142  0.00  0.00    +0.000 N 
ATOM     27  H   UNL     1       3.069  11.535  17.765  0.00  0.00    +0.000 HD
ENDBRANCH  19  22
ENDBRANCH  15  16
ENDBRANCH   8  15
TORSDOF 6
ENDMDL
MODEL 4
REMARK VINA RESULT:      -7.0      1.009      1.064
REMARK  Name = 
REMARK  7 active torsions:
REMARK  status: ('A' for Active; 'I' for Inactive)
REMARK    1  A    between atoms: C_1  and  C_2
REMARK    2  A    between atoms: C_2  and  O_3
REMARK    3  A    between atoms: O_3  and  C_4
REMARK    4  A    between atoms: C_4  and  C_5
REMARK    5  A    between atoms: N_12  and  C_13
REMARK    6  A    between atoms: C_13  and  C_14
REMARK    7  A    between atoms: C_17  and  C_18
REMARK                            x       y       z     vdW  Elec       q    Type
REMARK                         _______ _______ _______ _____ _____    ______ ____
ROOT
ATOM      1  C   UNL     1       1.669   5.268  19.315  0.00  0.00    +0.000 C 
ATOM      2  C   UNL     1       1.059   4.699  20.607  0.00  0.00    +0.000 C 
ATOM      3  C   UNL     1       2.047   3.809  21.368  0.00  0.00    +0.000 C 
ATOM      4  C   UNL     1       2.709   2.760  20.461  0.00  0.00    +0.000 C 
ATOM      5  N   UNL     1       3.195   3.338  19.202  0.00  0.00    +0.000 N 
ATOM      6  C   UNL     1       4.555   3.339  18.912  0.00  0.00    +0.000 C 
ATOM      7  O   UNL     1       5.410   2.914  19.680  0.00  0.00    +0.000 OA
ATOM      8  N   UNL     1       4.862   3.891  17.693  0.00  0.00    +0.000 N 
ATOM      9  C   UNL     1       2.187   4.105  18.466  0.00  0.00    +0.000 C 
ATOM     10  H   UNL     1       4.168   3.773  16.977  0.00  0.00    +0.000 HD
ENDROOT
BRANCH   1  11
ATOM     11  C   UNL     1       2.775   6.291  19.618  0.00  0.00    +0.000 C 
BRANCH  11  12
ATOM     12  O   UNL     1       2.306   7.626  19.397  0.00  0.00    +0.000 OA
BRANCH  12  14
ATOM     13  C   UNL     1       0.902   9.413  20.197  0.00  0.00    +0.000 C 
ATOM     14  C   UNL     1       1.509   8.059  20.502  0.00  0.00    +0.000 C 
ENDBRANCH  12  14
ENDBRANCH  11  12
ENDBRANCH   1  11
BRANCH   8  15
ATOM     15  C   UNL     1       6.205   4.034  17.192  0.00  0.00    +0.000 C 
BRANCH  15  16
ATOM     16  C   UNL     1       6.737   5.411  17.488  0.00  0.00    +0.000 A 
ATOM     17  C   UNL     1       6.371   6.527  16.724  0.00  0.00    +0.000 A 
ATOM     18  C   UNL     1       6.921   7.785  16.996  0.00  0.00    +0.000 A 
ATOM     19  C   UNL     1       7.850   7.951  18.033  0.00  0.00    +0.000 A 
ATOM     20  C   UNL     1       8.213   6.831  18.791  0.00  0.00    +0.000 A 
ATOM     21  C   UNL     1       7.670   5.576  18.517  0.00  0.00    +0.000 A 
BRANCH  19  22
ATOM     22  C   UNL     1       8.427   9.263  18.319  0.00  0.00    +0.000 A 
ATOM     23  C   UNL     1       9.232   9.712  19.350  0.00  0.00    +0.000 A 
ATOM     24  C   UNL     1       9.475  11.069  19.070  0.00  0.00    +0.000 A 
ATOM     25  N   UNL     1       8.866  11.474  17.957  0.00  0.00    +0.000 NA
ATOM     26  N   UNL     1       8.233  10.369  17.527  0.00  0.00    +0.000 N 
ATOM     27  H   UNL     1       7.673  10.436  16.685  0.00  0.00    +0.000 HD
ENDBRANCH  19  22
ENDBRANCH  15  16
ENDBRANCH   8  15
TORSDOF 6
ENDMDL
MODEL 5
REMARK VINA RESULT:      -6.8      3.106      6.090
REMARK  Name = 
REMARK  7 active torsions:
REMARK  status: ('A' for Active; 'I' for Inactive)
REMARK    1  A    between atoms: C_1  and  C_2
REMARK    2  A    between atoms: C_2  and  O_3
REMARK    3  A    between atoms: O_3  and  C_4
REMARK    4  A    between atoms: C_4  and  C_5
REMARK    5  A    between atoms: N_12  and  C_13
REMARK    6  A    between atoms: C_13  and  C_14
REMARK    7  A    between atoms: C_17  and  C_18
REMARK                            x       y       z     vdW  Elec       q    Type
REMARK                         _______ _______ _______ _____ _____    ______ ____
ROOT
ATOM      1  C   UNL     1       6.924   5.665  16.561  0.00  0.00    +0.000 C 
ATOM      2  C   UNL     1       7.131   5.257  15.093  0.00  0.00    +0.000 C 
ATOM      3  C   UNL     1       5.920   4.508  14.527  0.00  0.00    +0.000 C 
ATOM      4  C   UNL     1       5.455   3.367  15.445  0.00  0.00    +0.000 C 
ATOM      5  N   UNL     1       5.360   3.784  16.849  0.00  0.00    +0.000 N 
ATOM      6  C   UNL     1       4.129   3.788  17.495  0.00  0.00    +0.000 C 
ATOM      7  O   UNL     1       3.075   3.495  16.943  0.00  0.00    +0.000 OA
ATOM      8  N   UNL     1       4.193   4.178  18.810  0.00  0.00    +0.000 N 
ATOM      9  C   UNL     1       6.575   4.414  17.372  0.00  0.00    +0.000 C 
ATOM     10  H   UNL     1       5.043   3.944  19.291  0.00  0.00    +0.000 HD
ENDROOT
BRANCH   1  11
ATOM     11  C   UNL     1       5.847   6.753  16.698  0.00  0.00    +0.000 C 
BRANCH  11  12
ATOM     12  O   UNL     1       6.432   8.000  17.086  0.00  0.00    +0.000 OA
BRANCH  12  14
ATOM     13  C   UNL     1       8.351   9.109  18.032  0.00  0.00    +0.000 C 
ATOM     14  C   UNL     1       7.705   7.780  17.699  0.00  0.00    +0.000 C 
ENDBRANCH  12  14
ENDBRANCH  11  12
ENDBRANCH   1  11
BRANCH   8  15
ATOM     15  C   UNL     1       3.044   4.293  19.671  0.00  0.00    +0.000 C 
BRANCH  15  16
ATOM     16  C   UNL     1       2.558   5.718  19.719  0.00  0.00    +0.000 A 
ATOM     17  C   UNL     1       1.783   6.200  20.782  0.00  0.00    +0.000 A 
ATOM     18  C   UNL     1       1.307   7.517  20.772  0.00  0.00    +0.000 A 
ATOM     19  C   UNL     1       1.592   8.374  19.700  0.00  0.00    +0.000 A 
ATOM     20  C   UNL     1       2.365   7.882  18.640  0.00  0.00    +0.000 A 
ATOM     21  C   UNL     1       2.835   6.569  18.645  0.00  0.00    +0.000 A 
BRANCH  19  22
ATOM     22  C   UNL     1       1.095   9.748  19.686  0.00  0.00    +0.000 A 
ATOM     23  C   UNL     1       0.785  10.607  18.647  0.00  0.00    +0.000 A 
ATOM     24  C   UNL     1       0.340  11.790  19.261  0.00  0.00    +0.000 A 
ATOM     25  N   UNL     1       0.371  11.714  20.591  0.00  0.00    +0.000 NA
ATOM     26  N   UNL     1       0.839  10.476  20.822  0.00  0.00    +0.000 N 
ATOM     27  H   UNL     1       0.969  10.187  21.784  0.00  0.00    +0.000 HD
ENDBRANCH  19  22
ENDBRANCH  15  16
ENDBRANCH   8  15
TORSDOF 6
ENDMDL
MODEL 6
REMARK VINA RESULT:      -6.8      3.795      6.731
REMARK  Name = 
REMARK  7 active torsions:
REMARK  status: ('A' for Active; 'I' for Inactive)
REMARK    1  A    between atoms: C_1  and  C_2
REMARK    2  A    between atoms: C_2  and  O_3
REMARK    3  A    between atoms: O_3  and  C_4
REMARK    4  A    between atoms: C_4  and  C_5
REMARK    5  A    between atoms: N_12  and  C_13
REMARK    6  A    between atoms: C_13  and  C_14
REMARK    7  A    between atoms: C_17  and  C_18
REMARK                            x       y       z     vdW  Elec       q    Type
REMARK                         _______ _______ _______ _____ _____    ______ ____
ROOT
ATOM      1  C   UNL     1       5.317   4.378  15.502  0.00  0.00    +0.000 C 
ATOM      2  C   UNL     1       6.825   4.105  15.383  0.00  0.00    +0.000 C 
ATOM      3  C   UNL     1       7.554   4.306  16.716  0.00  0.00    +0.000 C 
ATOM      4  C   UNL     1       7.200   5.646  17.381  0.00  0.00    +0.000 C 
ATOM      5  N   UNL     1       5.755   5.900  17.389  0.00  0.00    +0.000 N 
ATOM      6  C   UNL     1       5.067   5.987  18.594  0.00  0.00    +0.000 C 
ATOM      7  O   UNL     1       5.594   5.820  19.688  0.00  0.00    +0.000 OA
ATOM      8  N   UNL     1       3.726   6.250  18.451  0.00  0.00    +0.000 N 
ATOM      9  C   UNL     1       5.118   5.784  16.075  0.00  0.00    +0.000 C 
ATOM     10  H   UNL     1       3.478   6.812  17.657  0.00  0.00    +0.000 HD
ENDROOT
BRANCH   1  11
ATOM     11  C   UNL     1       4.616   3.309  16.357  0.00  0.00    +0.000 C 
BRANCH  11  12
ATOM     12  O   UNL     1       3.307   3.743  16.739  0.00  0.00    +0.000 OA
BRANCH  12  14
ATOM     13  C   UNL     1       1.393   3.350  18.149  0.00  0.00    +0.000 C 
ATOM     14  C   UNL     1       2.744   2.839  17.693  0.00  0.00    +0.000 C 
ENDBRANCH  12  14
ENDBRANCH  11  12
ENDBRANCH   1  11
BRANCH   8  15
ATOM     15  C   UNL     1       2.805   6.350  19.554  0.00  0.00    +0.000 C 
BRANCH  15  16
ATOM     16  C   UNL     1       2.038   7.644  19.488  0.00  0.00    +0.000 A 
ATOM     17  C   UNL     1       1.964   8.401  18.312  0.00  0.00    +0.000 A 
ATOM     18  C   UNL     1       1.282   9.624  18.297  0.00  0.00    +0.000 A 
ATOM     19  C   UNL     1       0.667  10.115  19.457  0.00  0.00    +0.000 A 
ATOM     20  C   UNL     1       0.748   9.353  20.630  0.00  0.00    +0.000 A 
ATOM     21  C   UNL     1       1.432   8.137  20.647  0.00  0.00    +0.000 A 
BRANCH  19  22
ATOM     22  C   UNL     1      -0.044  11.392  19.446  0.00  0.00    +0.000 A 
ATOM     23  C   UNL     1      -0.835  12.016  20.393  0.00  0.00    +0.000 A 
ATOM     24  C   UNL     1      -1.226  13.234  19.809  0.00  0.00    +0.000 A 
ATOM     25  N   UNL     1      -0.742  13.383  18.576  0.00  0.00    +0.000 NA
ATOM     26  N   UNL     1      -0.040  12.255  18.377  0.00  0.00    +0.000 N 
ATOM     27  H   UNL     1       0.416  12.128  17.481  0.00  0.00    +0.000 HD
ENDBRANCH  19  22
ENDBRANCH  15  16
ENDBRANCH   8  15
TORSDOF 6
ENDMDL
MODEL 7
REMARK VINA RESULT:      -6.8      3.794      6.877
REMARK  Name = 
REMARK  7 active torsions:
REMARK  status: ('A' for Active; 'I' for Inactive)
REMARK    1  A    between atoms: C_1  and  C_2
REMARK    2  A    between atoms: C_2  and  O_3
REMARK    3  A    between atoms: O_3  and  C_4
REMARK    4  A    between atoms: C_4  and  C_5
REMARK    5  A    between atoms: N_12  and  C_13
REMARK    6  A    between atoms: C_13  and  C_14
REMARK    7  A    between atoms: C_17  and  C_18
REMARK                            x       y       z     vdW  Elec       q    Type
REMARK                         _______ _______ _______ _____ _____    ______ ____
ROOT
ATOM      1  C   UNL     1       5.222   4.498  15.519  0.00  0.00    +0.000 C 
ATOM      2  C   UNL     1       6.727   4.266  15.309  0.00  0.00    +0.000 C 
ATOM      3  C   UNL     1       7.517   4.391  16.616  0.00  0.00    +0.000 C 
ATOM      4  C   UNL     1       7.172   5.674  17.389  0.00  0.00    +0.000 C 
ATOM      5  N   UNL     1       5.724   5.896  17.483  0.00  0.00    +0.000 N 
ATOM      6  C   UNL     1       5.095   5.885  18.723  0.00  0.00    +0.000 C 
ATOM      7  O   UNL     1       5.679   5.655  19.776  0.00  0.00    +0.000 OA
ATOM      8  N   UNL     1       3.745   6.128  18.663  0.00  0.00    +0.000 N 
ATOM      9  C   UNL     1       5.025   5.857  16.197  0.00  0.00    +0.000 C 
ATOM     10  H   UNL     1       3.447   6.738  17.924  0.00  0.00    +0.000 HD
ENDROOT
BRANCH   1  11
ATOM     11  C   UNL     1       4.584   3.358  16.329  0.00  0.00    +0.000 C 
BRANCH  11  12
ATOM     12  O   UNL     1       3.294   3.743  16.816  0.00  0.00    +0.000 OA
BRANCH  12  14
ATOM     13  C   UNL     1       1.496   3.160  18.311  0.00  0.00    +0.000 C 
ATOM     14  C   UNL     1       2.688   2.657  17.523  0.00  0.00    +0.000 C 
ENDBRANCH  12  14
ENDBRANCH  11  12
ENDBRANCH   1  11
BRANCH   8  15
ATOM     15  C   UNL     1       2.878   6.132  19.814  0.00  0.00    +0.000 C 
BRANCH  15  16
ATOM     16  C   UNL     1       2.078   7.407  19.870  0.00  0.00    +0.000 A 
ATOM     17  C   UNL     1       1.319   7.755  20.995  0.00  0.00    +0.000 A 
ATOM     18  C   UNL     1       0.548   8.924  20.997  0.00  0.00    +0.000 A 
ATOM     19  C   UNL     1       0.518   9.763  19.874  0.00  0.00    +0.000 A 
ATOM     20  C   UNL     1       1.277   9.406  18.753  0.00  0.00    +0.000 A 
ATOM     21  C   UNL     1       2.040   8.239  18.748  0.00  0.00    +0.000 A 
BRANCH  19  22
ATOM     22  C   UNL     1      -0.287  10.983  19.872  0.00  0.00    +0.000 A 
ATOM     23  C   UNL     1      -0.715  11.808  20.896  0.00  0.00    +0.000 A 
ATOM     24  C   UNL     1      -1.443  12.834  20.269  0.00  0.00    +0.000 A 
ATOM     25  N   UNL     1      -1.499  12.681  18.947  0.00  0.00    +0.000 NA
ATOM     26  N   UNL     1      -0.802  11.552  18.733  0.00  0.00    +0.000 N 
ATOM     27  H   UNL     1      -0.720  11.215  17.781  0.00  0.00    +0.000 HD
ENDBRANCH  19  22
ENDBRANCH  15  16
ENDBRANCH   8  15
TORSDOF 6
ENDMDL
MODEL 8
REMARK VINA RESULT:      -6.7      3.420      6.011
REMARK  Name = 
REMARK  7 active torsions:
REMARK  status: ('A' for Active; 'I' for Inactive)
REMARK    1  A    between atoms: C_1  and  C_2
REMARK    2  A    between atoms: C_2  and  O_3
REMARK    3  A    between atoms: O_3  and  C_4
REMARK    4  A    between atoms: C_4  and  C_5
REMARK    5  A    between atoms: N_12  and  C_13
REMARK    6  A    between atoms: C_13  and  C_14
REMARK    7  A    between atoms: C_17  and  C_18
REMARK                            x       y       z     vdW  Elec       q    Type
REMARK                         _______ _______ _______ _____ _____    ______ ____
ROOT
ATOM      1  C   UNL     1       6.277   5.430  17.719  0.00  0.00    +0.000 C 
ATOM      2  C   UNL     1       6.504   4.566  16.467  0.00  0.00    +0.000 C 
ATOM      3  C   UNL     1       5.214   3.892  15.990  0.00  0.00    +0.000 C 
ATOM      4  C   UNL     1       4.469   3.179  17.129  0.00  0.00    +0.000 C 
ATOM      5  N   UNL     1       4.357   4.013  18.331  0.00  0.00    +0.000 N 
ATOM      6  C   UNL     1       3.107   4.418  18.787  0.00  0.00    +0.000 C 
ATOM      7  O   UNL     1       2.059   4.150  18.212  0.00  0.00    +0.000 OA
ATOM      8  N   UNL     1       3.152   5.174  19.933  0.00  0.00    +0.000 N 
ATOM      9  C   UNL     1       5.631   4.562  18.802  0.00  0.00    +0.000 C 
ATOM     10  H   UNL     1       3.903   4.960  20.564  0.00  0.00    +0.000 HD
ENDROOT
BRANCH   1  11
ATOM     11  C   UNL     1       5.427   6.671  17.400  0.00  0.00    +0.000 C 
BRANCH  11  12
ATOM     12  O   UNL     1       6.257   7.760  16.981  0.00  0.00    +0.000 OA
BRANCH  12  14
ATOM     13  C   UNL     1       8.080   9.068  17.858  0.00  0.00    +0.000 C 
ATOM     14  C   UNL     1       7.538   7.675  17.609  0.00  0.00    +0.000 C 
ENDBRANCH  12  14
ENDBRANCH  11  12
ENDBRANCH   1  11
BRANCH   8  15
ATOM     15  C   UNL     1       1.989   5.735  20.571  0.00  0.00    +0.000 C 
BRANCH  15  16
ATOM     16  C   UNL     1       1.808   7.176  20.172  0.00  0.00    +0.000 A 
ATOM     17  C   UNL     1       1.175   8.102  21.011  0.00  0.00    +0.000 A 
ATOM     18  C   UNL     1       0.980   9.423  20.590  0.00  0.00    +0.000 A 
ATOM     19  C   UNL     1       1.410   9.842  19.323  0.00  0.00    +0.000 A 
ATOM     20  C   UNL     1       2.040   8.909  18.490  0.00  0.00    +0.000 A 
ATOM     21  C   UNL     1       2.229   7.591  18.905  0.00  0.00    +0.000 A 
BRANCH  19  22
ATOM     22  C   UNL     1       1.207  11.220  18.880  0.00  0.00    +0.000 A 
ATOM     23  C   UNL     1       2.092  12.263  18.674  0.00  0.00    +0.000 A 
ATOM     24  C   UNL     1       1.303  13.339  18.232  0.00  0.00    +0.000 A 
ATOM     25  N   UNL     1       0.009  13.028  18.170  0.00  0.00    +0.000 NA
ATOM     26  N   UNL     1      -0.024  11.747  18.574  0.00  0.00    +0.000 N 
ATOM     27  H   UNL     1      -0.925  11.286  18.629  0.00  0.00    +0.000 HD
ENDBRANCH  19  22
ENDBRANCH  15  16
ENDBRANCH   8  15
TORSDOF 6
ENDMDL
MODEL 9
REMARK VINA RESULT:      -6.6      3.046      5.821
REMARK  Name = 
REMARK  7 active torsions:
REMARK  status: ('A' for Active; 'I' for Inactive)
REMARK    1  A    between atoms: C_1  and  C_2
REMARK    2  A    between atoms: C_2  and  O_3
REMARK    3  A    between atoms: O_3  and  C_4
REMARK    4  A    between atoms: C_4  and  C_5
REMARK    5  A    between atoms: N_12  and  C_13
REMARK    6  A    between atoms: C_13  and  C_14
REMARK    7  A    between atoms: C_17  and  C_18
REMARK                            x       y       z     vdW  Elec       q    Type
REMARK                         _______ _______ _______ _____ _____    ______ ____
ROOT
ATOM      1  C   UNL     1       6.277   5.159  17.910  0.00  0.00    +0.000 C 
ATOM      2  C   UNL     1       6.465   4.388  16.593  0.00  0.00    +0.000 C 
ATOM      3  C   UNL     1       5.128   3.949  15.986  0.00  0.00    +0.000 C 
ATOM      4  C   UNL     1       4.222   3.249  17.011  0.00  0.00    +0.000 C 
ATOM      5  N   UNL     1       4.147   3.980  18.281  0.00  0.00    +0.000 N 
ATOM      6  C   UNL     1       2.937   4.515  18.710  0.00  0.00    +0.000 C 
ATOM      7  O   UNL     1       1.901   4.451  18.058  0.00  0.00    +0.000 OA
ATOM      8  N   UNL     1       3.010   5.152  19.924  0.00  0.00    +0.000 N 
ATOM      9  C   UNL     1       5.451   4.298  18.868  0.00  0.00    +0.000 C 
ATOM     10  H   UNL     1       3.682   4.778  20.569  0.00  0.00    +0.000 HD
ENDROOT
BRANCH   1  11
ATOM     11  C   UNL     1       5.626   6.532  17.670  0.00  0.00    +0.000 C 
BRANCH  11  12
ATOM     12  O   UNL     1       6.502   7.385  16.926  0.00  0.00    +0.000 OA
BRANCH  12  14
ATOM     13  C   UNL     1       7.944   9.142  17.725  0.00  0.00    +0.000 C 
ATOM     14  C   UNL     1       7.690   7.649  17.676  0.00  0.00    +0.000 C 
ENDBRANCH  12  14
ENDBRANCH  11  12
ENDBRANCH   1  11
BRANCH   8  15
ATOM     15  C   UNL     1       1.895   5.813  20.553  0.00  0.00    +0.000 C 
BRANCH  15  16
ATOM     16  C   UNL     1       1.772   7.230  20.059  0.00  0.00    +0.000 A 
ATOM     17  C   UNL     1       2.318   7.637  18.836  0.00  0.00    +0.000 A 
ATOM     18  C   UNL     1       2.228   8.974  18.427  0.00  0.00    +0.000 A 
ATOM     19  C   UNL     1       1.594   9.928  19.237  0.00  0.00    +0.000 A 
ATOM     20  C   UNL     1       1.054   9.513  20.460  0.00  0.00    +0.000 A 
ATOM     21  C   UNL     1       1.148   8.183  20.870  0.00  0.00    +0.000 A 
BRANCH  19  22
ATOM     22  C   UNL     1       1.500  11.324  18.815  0.00  0.00    +0.000 A 
ATOM     23  C   UNL     1       0.571  12.310  19.091  0.00  0.00    +0.000 A 
ATOM     24  C   UNL     1       1.026  13.453  18.411  0.00  0.00    +0.000 A 
ATOM     25  N   UNL     1       2.151  13.226  17.735  0.00  0.00    +0.000 NA
ATOM     26  N   UNL     1       2.412  11.932  17.987  0.00  0.00    +0.000 N 
ATOM     27  H   UNL     1       3.228  11.516  17.555  0.00  0.00    +0.000 HD
ENDBRANCH  19  22
ENDBRANCH  15  16
ENDBRANCH   8  15
TORSDOF 6
ENDMDL
