MODEL 1
REMARK VINA RESULT:      -6.1      0.000      0.000
REMARK  Name = 
REMARK  7 active torsions:
REMARK  status: ('A' for Active; 'I' for Inactive)
REMARK    1  A    between atoms: C_1  and  N_2
REMARK    2  A    between atoms: N_2  and  C_3
REMARK    3  A    between atoms: N_2  and  C_13
REMARK    4  A    between atoms: C_3  and  C_4
REMARK    5  A    between atoms: C_10  and  C_11
REMARK    6  A    between atoms: C_13  and  C_14
REMARK    7  A    between atoms: C_20  and  C_21
REMARK                            x       y       z     vdW  Elec       q    Type
REMARK                         _______ _______ _______ _____ _____    ______ ____
ROOT
ATOM      1  C   UNL     1       1.825   5.935  20.592  0.00  0.00    +0.000 C 
ATOM      2  N   UNL     1       1.831   6.661  19.321  0.00  0.00    +0.000 NA
ENDROOT
BRANCH   2   3
ATOM      3  C   UNL     1       2.204   8.079  19.508  0.00  0.00    +0.000 C 
BRANCH   3   4
ATOM      4  C   UNL     1       1.516   9.092  18.579  0.00  0.00    +0.000 C 
ATOM      5  O   UNL     1       1.785   9.221  17.384  0.00  0.00    +0.000 OA
ATOM      6  N   UNL     1       0.527   9.864  19.154  0.00  0.00    +0.000 N 
ATOM      7  C   UNL     1      -0.302  10.714  18.322  0.00  0.00    +0.000 C 
ATOM      8  C   UNL     1      -1.366  11.220  19.276  0.00  0.00    +0.000 C 
ATOM      9  C   UNL     1      -0.575  11.396  20.570  0.00  0.00    +0.000 C 
ATOM     10  C   UNL     1       0.369  10.187  20.576  0.00  0.00    +0.000 C 
BRANCH  10  11
ATOM     11  C   UNL     1      -0.190   9.081  21.376  0.00  0.00    +0.000 C 
ATOM     12  N   UNL     1      -0.633   8.185  21.969  0.00  0.00    +0.000 NA
ENDBRANCH  10  11
ENDBRANCH   3   4
ENDBRANCH   2   3
BRANCH   2  13
ATOM     13  C   UNL     1       2.669   5.950  18.332  0.00  0.00    +0.000 C 
BRANCH  13  14
ATOM     14  C   UNL     1       2.181   4.531  18.001  0.00  0.00    +0.000 C 
ATOM     15  O   UNL     1       1.132   4.360  17.376  0.00  0.00    +0.000 OA
ATOM     16  N   UNL     1       2.986   3.462  18.341  0.00  0.00    +0.000 N 
ATOM     17  C   UNL     1       2.690   2.126  17.853  0.00  0.00    +0.000 C 
ATOM     18  C   UNL     1       3.850   1.283  18.351  0.00  0.00    +0.000 C 
ATOM     19  C   UNL     1       4.157   1.926  19.699  0.00  0.00    +0.000 C 
ATOM     20  C   UNL     1       3.965   3.425  19.433  0.00  0.00    +0.000 C 
BRANCH  20  21
ATOM     21  C   UNL     1       5.244   4.073  19.092  0.00  0.00    +0.000 C 
ATOM     22  N   UNL     1       6.247   4.598  18.821  0.00  0.00    +0.000 NA
ENDBRANCH  20  21
ENDBRANCH  13  14
ENDBRANCH   2  13
TORSDOF 6
ENDMDL
MODEL 2
REMARK VINA RESULT:      -5.9      3.959      5.947
REMARK  Name = 
REMARK  7 active torsions:
REMARK  status: ('A' for Active; 'I' for Inactive)
REMARK    1  A    between atoms: C_1  and  N_2
REMARK    2  A    between atoms: N_2  and  C_3
REMARK    3  A    between atoms: N_2  and  C_13
REMARK    4  A    between atoms: C_3  and  C_4
REMARK    5  A    between atoms: C_10  and  C_11
REMARK    6  A    between atoms: C_13  and  C_14
REMARK    7  A    between atoms: C_20  and  C_21
REMARK                            x       y       z     vdW  Elec       q    Type
REMARK                         _______ _______ _______ _____ _____    ______ ____
ROOT
ATOM      1  C   UNL     1       6.877   5.420  19.329  0.00  0.00    +0.000 C 
ATOM      2  N   UNL     1       5.567   5.499  18.680  0.00  0.00    +0.000 NA
ENDROOT
BRANCH   2   3
ATOM      3  C   UNL     1       4.478   5.624  19.671  0.00  0.00    +0.000 C 
BRANCH   3   4
ATOM      4  C   UNL     1       3.048   5.441  19.137  0.00  0.00    +0.000 C 
ATOM      5  O   UNL     1       2.470   6.264  18.426  0.00  0.00    +0.000 OA
ATOM      6  N   UNL     1       2.423   4.258  19.478  0.00  0.00    +0.000 N 
ATOM      7  C   UNL     1       1.150   3.913  18.874  0.00  0.00    +0.000 C 
ATOM      8  C   UNL     1       0.910   2.490  19.338  0.00  0.00    +0.000 C 
ATOM      9  C   UNL     1       1.473   2.519  20.757  0.00  0.00    +0.000 C 
ATOM     10  C   UNL     1       2.725   3.395  20.625  0.00  0.00    +0.000 C 
BRANCH  10  11
ATOM     11  C   UNL     1       3.934   2.569  20.442  0.00  0.00    +0.000 C 
ATOM     12  N   UNL     1       4.892   1.938  20.258  0.00  0.00    +0.000 NA
ENDBRANCH  10  11
ENDBRANCH   3   4
ENDBRANCH   2   3
BRANCH   2  13
ATOM     13  C   UNL     1       5.568   6.567  17.658  0.00  0.00    +0.000 C 
BRANCH  13  14
ATOM     14  C   UNL     1       6.594   6.358  16.533  0.00  0.00    +0.000 C 
ATOM     15  O   UNL     1       7.646   7.003  16.517  0.00  0.00    +0.000 OA
ATOM     16  N   UNL     1       6.354   5.373  15.597  0.00  0.00    +0.000 N 
ATOM     17  C   UNL     1       7.386   4.977  14.655  0.00  0.00    +0.000 C 
ATOM     18  C   UNL     1       6.769   3.818  13.892  0.00  0.00    +0.000 C 
ATOM     19  C   UNL     1       5.303   4.228  13.818  0.00  0.00    +0.000 C 
ATOM     20  C   UNL     1       5.039   4.864  15.190  0.00  0.00    +0.000 C 
BRANCH  20  21
ATOM     21  C   UNL     1       4.478   3.880  16.133  0.00  0.00    +0.000 C 
ATOM     22  N   UNL     1       4.048   3.100  16.882  0.00  0.00    +0.000 NA
ENDBRANCH  20  21
ENDBRANCH  13  14
ENDBRANCH   2  13
TORSDOF 6
ENDMDL
MODEL 3
REMARK VINA RESULT:      -5.8      2.019      2.428
REMARK  Name = 
REMARK  7 active torsions:
REMARK  status: ('A' for Active; 'I' for Inactive)
REMARK    1  A    between atoms: C_1  and  N_2
REMARK    2  A    between atoms: N_2  and  C_3
REMARK    3  A    between atoms: N_2  and  C_13
REMARK    4  A    between atoms: C_3  and  C_4
REMARK    5  A    between atoms: C_10  and  C_11
REMARK    6  A    between atoms: C_13  and  C_14
REMARK    7  A    between atoms: C_20  and  C_21
REMARK                            x       y       z     vdW  Elec       q    Type
REMARK                         _______ _______ _______ _____ _____    ______ ____
ROOT
ATOM      1  C   UNL     1       2.143   5.139  20.267  0.00  0.00    +0.000 C 
ATOM      2  N   UNL     1       2.491   6.150  19.267  0.00  0.00    +0.000 NA
ENDROOT
BRANCH   2   3
ATOM      3  C   UNL     1       2.257   7.518  19.775  0.00  0.00    +0.000 C 
BRANCH   3   4
ATOM      4  C   UNL     1       1.798   8.559  18.742  0.00  0.00    +0.000 C 
ATOM      5  O   UNL     1       2.162   8.566  17.566  0.00  0.00    +0.000 OA
ATOM      6  N   UNL     1       0.903   9.507  19.197  0.00  0.00    +0.000 N 
ATOM      7  C   UNL     1       0.273  10.415  18.258  0.00  0.00    +0.000 C 
ATOM      8  C   UNL     1      -0.761  11.136  19.100  0.00  0.00    +0.000 C 
ATOM      9  C   UNL     1      -0.040  11.278  20.437  0.00  0.00    +0.000 C 
ATOM     10  C   UNL     1       0.704   9.944  20.583  0.00  0.00    +0.000 C 
BRANCH  10  11
ATOM     11  C   UNL     1      -0.072   8.990  21.398  0.00  0.00    +0.000 C 
ATOM     12  N   UNL     1      -0.647   8.212  22.041  0.00  0.00    +0.000 NA
ENDBRANCH  10  11
ENDBRANCH   3   4
ENDBRANCH   2   3
BRANCH   2  13
ATOM     13  C   UNL     1       3.866   5.925  18.773  0.00  0.00    +0.000 C 
BRANCH  13  14
ATOM     14  C   UNL     1       3.964   4.893  17.639  0.00  0.00    +0.000 C 
ATOM     15  O   UNL     1       2.990   4.197  17.340  0.00  0.00    +0.000 OA
ATOM     16  N   UNL     1       5.132   4.827  16.906  0.00  0.00    +0.000 N 
ATOM     17  C   UNL     1       5.200   4.040  15.687  0.00  0.00    +0.000 C 
ATOM     18  C   UNL     1       6.590   4.318  15.143  0.00  0.00    +0.000 C 
ATOM     19  C   UNL     1       7.412   4.453  16.419  0.00  0.00    +0.000 C 
ATOM     20  C   UNL     1       6.472   5.201  17.374  0.00  0.00    +0.000 C 
BRANCH  20  21
ATOM     21  C   UNL     1       6.718   6.654  17.334  0.00  0.00    +0.000 C 
ATOM     22  N   UNL     1       6.913   7.800  17.289  0.00  0.00    +0.000 NA
ENDBRANCH  20  21
ENDBRANCH  13  14
ENDBRANCH   2  13
TORSDOF 6
ENDMDL
MODEL 4
REMARK VINA RESULT:      -5.7      4.744      5.952
REMARK  Name = 
REMARK  7 active torsions:
REMARK  status: ('A' for Active; 'I' for Inactive)
REMARK    1  A    between atoms: C_1  and  N_2
REMARK    2  A    between atoms: N_2  and  C_3
REMARK    3  A    between atoms: N_2  and  C_13
REMARK    4  A    between atoms: C_3  and  C_4
REMARK    5  A    between atoms: C_10  and  C_11
REMARK    6  A    between atoms: C_13  and  C_14
REMARK    7  A    between atoms: C_20  and  C_21
REMARK                            x       y       z     vdW  Elec       q    Type
REMARK                         _______ _______ _______ _____ _____    ______ ____
ROOT
ATOM      1  C   UNL     1       4.077   5.173  16.881  0.00  0.00    +0.000 C 
ATOM      2  N   UNL     1       4.673   3.881  16.533  0.00  0.00    +0.000 NA
ENDROOT
BRANCH   2   3
ATOM      3  C   UNL     1       6.144   3.972  16.432  0.00  0.00    +0.000 C 
BRANCH   3   4
ATOM      4  C   UNL     1       6.712   5.320  15.960  0.00  0.00    +0.000 C 
ATOM      5  O   UNL     1       6.755   5.672  14.781  0.00  0.00    +0.000 OA
ATOM      6  N   UNL     1       7.165   6.166  16.953  0.00  0.00    +0.000 N 
ATOM      7  C   UNL     1       7.546   7.526  16.625  0.00  0.00    +0.000 C 
ATOM      8  C   UNL     1       7.780   8.166  17.980  0.00  0.00    +0.000 C 
ATOM      9  C   UNL     1       8.402   7.019  18.771  0.00  0.00    +0.000 C 
ATOM     10  C   UNL     1       7.612   5.792  18.299  0.00  0.00    +0.000 C 
BRANCH  10  11
ATOM     11  C   UNL     1       6.505   5.485  19.226  0.00  0.00    +0.000 C 
ATOM     12  N   UNL     1       5.608   5.270  19.932  0.00  0.00    +0.000 NA
ENDBRANCH  10  11
ENDBRANCH   3   4
ENDBRANCH   2   3
BRANCH   2  13
ATOM     13  C   UNL     1       4.203   2.835  17.467  0.00  0.00    +0.000 C 
BRANCH  13  14
ATOM     14  C   UNL     1       2.726   2.971  17.869  0.00  0.00    +0.000 C 
ATOM     15  O   UNL     1       1.845   3.026  17.007  0.00  0.00    +0.000 OA
ATOM     16  N   UNL     1       2.403   2.939  19.211  0.00  0.00    +0.000 N 
ATOM     17  C   UNL     1       1.019   2.832  19.638  0.00  0.00    +0.000 C 
ATOM     18  C   UNL     1       1.104   2.719  21.150  0.00  0.00    +0.000 C 
ATOM     19  C   UNL     1       2.294   3.616  21.470  0.00  0.00    +0.000 C 
ATOM     20  C   UNL     1       3.274   3.336  20.323  0.00  0.00    +0.000 C 
BRANCH  20  21
ATOM     21  C   UNL     1       4.250   2.296  20.698  0.00  0.00    +0.000 C 
ATOM     22  N   UNL     1       5.029   1.486  20.998  0.00  0.00    +0.000 NA
ENDBRANCH  20  21
ENDBRANCH  13  14
ENDBRANCH   2  13
TORSDOF 6
ENDMDL
MODEL 5
REMARK VINA RESULT:      -5.6      2.545      6.940
REMARK  Name = 
REMARK  7 active torsions:
REMARK  status: ('A' for Active; 'I' for Inactive)
REMARK    1  A    between atoms: C_1  and  N_2
REMARK    2  A    between atoms: N_2  and  C_3
REMARK    3  A    between atoms: N_2  and  C_13
REMARK    4  A    between atoms: C_3  and  C_4
REMARK    5  A    between atoms: C_10  and  C_11
REMARK    6  A    between atoms: C_13  and  C_14
REMARK    7  A    between atoms: C_20  and  C_21
REMARK                            x       y       z     vdW  Elec       q    Type
REMARK                         _______ _______ _______ _____ _____    ______ ____
ROOT
ATOM      1  C   UNL     1       1.392   4.415  17.541  0.00  0.00    +0.000 C 
ATOM      2  N   UNL     1       2.488   4.862  18.403  0.00  0.00    +0.000 NA
ENDROOT
BRANCH   2   3
ATOM      3  C   UNL     1       3.798   4.403  17.897  0.00  0.00    +0.000 C 
BRANCH   3   4
ATOM      4  C   UNL     1       5.006   4.645  18.817  0.00  0.00    +0.000 C 
ATOM      5  O   UNL     1       5.176   4.068  19.891  0.00  0.00    +0.000 OA
ATOM      6  N   UNL     1       5.943   5.549  18.358  0.00  0.00    +0.000 N 
ATOM      7  C   UNL     1       7.201   5.706  19.062  0.00  0.00    +0.000 C 
ATOM      8  C   UNL     1       8.008   6.611  18.152  0.00  0.00    +0.000 C 
ATOM      9  C   UNL     1       6.937   7.552  17.608  0.00  0.00    +0.000 C 
ATOM     10  C   UNL     1       5.731   6.630  17.390  0.00  0.00    +0.000 C 
BRANCH  10  11
ATOM     11  C   UNL     1       5.663   6.167  15.991  0.00  0.00    +0.000 C 
ATOM     12  N   UNL     1       5.566   5.807  14.890  0.00  0.00    +0.000 NA
ENDBRANCH  10  11
ENDBRANCH   3   4
ENDBRANCH   2   3
BRANCH   2  13
ATOM     13  C   UNL     1       2.408   6.323  18.612  0.00  0.00    +0.000 C 
BRANCH  13  14
ATOM     14  C   UNL     1       2.022   6.733  20.042  0.00  0.00    +0.000 C 
ATOM     15  O   UNL     1       2.226   5.968  20.988  0.00  0.00    +0.000 OA
ATOM     16  N   UNL     1       1.529   8.005  20.252  0.00  0.00    +0.000 N 
ATOM     17  C   UNL     1       1.365   8.523  21.600  0.00  0.00    +0.000 C 
ATOM     18  C   UNL     1       0.913   9.958  21.393  0.00  0.00    +0.000 C 
ATOM     19  C   UNL     1       0.054   9.846  20.140  0.00  0.00    +0.000 C 
ATOM     20  C   UNL     1       0.813   8.831  19.274  0.00  0.00    +0.000 C 
BRANCH  20  21
ATOM     21  C   UNL     1       1.709   9.511  18.320  0.00  0.00    +0.000 C 
ATOM     22  N   UNL     1       2.421  10.034  17.563  0.00  0.00    +0.000 NA
ENDBRANCH  20  21
ENDBRANCH  13  14
ENDBRANCH   2  13
TORSDOF 6
ENDMDL
MODEL 6
REMARK VINA RESULT:      -5.5      1.233      2.060
REMARK  Name = 
REMARK  7 active torsions:
REMARK  status: ('A' for Active; 'I' for Inactive)
REMARK    1  A    between atoms: C_1  and  N_2
REMARK    2  A    between atoms: N_2  and  C_3
REMARK    3  A    between atoms: N_2  and  C_13
REMARK    4  A    between atoms: C_3  and  C_4
REMARK    5  A    between atoms: C_10  and  C_11
REMARK    6  A    between atoms: C_13  and  C_14
REMARK    7  A    between atoms: C_20  and  C_21
REMARK                            x       y       z     vdW  Elec       q    Type
REMARK                         _______ _______ _______ _____ _____    ______ ____
ROOT
ATOM      1  C   UNL     1       1.808   5.825  20.601  0.00  0.00    +0.000 C 
ATOM      2  N   UNL     1       1.768   6.574  19.344  0.00  0.00    +0.000 NA
ENDROOT
BRANCH   2   3
ATOM      3  C   UNL     1       2.219   7.969  19.529  0.00  0.00    +0.000 C 
BRANCH   3   4
ATOM      4  C   UNL     1       1.581   9.020  18.606  0.00  0.00    +0.000 C 
ATOM      5  O   UNL     1       1.870   9.155  17.417  0.00  0.00    +0.000 OA
ATOM      6  N   UNL     1       0.612   9.818  19.180  0.00  0.00    +0.000 N 
ATOM      7  C   UNL     1      -0.175  10.709  18.350  0.00  0.00    +0.000 C 
ATOM      8  C   UNL     1      -1.233  11.239  19.298  0.00  0.00    +0.000 C 
ATOM      9  C   UNL     1      -0.454  11.368  20.604  0.00  0.00    +0.000 C 
ATOM     10  C   UNL     1       0.447  10.127  20.605  0.00  0.00    +0.000 C 
BRANCH  10  11
ATOM     11  C   UNL     1      -0.162   9.030  21.381  0.00  0.00    +0.000 C 
ATOM     12  N   UNL     1      -0.656   8.148  21.954  0.00  0.00    +0.000 NA
ENDBRANCH  10  11
ENDBRANCH   3   4
ENDBRANCH   2   3
BRANCH   2  13
ATOM     13  C   UNL     1       2.507   5.844  18.292  0.00  0.00    +0.000 C 
BRANCH  13  14
ATOM     14  C   UNL     1       3.742   5.087  18.804  0.00  0.00    +0.000 C 
ATOM     15  O   UNL     1       4.737   5.704  19.193  0.00  0.00    +0.000 OA
ATOM     16  N   UNL     1       3.679   3.712  18.902  0.00  0.00    +0.000 N 
ATOM     17  C   UNL     1       4.721   2.968  19.589  0.00  0.00    +0.000 C 
ATOM     18  C   UNL     1       4.228   1.532  19.569  0.00  0.00    +0.000 C 
ATOM     19  C   UNL     1       3.520   1.456  18.221  0.00  0.00    +0.000 C 
ATOM     20  C   UNL     1       2.831   2.823  18.100  0.00  0.00    +0.000 C 
BRANCH  20  21
ATOM     21  C   UNL     1       1.438   2.760  18.576  0.00  0.00    +0.000 C 
ATOM     22  N   UNL     1       0.333   2.716  18.939  0.00  0.00    +0.000 NA
ENDBRANCH  20  21
ENDBRANCH  13  14
ENDBRANCH   2  13
TORSDOF 6
ENDMDL
MODEL 7
REMARK VINA RESULT:      -5.4      1.963      2.852
REMARK  Name = 
REMARK  7 active torsions:
REMARK  status: ('A' for Active; 'I' for Inactive)
REMARK    1  A    between atoms: C_1  and  N_2
REMARK    2  A    between atoms: N_2  and  C_3
REMARK    3  A    between atoms: N_2  and  C_13
REMARK    4  A    between atoms: C_3  and  C_4
REMARK    5  A    between atoms: C_10  and  C_11
REMARK    6  A    between atoms: C_13  and  C_14
REMARK    7  A    between atoms: C_20  and  C_21
REMARK                            x       y       z     vdW  Elec       q    Type
REMARK                         _______ _______ _______ _____ _____    ______ ____
ROOT
ATOM      1  C   UNL     1       4.755   6.932  17.319  0.00  0.00    +0.000 C 
ATOM      2  N   UNL     1       3.698   6.295  18.107  0.00  0.00    +0.000 NA
ENDROOT
BRANCH   2   3
ATOM      3  C   UNL     1       2.530   7.185  18.267  0.00  0.00    +0.000 C 
BRANCH   3   4
ATOM      4  C   UNL     1       2.045   7.419  19.707  0.00  0.00    +0.000 C 
ATOM      5  O   UNL     1       2.179   6.602  20.618  0.00  0.00    +0.000 OA
ATOM      6  N   UNL     1       1.457   8.643  19.955  0.00  0.00    +0.000 N 
ATOM      7  C   UNL     1       1.136   9.029  21.316  0.00  0.00    +0.000 C 
ATOM      8  C   UNL     1       0.710  10.478  21.184  0.00  0.00    +0.000 C 
ATOM      9  C   UNL     1      -0.029  10.473  19.848  0.00  0.00    +0.000 C 
ATOM     10  C   UNL     1       0.815   9.531  18.979  0.00  0.00    +0.000 C 
BRANCH  10  11
ATOM     11  C   UNL     1       1.771  10.289  18.150  0.00  0.00    +0.000 C 
ATOM     12  N   UNL     1       2.535  10.910  17.533  0.00  0.00    +0.000 NA
ENDBRANCH  10  11
ENDBRANCH   3   4
ENDBRANCH   2   3
BRANCH   2  13
ATOM     13  C   UNL     1       3.365   4.972  17.536  0.00  0.00    +0.000 C 
BRANCH  13  14
ATOM     14  C   UNL     1       2.002   4.421  17.985  0.00  0.00    +0.000 C 
ATOM     15  O   UNL     1       1.000   4.581  17.283  0.00  0.00    +0.000 OA
ATOM     16  N   UNL     1       1.944   3.668  19.140  0.00  0.00    +0.000 N 
ATOM     17  C   UNL     1       0.740   2.935  19.488  0.00  0.00    +0.000 C 
ATOM     18  C   UNL     1       1.120   2.169  20.743  0.00  0.00    +0.000 C 
ATOM     19  C   UNL     1       2.061   3.144  21.440  0.00  0.00    +0.000 C 
ATOM     20  C   UNL     1       2.859   3.761  20.283  0.00  0.00    +0.000 C 
BRANCH  20  21
ATOM     21  C   UNL     1       4.130   3.045  20.072  0.00  0.00    +0.000 C 
ATOM     22  N   UNL     1       5.127   2.467  19.909  0.00  0.00    +0.000 NA
ENDBRANCH  20  21
ENDBRANCH  13  14
ENDBRANCH   2  13
TORSDOF 6
ENDMDL
MODEL 8
REMARK VINA RESULT:      -5.4      3.975      7.576
REMARK  Name = 
REMARK  7 active torsions:
REMARK  status: ('A' for Active; 'I' for Inactive)
REMARK    1  A    between atoms: C_1  and  N_2
REMARK    2  A    between atoms: N_2  and  C_3
REMARK    3  A    between atoms: N_2  and  C_13
REMARK    4  A    between atoms: C_3  and  C_4
REMARK    5  A    between atoms: C_10  and  C_11
REMARK    6  A    between atoms: C_13  and  C_14
REMARK    7  A    between atoms: C_20  and  C_21
REMARK                            x       y       z     vdW  Elec       q    Type
REMARK                         _______ _______ _______ _____ _____    ______ ____
ROOT
ATOM      1  C   UNL     1       7.447   6.100  18.103  0.00  0.00    +0.000 C 
ATOM      2  N   UNL     1       6.263   5.487  17.497  0.00  0.00    +0.000 NA
ENDROOT
BRANCH   2   3
ATOM      3  C   UNL     1       6.606   4.751  16.262  0.00  0.00    +0.000 C 
BRANCH   3   4
ATOM      4  C   UNL     1       5.423   4.212  15.441  0.00  0.00    +0.000 C 
ATOM      5  O   UNL     1       4.305   3.995  15.909  0.00  0.00    +0.000 OA
ATOM      6  N   UNL     1       5.667   3.999  14.099  0.00  0.00    +0.000 N 
ATOM      7  C   UNL     1       4.571   3.670  13.209  0.00  0.00    +0.000 C 
ATOM      8  C   UNL     1       5.203   3.718  11.831  0.00  0.00    +0.000 C 
ATOM      9  C   UNL     1       6.597   3.157  12.101  0.00  0.00    +0.000 C 
ATOM     10  C   UNL     1       6.967   3.763  13.461  0.00  0.00    +0.000 C 
BRANCH  10  11
ATOM     11  C   UNL     1       7.776   4.985  13.295  0.00  0.00    +0.000 C 
ATOM     12  N   UNL     1       8.450   5.922  13.160  0.00  0.00    +0.000 NA
ENDBRANCH  10  11
ENDBRANCH   3   4
ENDBRANCH   2   3
BRANCH   2  13
ATOM     13  C   UNL     1       5.545   4.669  18.498  0.00  0.00    +0.000 C 
BRANCH  13  14
ATOM     14  C   UNL     1       4.261   5.321  19.034  0.00  0.00    +0.000 C 
ATOM     15  O   UNL     1       4.083   6.537  18.924  0.00  0.00    +0.000 OA
ATOM     16  N   UNL     1       3.277   4.506  19.558  0.00  0.00    +0.000 N 
ATOM     17  C   UNL     1       1.960   5.036  19.865  0.00  0.00    +0.000 C 
ATOM     18  C   UNL     1       1.163   3.821  20.305  0.00  0.00    +0.000 C 
ATOM     19  C   UNL     1       2.218   2.991  21.028  0.00  0.00    +0.000 C 
ATOM     20  C   UNL     1       3.478   3.190  20.173  0.00  0.00    +0.000 C 
BRANCH  20  21
ATOM     21  C   UNL     1       3.629   2.103  19.189  0.00  0.00    +0.000 C 
ATOM     22  N   UNL     1       3.736   1.241  18.414  0.00  0.00    +0.000 NA
ENDBRANCH  20  21
ENDBRANCH  13  14
ENDBRANCH   2  13
TORSDOF 6
ENDMDL
MODEL 9
REMARK VINA RESULT:      -5.4      1.971      7.688
REMARK  Name = 
REMARK  7 active torsions:
REMARK  status: ('A' for Active; 'I' for Inactive)
REMARK    1  A    between atoms: C_1  and  N_2
REMARK    2  A    between atoms: N_2  and  C_3
REMARK    3  A    between atoms: N_2  and  C_13
REMARK    4  A    between atoms: C_3  and  C_4
REMARK    5  A    between atoms: C_10  and  C_11
REMARK    6  A    between atoms: C_13  and  C_14
REMARK    7  A    between atoms: C_20  and  C_21
REMARK                            x       y       z     vdW  Elec       q    Type
REMARK                         _______ _______ _______ _____ _____    ______ ____
ROOT
ATOM      1  C   UNL     1       1.755   8.172  19.976  0.00  0.00    +0.000 C 
ATOM      2  N   UNL     1       2.173   8.303  18.579  0.00  0.00    +0.000 NA
ENDROOT
BRANCH   2   3
ATOM      3  C   UNL     1       2.292   6.984  17.922  0.00  0.00    +0.000 C 
BRANCH   3   4
ATOM      4  C   UNL     1       3.691   6.348  17.922  0.00  0.00    +0.000 C 
ATOM      5  O   UNL     1       4.706   6.920  17.522  0.00  0.00    +0.000 OA
ATOM      6  N   UNL     1       3.773   5.068  18.433  0.00  0.00    +0.000 N 
ATOM      7  C   UNL     1       5.070   4.455  18.645  0.00  0.00    +0.000 C 
ATOM      8  C   UNL     1       4.742   3.174  19.387  0.00  0.00    +0.000 C 
ATOM      9  C   UNL     1       3.430   2.753  18.731  0.00  0.00    +0.000 C 
ATOM     10  C   UNL     1       2.691   4.082  18.529  0.00  0.00    +0.000 C 
BRANCH  10  11
ATOM     11  C   UNL     1       1.751   4.340  19.637  0.00  0.00    +0.000 C 
ATOM     12  N   UNL     1       1.013   4.500  20.520  0.00  0.00    +0.000 NA
ENDBRANCH  10  11
ENDBRANCH   3   4
ENDBRANCH   2   3
BRANCH   2  13
ATOM     13  C   UNL     1       1.283   9.244  17.867  0.00  0.00    +0.000 C 
BRANCH  13  14
ATOM     14  C   UNL     1       1.501  10.719  18.242  0.00  0.00    +0.000 C 
ATOM     15  O   UNL     1       2.595  11.257  18.053  0.00  0.00    +0.000 OA
ATOM     16  N   UNL     1       0.425  11.447  18.707  0.00  0.00    +0.000 N 
ATOM     17  C   UNL     1       0.514  12.889  18.857  0.00  0.00    +0.000 C 
ATOM     18  C   UNL     1      -0.885  13.306  19.278  0.00  0.00    +0.000 C 
ATOM     19  C   UNL     1      -1.323  12.129  20.142  0.00  0.00    +0.000 C 
ATOM     20  C   UNL     1      -0.749  10.910  19.406  0.00  0.00    +0.000 C 
BRANCH  20  21
ATOM     21  C   UNL     1      -1.747  10.319  18.497  0.00  0.00    +0.000 C 
ATOM     22  N   UNL     1      -2.530   9.859  17.769  0.00  0.00    +0.000 NA
ENDBRANCH  20  21
ENDBRANCH  13  14
ENDBRANCH   2  13
TORSDOF 6
ENDMDL
