MODEL 1
REMARK VINA RESULT:      -7.6      0.000      0.000
REMARK  Name = 
REMARK  9 active torsions:
REMARK  status: ('A' for Active; 'I' for Inactive)
REMARK    1  A    between atoms: C_1  and  O_2
REMARK    2  A    between atoms: O_2  and  C_3
REMARK    3  A    between atoms: C_5  and  C_6
REMARK    4  A    between atoms: C_7  and  C_8
REMARK    5  A    between atoms: C_8  and  O_10
REMARK    6  A    between atoms: C_13  and  O_14
REMARK    7  A    between atoms: O_14  and  C_15
REMARK    8  A    between atoms: C_15  and  C_16
REMARK    9  A    between atoms: C_21  and  C_22
REMARK                            x       y       z     vdW  Elec       q    Type
REMARK                         _______ _______ _______ _____ _____    ______ ____
ROOT
ATOM      1  C   UNL     1       5.920   5.367  16.360  0.00  0.00    +0.000 A 
ATOM      2  C   UNL     1       6.709   6.479  16.698  0.00  0.00    +0.000 A 
ATOM      3  C   UNL     1       7.206   6.639  17.995  0.00  0.00    +0.000 A 
ATOM      4  C   UNL     1       6.855   5.707  18.971  0.00  0.00    +0.000 A 
ATOM      5  C   UNL     1       6.007   4.650  18.665  0.00  0.00    +0.000 A 
ATOM      6  C   UNL     1       5.507   4.477  17.370  0.00  0.00    +0.000 A 
ENDROOT
BRANCH   1   8
ATOM      7  C   UNL     1       6.488   4.363  14.290  0.00  0.00    +0.000 C 
ATOM      8  O   UNL     1       5.542   5.113  15.063  0.00  0.00    +0.000 OA
ENDBRANCH   1   8
BRANCH   3   9
ATOM      9  C   UNL     1       8.209   7.674  18.261  0.00  0.00    +0.000 C 
ATOM     10  C   UNL     1       8.020   8.974  17.991  0.00  0.00    +0.000 C 
BRANCH  10  11
ATOM     11  C   UNL     1       9.023   9.956  18.444  0.00  0.00    +0.000 C 
ATOM     12  O   UNL     1       9.541  10.796  17.731  0.00  0.00    +0.000 OA
BRANCH  11  13
ATOM     13  O   UNL     1       9.331   9.792  19.743  0.00  0.00    +0.000 OA
ATOM     14  H   UNL     1       8.671   9.317  20.279  0.00  0.00    +0.000 HD
ENDBRANCH  11  13
ENDBRANCH  10  11
ENDBRANCH   3   9
BRANCH   6  15
ATOM     15  O   UNL     1       4.648   3.449  17.043  0.00  0.00    +0.000 OA
BRANCH  15  16
ATOM     16  C   UNL     1       3.257   3.815  17.052  0.00  0.00    +0.000 C 
BRANCH  16  17
ATOM     17  C   UNL     1       2.610   3.734  18.418  0.00  0.00    +0.000 A 
ATOM     18  C   UNL     1       2.215   2.492  18.936  0.00  0.00    +0.000 A 
ATOM     19  C   UNL     1       1.525   2.410  20.143  0.00  0.00    +0.000 A 
ATOM     20  C   UNL     1       1.214   3.570  20.850  0.00  0.00    +0.000 A 
ATOM     21  C   UNL     1       1.595   4.816  20.351  0.00  0.00    +0.000 A 
ATOM     22  C   UNL     1       2.286   4.908  19.135  0.00  0.00    +0.000 A 
BRANCH  22  23
ATOM     23  C   UNL     1       2.624   6.216  18.635  0.00  0.00    +0.000 C 
ATOM     24  N   UNL     1       2.923   7.261  18.223  0.00  0.00    +0.000 NA
ENDBRANCH  22  23
ENDBRANCH  16  17
ENDBRANCH  15  16
ENDBRANCH   6  15
TORSDOF 8
ENDMDL
MODEL 2
REMARK VINA RESULT:      -7.4      3.812      6.552
REMARK  Name = 
REMARK  9 active torsions:
REMARK  status: ('A' for Active; 'I' for Inactive)
REMARK    1  A    between atoms: C_1  and  O_2
REMARK    2  A    between atoms: O_2  and  C_3
REMARK    3  A    between atoms: C_5  and  C_6
REMARK    4  A    between atoms: C_7  and  C_8
REMARK    5  A    between atoms: C_8  and  O_10
REMARK    6  A    between atoms: C_13  and  O_14
REMARK    7  A    between atoms: O_14  and  C_15
REMARK    8  A    between atoms: C_15  and  C_16
REMARK    9  A    between atoms: C_21  and  C_22
REMARK                            x       y       z     vdW  Elec       q    Type
REMARK                         _______ _______ _______ _____ _____    ______ ____
ROOT
ATOM      1  C   UNL     1       1.891   4.994  19.953  0.00  0.00    +0.000 A 
ATOM      2  C   UNL     1       1.579   6.148  20.690  0.00  0.00    +0.000 A 
ATOM      3  C   UNL     1       1.803   7.422  20.159  0.00  0.00    +0.000 A 
ATOM      4  C   UNL     1       2.402   7.533  18.906  0.00  0.00    +0.000 A 
ATOM      5  C   UNL     1       2.790   6.399  18.206  0.00  0.00    +0.000 A 
ATOM      6  C   UNL     1       2.568   5.118  18.724  0.00  0.00    +0.000 A 
ENDROOT
BRANCH   1   8
ATOM      7  C   UNL     1       2.152   3.339  21.629  0.00  0.00    +0.000 C 
ATOM      8  O   UNL     1       1.548   3.737  20.392  0.00  0.00    +0.000 OA
ENDBRANCH   1   8
BRANCH   3   9
ATOM      9  C   UNL     1       1.258   8.596  20.847  0.00  0.00    +0.000 C 
ATOM     10  C   UNL     1       0.303   8.527  21.785  0.00  0.00    +0.000 C 
BRANCH  10  11
ATOM     11  C   UNL     1      -0.063   9.746  22.531  0.00  0.00    +0.000 C 
ATOM     12  O   UNL     1      -0.665  10.692  22.058  0.00  0.00    +0.000 OA
BRANCH  11  13
ATOM     13  O   UNL     1       0.380   9.706  23.801  0.00  0.00    +0.000 OA
ATOM     14  H   UNL     1       0.893   8.915  24.046  0.00  0.00    +0.000 HD
ENDBRANCH  11  13
ENDBRANCH  10  11
ENDBRANCH   3   9
BRANCH   6  15
ATOM     15  O   UNL     1       2.961   3.975  18.060  0.00  0.00    +0.000 OA
BRANCH  15  16
ATOM     16  C   UNL     1       4.352   3.648  18.220  0.00  0.00    +0.000 C 
BRANCH  16  17
ATOM     17  C   UNL     1       5.238   4.170  17.109  0.00  0.00    +0.000 A 
ATOM     18  C   UNL     1       4.954   3.847  15.774  0.00  0.00    +0.000 A 
ATOM     19  C   UNL     1       5.816   4.232  14.750  0.00  0.00    +0.000 A 
ATOM     20  C   UNL     1       6.979   4.941  15.044  0.00  0.00    +0.000 A 
ATOM     21  C   UNL     1       7.281   5.270  16.366  0.00  0.00    +0.000 A 
ATOM     22  C   UNL     1       6.421   4.884  17.403  0.00  0.00    +0.000 A 
BRANCH  22  23
ATOM     23  C   UNL     1       6.792   5.206  18.758  0.00  0.00    +0.000 C 
ATOM     24  N   UNL     1       7.090   5.436  19.858  0.00  0.00    +0.000 NA
ENDBRANCH  22  23
ENDBRANCH  16  17
ENDBRANCH  15  16
ENDBRANCH   6  15
TORSDOF 8
ENDMDL
MODEL 3
REMARK VINA RESULT:      -7.2      3.118      4.836
REMARK  Name = 
REMARK  9 active torsions:
REMARK  status: ('A' for Active; 'I' for Inactive)
REMARK    1  A    between atoms: C_1  and  O_2
REMARK    2  A    between atoms: O_2  and  C_3
REMARK    3  A    between atoms: C_5  and  C_6
REMARK    4  A    between atoms: C_7  and  C_8
REMARK    5  A    between atoms: C_8  and  O_10
REMARK    6  A    between atoms: C_13  and  O_14
REMARK    7  A    between atoms: O_14  and  C_15
REMARK    8  A    between atoms: C_15  and  C_16
REMARK    9  A    between atoms: C_21  and  C_22
REMARK                            x       y       z     vdW  Elec       q    Type
REMARK                         _______ _______ _______ _____ _____    ______ ____
ROOT
ATOM      1  C   UNL     1       5.169   4.538  17.940  0.00  0.00    +0.000 A 
ATOM      2  C   UNL     1       5.503   4.226  16.612  0.00  0.00    +0.000 A 
ATOM      3  C   UNL     1       5.437   5.195  15.608  0.00  0.00    +0.000 A 
ATOM      4  C   UNL     1       4.972   6.469  15.931  0.00  0.00    +0.000 A 
ATOM      5  C   UNL     1       4.561   6.763  17.225  0.00  0.00    +0.000 A 
ATOM      6  C   UNL     1       4.627   5.803  18.240  0.00  0.00    +0.000 A 
ENDROOT
BRANCH   1   8
ATOM      7  C   UNL     1       4.588   2.443  18.883  0.00  0.00    +0.000 C 
ATOM      8  O   UNL     1       5.364   3.644  18.967  0.00  0.00    +0.000 OA
ENDBRANCH   1   8
BRANCH   3   9
ATOM      9  C   UNL     1       6.008   4.909  14.289  0.00  0.00    +0.000 C 
ATOM     10  C   UNL     1       6.150   3.669  13.797  0.00  0.00    +0.000 C 
BRANCH  10  11
ATOM     11  C   UNL     1       6.584   3.495  12.399  0.00  0.00    +0.000 C 
ATOM     12  O   UNL     1       7.274   4.288  11.784  0.00  0.00    +0.000 OA
BRANCH  11  13
ATOM     13  O   UNL     1       6.097   2.361  11.862  0.00  0.00    +0.000 OA
ATOM     14  H   UNL     1       6.697   1.883  11.264  0.00  0.00    +0.000 HD
ENDBRANCH  11  13
ENDBRANCH  10  11
ENDBRANCH   3   9
BRANCH   6  15
ATOM     15  O   UNL     1       4.206   6.061  19.528  0.00  0.00    +0.000 OA
BRANCH  15  16
ATOM     16  C   UNL     1       2.777   6.081  19.690  0.00  0.00    +0.000 C 
BRANCH  16  17
ATOM     17  C   UNL     1       2.203   4.792  20.236  0.00  0.00    +0.000 A 
ATOM     18  C   UNL     1       2.439   4.425  21.569  0.00  0.00    +0.000 A 
ATOM     19  C   UNL     1       2.006   3.195  22.057  0.00  0.00    +0.000 A 
ATOM     20  C   UNL     1       1.335   2.307  21.219  0.00  0.00    +0.000 A 
ATOM     21  C   UNL     1       1.092   2.650  19.888  0.00  0.00    +0.000 A 
ATOM     22  C   UNL     1       1.527   3.885  19.387  0.00  0.00    +0.000 A 
BRANCH  22  23
ATOM     23  C   UNL     1       1.294   4.183  17.997  0.00  0.00    +0.000 C 
ATOM     24  N   UNL     1       1.135   4.431  16.873  0.00  0.00    +0.000 NA
ENDBRANCH  22  23
ENDBRANCH  16  17
ENDBRANCH  15  16
ENDBRANCH   6  15
TORSDOF 8
ENDMDL
MODEL 4
REMARK VINA RESULT:      -7.2      1.833      2.142
REMARK  Name = 
REMARK  9 active torsions:
REMARK  status: ('A' for Active; 'I' for Inactive)
REMARK    1  A    between atoms: C_1  and  O_2
REMARK    2  A    between atoms: O_2  and  C_3
REMARK    3  A    between atoms: C_5  and  C_6
REMARK    4  A    between atoms: C_7  and  C_8
REMARK    5  A    between atoms: C_8  and  O_10
REMARK    6  A    between atoms: C_13  and  O_14
REMARK    7  A    between atoms: O_14  and  C_15
REMARK    8  A    between atoms: C_15  and  C_16
REMARK    9  A    between atoms: C_21  and  C_22
REMARK                            x       y       z     vdW  Elec       q    Type
REMARK                         _______ _______ _______ _____ _____    ______ ____
ROOT
ATOM      1  C   UNL     1       6.077   4.622  16.207  0.00  0.00    +0.000 A 
ATOM      2  C   UNL     1       6.956   5.701  16.395  0.00  0.00    +0.000 A 
ATOM      3  C   UNL     1       6.833   6.541  17.505  0.00  0.00    +0.000 A 
ATOM      4  C   UNL     1       5.783   6.331  18.397  0.00  0.00    +0.000 A 
ATOM      5  C   UNL     1       4.860   5.317  18.174  0.00  0.00    +0.000 A 
ATOM      6  C   UNL     1       4.974   4.467  17.069  0.00  0.00    +0.000 A 
ENDROOT
BRANCH   1   8
ATOM      7  C   UNL     1       6.573   4.251  13.919  0.00  0.00    +0.000 C 
ATOM      8  O   UNL     1       6.265   3.699  15.205  0.00  0.00    +0.000 OA
ENDBRANCH   1   8
BRANCH   3   9
ATOM      9  C   UNL     1       7.895   7.509  17.799  0.00  0.00    +0.000 C 
ATOM     10  C   UNL     1       7.691   8.833  17.865  0.00  0.00    +0.000 C 
BRANCH  10  11
ATOM     11  C   UNL     1       8.786   9.707  18.325  0.00  0.00    +0.000 C 
ATOM     12  O   UNL     1       9.291  10.594  17.660  0.00  0.00    +0.000 OA
BRANCH  11  13
ATOM     13  O   UNL     1       9.193   9.386  19.567  0.00  0.00    +0.000 OA
ATOM     14  H   UNL     1       9.871   8.691  19.625  0.00  0.00    +0.000 HD
ENDBRANCH  11  13
ENDBRANCH  10  11
ENDBRANCH   3   9
BRANCH   6  15
ATOM     15  O   UNL     1       4.061   3.465  16.812  0.00  0.00    +0.000 OA
BRANCH  15  16
ATOM     16  C   UNL     1       3.973   2.467  17.844  0.00  0.00    +0.000 C 
BRANCH  16  17
ATOM     17  C   UNL     1       2.911   2.753  18.884  0.00  0.00    +0.000 A 
ATOM     18  C   UNL     1       1.714   3.383  18.513  0.00  0.00    +0.000 A 
ATOM     19  C   UNL     1       0.773   3.746  19.474  0.00  0.00    +0.000 A 
ATOM     20  C   UNL     1       1.015   3.490  20.821  0.00  0.00    +0.000 A 
ATOM     21  C   UNL     1       2.200   2.867  21.213  0.00  0.00    +0.000 A 
ATOM     22  C   UNL     1       3.155   2.501  20.254  0.00  0.00    +0.000 A 
BRANCH  22  23
ATOM     23  C   UNL     1       4.385   1.899  20.704  0.00  0.00    +0.000 C 
ATOM     24  N   UNL     1       5.362   1.404  21.092  0.00  0.00    +0.000 NA
ENDBRANCH  22  23
ENDBRANCH  16  17
ENDBRANCH  15  16
ENDBRANCH   6  15
TORSDOF 8
ENDMDL
MODEL 5
REMARK VINA RESULT:      -7.0      2.922      4.835
REMARK  Name = 
REMARK  9 active torsions:
REMARK  status: ('A' for Active; 'I' for Inactive)
REMARK    1  A    between atoms: C_1  and  O_2
REMARK    2  A    between atoms: O_2  and  C_3
REMARK    3  A    between atoms: C_5  and  C_6
REMARK    4  A    between atoms: C_7  and  C_8
REMARK    5  A    between atoms: C_8  and  O_10
REMARK    6  A    between atoms: C_13  and  O_14
REMARK    7  A    between atoms: O_14  and  C_15
REMARK    8  A    between atoms: C_15  and  C_16
REMARK    9  A    between atoms: C_21  and  C_22
REMARK                            x       y       z     vdW  Elec       q    Type
REMARK                         _______ _______ _______ _____ _____    ______ ____
ROOT
ATOM      1  C   UNL     1       5.941   4.911  18.104  0.00  0.00    +0.000 A 
ATOM      2  C   UNL     1       6.477   4.418  16.904  0.00  0.00    +0.000 A 
ATOM      3  C   UNL     1       5.997   4.861  15.668  0.00  0.00    +0.000 A 
ATOM      4  C   UNL     1       4.930   5.758  15.642  0.00  0.00    +0.000 A 
ATOM      5  C   UNL     1       4.340   6.186  16.823  0.00  0.00    +0.000 A 
ATOM      6  C   UNL     1       4.814   5.754  18.066  0.00  0.00    +0.000 A 
ENDROOT
BRANCH   1   8
ATOM      7  C   UNL     1       7.603   5.418  19.716  0.00  0.00    +0.000 C 
ATOM      8  O   UNL     1       6.492   4.602  19.326  0.00  0.00    +0.000 OA
ENDBRANCH   1   8
BRANCH   3   9
ATOM      9  C   UNL     1       6.723   4.511  14.443  0.00  0.00    +0.000 C 
ATOM     10  C   UNL     1       6.180   3.813  13.435  0.00  0.00    +0.000 C 
BRANCH  10  11
ATOM     11  C   UNL     1       6.939   3.651  12.181  0.00  0.00    +0.000 C 
ATOM     12  O   UNL     1       7.505   4.554  11.592  0.00  0.00    +0.000 OA
BRANCH  11  13
ATOM     13  O   UNL     1       6.905   2.381  11.738  0.00  0.00    +0.000 OA
ATOM     14  H   UNL     1       6.136   1.854  12.019  0.00  0.00    +0.000 HD
ENDBRANCH  11  13
ENDBRANCH  10  11
ENDBRANCH   3   9
BRANCH   6  15
ATOM     15  O   UNL     1       4.234   6.147  19.254  0.00  0.00    +0.000 OA
BRANCH  15  16
ATOM     16  C   UNL     1       2.807   5.976  19.300  0.00  0.00    +0.000 C 
BRANCH  16  17
ATOM     17  C   UNL     1       2.363   4.698  19.978  0.00  0.00    +0.000 A 
ATOM     18  C   UNL     1       2.378   4.602  21.377  0.00  0.00    +0.000 A 
ATOM     19  C   UNL     1       2.073   3.401  22.012  0.00  0.00    +0.000 A 
ATOM     20  C   UNL     1       1.752   2.274  21.259  0.00  0.00    +0.000 A 
ATOM     21  C   UNL     1       1.734   2.346  19.866  0.00  0.00    +0.000 A 
ATOM     22  C   UNL     1       2.043   3.550  19.218  0.00  0.00    +0.000 A 
BRANCH  22  23
ATOM     23  C   UNL     1       2.055   3.571  17.777  0.00  0.00    +0.000 C 
ATOM     24  N   UNL     1       2.036   3.575  16.615  0.00  0.00    +0.000 NA
ENDBRANCH  22  23
ENDBRANCH  16  17
ENDBRANCH  15  16
ENDBRANCH   6  15
TORSDOF 8
ENDMDL
MODEL 6
REMARK VINA RESULT:      -7.0      1.565      2.082
REMARK  Name = 
REMARK  9 active torsions:
REMARK  status: ('A' for Active; 'I' for Inactive)
REMARK    1  A    between atoms: C_1  and  O_2
REMARK    2  A    between atoms: O_2  and  C_3
REMARK    3  A    between atoms: C_5  and  C_6
REMARK    4  A    between atoms: C_7  and  C_8
REMARK    5  A    between atoms: C_8  and  O_10
REMARK    6  A    between atoms: C_13  and  O_14
REMARK    7  A    between atoms: O_14  and  C_15
REMARK    8  A    between atoms: C_15  and  C_16
REMARK    9  A    between atoms: C_21  and  C_22
REMARK                            x       y       z     vdW  Elec       q    Type
REMARK                         _______ _______ _______ _____ _____    ______ ____
ROOT
ATOM      1  C   UNL     1       6.363   5.793  16.344  0.00  0.00    +0.000 A 
ATOM      2  C   UNL     1       7.046   6.921  16.825  0.00  0.00    +0.000 A 
ATOM      3  C   UNL     1       7.527   6.964  18.137  0.00  0.00    +0.000 A 
ATOM      4  C   UNL     1       7.265   5.890  18.986  0.00  0.00    +0.000 A 
ATOM      5  C   UNL     1       6.518   4.806  18.543  0.00  0.00    +0.000 A 
ATOM      6  C   UNL     1       6.035   4.749  17.231  0.00  0.00    +0.000 A 
ENDROOT
BRANCH   1   8
ATOM      7  C   UNL     1       6.924   4.914  14.215  0.00  0.00    +0.000 C 
ATOM      8  O   UNL     1       6.009   5.668  15.021  0.00  0.00    +0.000 OA
ENDBRANCH   1   8
BRANCH   3   9
ATOM      9  C   UNL     1       8.431   8.046  18.539  0.00  0.00    +0.000 C 
ATOM     10  C   UNL     1       8.348   9.295  18.061  0.00  0.00    +0.000 C 
BRANCH  10  11
ATOM     11  C   UNL     1       9.198  10.348  18.647  0.00  0.00    +0.000 C 
ATOM     12  O   UNL     1       9.602  11.328  18.046  0.00  0.00    +0.000 OA
BRANCH  11  13
ATOM     13  O   UNL     1       9.509  10.082  19.929  0.00  0.00    +0.000 OA
ATOM     14  H   UNL     1      10.016   9.265  20.081  0.00  0.00    +0.000 HD
ENDBRANCH  11  13
ENDBRANCH  10  11
ENDBRANCH   3   9
BRANCH   6  15
ATOM     15  O   UNL     1       5.274   3.695  16.770  0.00  0.00    +0.000 OA
BRANCH  15  16
ATOM     16  C   UNL     1       3.869   3.983  16.662  0.00  0.00    +0.000 C 
BRANCH  16  17
ATOM     17  C   UNL     1       3.227   4.405  17.966  0.00  0.00    +0.000 A 
ATOM     18  C   UNL     1       2.879   5.748  18.176  0.00  0.00    +0.000 A 
ATOM     19  C   UNL     1       2.384   6.171  19.407  0.00  0.00    +0.000 A 
ATOM     20  C   UNL     1       2.233   5.260  20.450  0.00  0.00    +0.000 A 
ATOM     21  C   UNL     1       2.575   3.920  20.263  0.00  0.00    +0.000 A 
ATOM     22  C   UNL     1       3.078   3.486  19.029  0.00  0.00    +0.000 A 
BRANCH  22  23
ATOM     23  C   UNL     1       3.459   2.103  18.891  0.00  0.00    +0.000 C 
ATOM     24  N   UNL     1       3.760   0.990  18.751  0.00  0.00    +0.000 NA
ENDBRANCH  22  23
ENDBRANCH  16  17
ENDBRANCH  15  16
ENDBRANCH   6  15
TORSDOF 8
ENDMDL
MODEL 7
REMARK VINA RESULT:      -6.9      1.699      2.138
REMARK  Name = 
REMARK  9 active torsions:
REMARK  status: ('A' for Active; 'I' for Inactive)
REMARK    1  A    between atoms: C_1  and  O_2
REMARK    2  A    between atoms: O_2  and  C_3
REMARK    3  A    between atoms: C_5  and  C_6
REMARK    4  A    between atoms: C_7  and  C_8
REMARK    5  A    between atoms: C_8  and  O_10
REMARK    6  A    between atoms: C_13  and  O_14
REMARK    7  A    between atoms: O_14  and  C_15
REMARK    8  A    between atoms: C_15  and  C_16
REMARK    9  A    between atoms: C_21  and  C_22
REMARK                            x       y       z     vdW  Elec       q    Type
REMARK                         _______ _______ _______ _____ _____    ______ ____
ROOT
ATOM      1  C   UNL     1       6.258   5.736  16.158  0.00  0.00    +0.000 A 
ATOM      2  C   UNL     1       6.942   6.848  16.675  0.00  0.00    +0.000 A 
ATOM      3  C   UNL     1       7.339   6.889  18.014  0.00  0.00    +0.000 A 
ATOM      4  C   UNL     1       6.990   5.831  18.853  0.00  0.00    +0.000 A 
ATOM      5  C   UNL     1       6.242   4.765  18.370  0.00  0.00    +0.000 A 
ATOM      6  C   UNL     1       5.843   4.711  17.030  0.00  0.00    +0.000 A 
ENDROOT
BRANCH   1   8
ATOM      7  C   UNL     1       6.964   4.879  14.065  0.00  0.00    +0.000 C 
ATOM      8  O   UNL     1       5.987   5.610  14.816  0.00  0.00    +0.000 OA
ENDBRANCH   1   8
BRANCH   3   9
ATOM      9  C   UNL     1       8.246   7.948  18.467  0.00  0.00    +0.000 C 
ATOM     10  C   UNL     1       8.231   9.195  17.975  0.00  0.00    +0.000 C 
BRANCH  10  11
ATOM     11  C   UNL     1       9.072  10.228  18.608  0.00  0.00    +0.000 C 
ATOM     12  O   UNL     1       9.616  10.111  19.691  0.00  0.00    +0.000 OA
BRANCH  11  13
ATOM     13  O   UNL     1       9.143  11.342  17.857  0.00  0.00    +0.000 OA
ATOM     14  H   UNL     1       8.302  11.811  17.713  0.00  0.00    +0.000 HD
ENDBRANCH  11  13
ENDBRANCH  10  11
ENDBRANCH   3   9
BRANCH   6  15
ATOM     15  O   UNL     1       5.082   3.675  16.529  0.00  0.00    +0.000 OA
BRANCH  15  16
ATOM     16  C   UNL     1       4.704   2.692  17.508  0.00  0.00    +0.000 C 
BRANCH  16  17
ATOM     17  C   UNL     1       3.415   3.011  18.232  0.00  0.00    +0.000 A 
ATOM     18  C   UNL     1       2.374   3.666  17.559  0.00  0.00    +0.000 A 
ATOM     19  C   UNL     1       1.223   4.060  18.238  0.00  0.00    +0.000 A 
ATOM     20  C   UNL     1       1.095   3.808  19.602  0.00  0.00    +0.000 A 
ATOM     21  C   UNL     1       2.120   3.160  20.292  0.00  0.00    +0.000 A 
ATOM     22  C   UNL     1       3.284   2.764  19.618  0.00  0.00    +0.000 A 
BRANCH  22  23
ATOM     23  C   UNL     1       4.336   2.136  20.376  0.00  0.00    +0.000 C 
ATOM     24  N   UNL     1       5.198   1.656  20.991  0.00  0.00    +0.000 NA
ENDBRANCH  22  23
ENDBRANCH  16  17
ENDBRANCH  15  16
ENDBRANCH   6  15
TORSDOF 8
ENDMDL
MODEL 8
REMARK VINA RESULT:      -6.9      4.095      6.271
REMARK  Name = 
REMARK  9 active torsions:
REMARK  status: ('A' for Active; 'I' for Inactive)
REMARK    1  A    between atoms: C_1  and  O_2
REMARK    2  A    between atoms: O_2  and  C_3
REMARK    3  A    between atoms: C_5  and  C_6
REMARK    4  A    between atoms: C_7  and  C_8
REMARK    5  A    between atoms: C_8  and  O_10
REMARK    6  A    between atoms: C_13  and  O_14
REMARK    7  A    between atoms: O_14  and  C_15
REMARK    8  A    between atoms: C_15  and  C_16
REMARK    9  A    between atoms: C_21  and  C_22
REMARK                            x       y       z     vdW  Elec       q    Type
REMARK                         _______ _______ _______ _____ _____    ______ ____
ROOT
ATOM      1  C   UNL     1       2.797   5.683  19.604  0.00  0.00    +0.000 A 
ATOM      2  C   UNL     1       3.584   5.010  18.656  0.00  0.00    +0.000 A 
ATOM      3  C   UNL     1       4.131   5.689  17.565  0.00  0.00    +0.000 A 
ATOM      4  C   UNL     1       3.833   7.040  17.393  0.00  0.00    +0.000 A 
ATOM      5  C   UNL     1       2.988   7.694  18.281  0.00  0.00    +0.000 A 
ATOM      6  C   UNL     1       2.437   7.026  19.380  0.00  0.00    +0.000 A 
ENDROOT
BRANCH   1   8
ATOM      7  C   UNL     1       1.362   4.068  20.579  0.00  0.00    +0.000 C 
ATOM      8  O   UNL     1       2.369   5.071  20.760  0.00  0.00    +0.000 OA
ENDBRANCH   1   8
BRANCH   3   9
ATOM      9  C   UNL     1       5.131   5.022  16.726  0.00  0.00    +0.000 C 
ATOM     10  C   UNL     1       5.436   5.418  15.481  0.00  0.00    +0.000 C 
BRANCH  10  11
ATOM     11  C   UNL     1       6.567   4.782  14.780  0.00  0.00    +0.000 C 
ATOM     12  O   UNL     1       7.626   5.330  14.536  0.00  0.00    +0.000 OA
BRANCH  11  13
ATOM     13  O   UNL     1       6.278   3.522  14.407  0.00  0.00    +0.000 OA
ATOM     14  H   UNL     1       6.804   3.168  13.668  0.00  0.00    +0.000 HD
ENDBRANCH  11  13
ENDBRANCH  10  11
ENDBRANCH   3   9
BRANCH   6  15
ATOM     15  O   UNL     1       1.579   7.645  20.265  0.00  0.00    +0.000 OA
BRANCH  15  16
ATOM     16  C   UNL     1       1.181   8.970  19.873  0.00  0.00    +0.000 C 
BRANCH  16  17
ATOM     17  C   UNL     1       0.506   9.759  20.974  0.00  0.00    +0.000 A 
ATOM     18  C   UNL     1       0.033   9.103  22.120  0.00  0.00    +0.000 A 
ATOM     19  C   UNL     1      -0.682   9.797  23.094  0.00  0.00    +0.000 A 
ATOM     20  C   UNL     1      -0.940  11.156  22.936  0.00  0.00    +0.000 A 
ATOM     21  C   UNL     1      -0.481  11.828  21.802  0.00  0.00    +0.000 A 
ATOM     22  C   UNL     1       0.236  11.137  20.815  0.00  0.00    +0.000 A 
BRANCH  22  23
ATOM     23  C   UNL     1       0.655  11.858  19.640  0.00  0.00    +0.000 C 
ATOM     24  N   UNL     1       0.967  12.455  18.693  0.00  0.00    +0.000 NA
ENDBRANCH  22  23
ENDBRANCH  16  17
ENDBRANCH  15  16
ENDBRANCH   6  15
TORSDOF 8
ENDMDL
MODEL 9
REMARK VINA RESULT:      -6.8      3.748      6.325
REMARK  Name = 
REMARK  9 active torsions:
REMARK  status: ('A' for Active; 'I' for Inactive)
REMARK    1  A    between atoms: C_1  and  O_2
REMARK    2  A    between atoms: O_2  and  C_3
REMARK    3  A    between atoms: C_5  and  C_6
REMARK    4  A    between atoms: C_7  and  C_8
REMARK    5  A    between atoms: C_8  and  O_10
REMARK    6  A    between atoms: C_13  and  O_14
REMARK    7  A    between atoms: O_14  and  C_15
REMARK    8  A    between atoms: C_15  and  C_16
REMARK    9  A    between atoms: C_21  and  C_22
REMARK                            x       y       z     vdW  Elec       q    Type
REMARK                         _______ _______ _______ _____ _____    ______ ____
ROOT
ATOM      1  C   UNL     1       2.015   4.821  19.535  0.00  0.00    +0.000 A 
ATOM      2  C   UNL     1       1.796   5.773  20.545  0.00  0.00    +0.000 A 
ATOM      3  C   UNL     1       1.975   7.137  20.297  0.00  0.00    +0.000 A 
ATOM      4  C   UNL     1       2.436   7.539  19.045  0.00  0.00    +0.000 A 
ATOM      5  C   UNL     1       2.734   6.599  18.067  0.00  0.00    +0.000 A 
ATOM      6  C   UNL     1       2.555   5.231  18.301  0.00  0.00    +0.000 A 
ENDROOT
BRANCH   1   8
ATOM      7  C   UNL     1       2.294   2.881  20.867  0.00  0.00    +0.000 C 
ATOM      8  O   UNL     1       1.707   3.493  19.711  0.00  0.00    +0.000 OA
ENDBRANCH   1   8
BRANCH   3   9
ATOM      9  C   UNL     1       1.520   8.117  21.288  0.00  0.00    +0.000 C 
ATOM     10  C   UNL     1       0.587   9.045  21.035  0.00  0.00    +0.000 C 
BRANCH  10  11
ATOM     11  C   UNL     1       0.082   9.879  22.142  0.00  0.00    +0.000 C 
ATOM     12  O   UNL     1       0.445   9.786  23.300  0.00  0.00    +0.000 OA
BRANCH  11  13
ATOM     13  O   UNL     1      -0.863  10.742  21.726  0.00  0.00    +0.000 OA
ATOM     14  H   UNL     1      -1.639  10.833  22.306  0.00  0.00    +0.000 HD
ENDBRANCH  11  13
ENDBRANCH  10  11
ENDBRANCH   3   9
BRANCH   6  15
ATOM     15  O   UNL     1       2.862   4.275  17.356  0.00  0.00    +0.000 OA
BRANCH  15  16
ATOM     16  C   UNL     1       4.042   3.507  17.654  0.00  0.00    +0.000 C 
BRANCH  16  17
ATOM     17  C   UNL     1       5.290   4.343  17.832  0.00  0.00    +0.000 A 
ATOM     18  C   UNL     1       5.696   4.737  19.115  0.00  0.00    +0.000 A 
ATOM     19  C   UNL     1       6.782   5.592  19.288  0.00  0.00    +0.000 A 
ATOM     20  C   UNL     1       7.477   6.071  18.181  0.00  0.00    +0.000 A 
ATOM     21  C   UNL     1       7.089   5.694  16.895  0.00  0.00    +0.000 A 
ATOM     22  C   UNL     1       5.995   4.837  16.710  0.00  0.00    +0.000 A 
BRANCH  22  23
ATOM     23  C   UNL     1       5.600   4.507  15.364  0.00  0.00    +0.000 C 
ATOM     24  N   UNL     1       5.303   4.260  14.269  0.00  0.00    +0.000 NA
ENDBRANCH  22  23
ENDBRANCH  16  17
ENDBRANCH  15  16
ENDBRANCH   6  15
TORSDOF 8
ENDMDL
