MODEL 1
REMARK VINA RESULT:      -8.9      0.000      0.000
REMARK  Name = 
REMARK  8 active torsions:
REMARK  status: ('A' for Active; 'I' for Inactive)
REMARK    1  A    between atoms: C_1  and  C_2
REMARK    2  A    between atoms: N_4  and  C_5
REMARK    3  A    between atoms: C_12  and  C_13
REMARK    4  A    between atoms: C_14  and  S_15
REMARK    5  A    between atoms: S_15  and  N_18
REMARK    6  A    between atoms: C_21  and  C_22
REMARK    7  A    between atoms: N_24  and  C_25
REMARK    8  A    between atoms: C_25  and  C_26
REMARK                            x       y       z     vdW  Elec       q    Type
REMARK                         _______ _______ _______ _____ _____    ______ ____
ROOT
ATOM      1  S   UNL     1       3.703   4.126  18.016  0.00  0.00    +0.000 S 
ATOM      2  O   UNL     1       3.256   2.800  18.396  0.00  0.00    +0.000 OA
ATOM      3  O   UNL     1       3.453   4.671  16.702  0.00  0.00    +0.000 OA
ENDROOT
BRANCH   1  10
ATOM      4  C   UNL     1       1.859   3.653  20.945  0.00  0.00    +0.000 C 
ATOM      5  C   UNL     1       2.195   4.939  20.275  0.00  0.00    +0.000 A 
ATOM      6  N   UNL     1       1.819   6.080  20.868  0.00  0.00    +0.000 NA
ATOM      7  N   UNL     1       2.044   7.051  19.948  0.00  0.00    +0.000 N 
ATOM      8  C   UNL     1       2.780   6.579  18.876  0.00  0.00    +0.000 A 
ATOM      9  C   UNL     1       3.362   7.404  17.790  0.00  0.00    +0.000 C 
ATOM     10  C   UNL     1       2.883   5.210  19.072  0.00  0.00    +0.000 A 
BRANCH   7  11
ATOM     11  C   UNL     1       1.501   8.341  20.164  0.00  0.00    +0.000 A 
ATOM     12  C   UNL     1       1.305   9.194  19.066  0.00  0.00    +0.000 A 
ATOM     13  C   UNL     1       0.815  10.481  19.272  0.00  0.00    +0.000 A 
ATOM     14  C   UNL     1       0.548  10.916  20.561  0.00  0.00    +0.000 A 
ATOM     15  F   UNL     1       0.113  12.165  20.763  0.00  0.00    +0.000 F 
ATOM     16  C   UNL     1       0.751  10.084  21.661  0.00  0.00    +0.000 A 
ATOM     17  C   UNL     1       1.226   8.792  21.463  0.00  0.00    +0.000 A 
ENDBRANCH   7  11
ENDBRANCH   1  10
BRANCH   1  18
ATOM     18  N   UNL     1       5.409   4.251  18.342  0.00  0.00    +0.000 NA
ATOM     19  C   UNL     1       6.240   4.323  17.112  0.00  0.00    +0.000 C 
ATOM     20  C   UNL     1       7.715   4.613  17.373  0.00  0.00    +0.000 C 
ATOM     21  C   UNL     1       7.963   5.764  18.340  0.00  0.00    +0.000 C 
ATOM     22  C   UNL     1       7.187   5.490  19.629  0.00  0.00    +0.000 C 
ATOM     23  C   UNL     1       5.696   5.252  19.405  0.00  0.00    +0.000 C 
BRANCH  21  24
ATOM     24  C   UNL     1       7.655   7.157  17.778  0.00  0.00    +0.000 C 
ATOM     25  O   UNL     1       6.842   7.335  16.881  0.00  0.00    +0.000 OA
ATOM     26  N   UNL     1       8.329   8.201  18.378  0.00  0.00    +0.000 N 
ATOM     27  H   UNL     1       8.908   8.040  19.192  0.00  0.00    +0.000 HD
BRANCH  26  28
ATOM     28  C   UNL     1       8.049   9.597  18.033  0.00  0.00    +0.000 C 
BRANCH  28  29
ATOM     29  C   UNL     1       9.296  10.492  18.125  0.00  0.00    +0.000 C 
ATOM     30  C   UNL     1       8.997  11.952  17.795  0.00  0.00    +0.000 C 
ATOM     31  C   UNL     1       8.765  12.575  19.149  0.00  0.00    +0.000 C 
ATOM     32  C   UNL     1       9.724  11.800  20.022  0.00  0.00    +0.000 C 
ATOM     33  O   UNL     1       9.791  10.472  19.484  0.00  0.00    +0.000 OA
ENDBRANCH  28  29
ENDBRANCH  26  28
ENDBRANCH  21  24
ENDBRANCH   1  18
TORSDOF 6
ENDMDL
MODEL 2
REMARK VINA RESULT:      -8.9      0.687      1.232
REMARK  Name = 
REMARK  8 active torsions:
REMARK  status: ('A' for Active; 'I' for Inactive)
REMARK    1  A    between atoms: C_1  and  C_2
REMARK    2  A    between atoms: N_4  and  C_5
REMARK    3  A    between atoms: C_12  and  C_13
REMARK    4  A    between atoms: C_14  and  S_15
REMARK    5  A    between atoms: S_15  and  N_18
REMARK    6  A    between atoms: C_21  and  C_22
REMARK    7  A    between atoms: N_24  and  C_25
REMARK    8  A    between atoms: C_25  and  C_26
REMARK                            x       y       z     vdW  Elec       q    Type
REMARK                         _______ _______ _______ _____ _____    ______ ____
ROOT
ATOM      1  S   UNL     1       3.596   4.139  18.125  0.00  0.00    +0.000 S 
ATOM      2  O   UNL     1       3.149   2.849  18.615  0.00  0.00    +0.000 OA
ATOM      3  O   UNL     1       3.330   4.579  16.775  0.00  0.00    +0.000 OA
ENDROOT
BRANCH   1  10
ATOM      4  C   UNL     1       1.685   3.894  21.038  0.00  0.00    +0.000 C 
ATOM      5  C   UNL     1       2.077   5.128  20.305  0.00  0.00    +0.000 A 
ATOM      6  N   UNL     1       1.729   6.313  20.826  0.00  0.00    +0.000 NA
ATOM      7  N   UNL     1       2.004   7.222  19.857  0.00  0.00    +0.000 N 
ATOM      8  C   UNL     1       2.742   6.666  18.828  0.00  0.00    +0.000 A 
ATOM      9  C   UNL     1       3.372   7.409  17.709  0.00  0.00    +0.000 C 
ATOM     10  C   UNL     1       2.795   5.308  19.103  0.00  0.00    +0.000 A 
BRANCH   7  11
ATOM     11  C   UNL     1       1.502   8.539  19.991  0.00  0.00    +0.000 A 
ATOM     12  C   UNL     1       1.175   9.021  21.269  0.00  0.00    +0.000 A 
ATOM     13  C   UNL     1       0.636  10.297  21.407  0.00  0.00    +0.000 A 
ATOM     14  C   UNL     1       0.407  11.072  20.280  0.00  0.00    +0.000 A 
ATOM     15  F   UNL     1      -0.144  12.284  20.409  0.00  0.00    +0.000 F 
ATOM     16  C   UNL     1       0.716  10.601  19.005  0.00  0.00    +0.000 A 
ATOM     17  C   UNL     1       1.267   9.332  18.859  0.00  0.00    +0.000 A 
ENDBRANCH   7  11
ENDBRANCH   1  10
BRANCH   1  18
ATOM     18  N   UNL     1       5.307   4.281  18.417  0.00  0.00    +0.000 NA
ATOM     19  C   UNL     1       6.119   4.284  17.172  0.00  0.00    +0.000 C 
ATOM     20  C   UNL     1       7.598   4.587  17.394  0.00  0.00    +0.000 C 
ATOM     21  C   UNL     1       7.860   5.790  18.292  0.00  0.00    +0.000 C 
ATOM     22  C   UNL     1       7.104   5.589  19.606  0.00  0.00    +0.000 C 
ATOM     23  C   UNL     1       5.610   5.339  19.419  0.00  0.00    +0.000 C 
BRANCH  21  24
ATOM     24  C   UNL     1       7.544   7.149  17.658  0.00  0.00    +0.000 C 
ATOM     25  O   UNL     1       6.697   7.282  16.784  0.00  0.00    +0.000 OA
ATOM     26  N   UNL     1       8.250   8.220  18.165  0.00  0.00    +0.000 N 
ATOM     27  H   UNL     1       8.860   8.102  18.964  0.00  0.00    +0.000 HD
BRANCH  26  28
ATOM     28  C   UNL     1       7.970   9.596  17.747  0.00  0.00    +0.000 C 
BRANCH  28  29
ATOM     29  C   UNL     1       8.618  10.640  18.672  0.00  0.00    +0.000 C 
ATOM     30  C   UNL     1      10.132  10.477  18.773  0.00  0.00    +0.000 C 
ATOM     31  C   UNL     1      10.656  11.443  17.740  0.00  0.00    +0.000 C 
ATOM     32  C   UNL     1       9.646  12.563  17.813  0.00  0.00    +0.000 C 
ATOM     33  O   UNL     1       8.383  11.960  18.130  0.00  0.00    +0.000 OA
ENDBRANCH  28  29
ENDBRANCH  26  28
ENDBRANCH  21  24
ENDBRANCH   1  18
TORSDOF 6
ENDMDL
MODEL 3
REMARK VINA RESULT:      -8.7      0.821      1.719
REMARK  Name = 
REMARK  8 active torsions:
REMARK  status: ('A' for Active; 'I' for Inactive)
REMARK    1  A    between atoms: C_1  and  C_2
REMARK    2  A    between atoms: N_4  and  C_5
REMARK    3  A    between atoms: C_12  and  C_13
REMARK    4  A    between atoms: C_14  and  S_15
REMARK    5  A    between atoms: S_15  and  N_18
REMARK    6  A    between atoms: C_21  and  C_22
REMARK    7  A    between atoms: N_24  and  C_25
REMARK    8  A    between atoms: C_25  and  C_26
REMARK                            x       y       z     vdW  Elec       q    Type
REMARK                         _______ _______ _______ _____ _____    ______ ____
ROOT
ATOM      1  S   UNL     1       3.700   4.340  18.163  0.00  0.00    +0.000 S 
ATOM      2  O   UNL     1       3.054   3.489  19.144  0.00  0.00    +0.000 OA
ATOM      3  O   UNL     1       3.508   4.154  16.744  0.00  0.00    +0.000 OA
ENDROOT
BRANCH   1  10
ATOM      4  C   UNL     1       4.239   7.417  16.600  0.00  0.00    +0.000 C 
ATOM      5  C   UNL     1       3.328   7.118  17.737  0.00  0.00    +0.000 A 
ATOM      6  N   UNL     1       2.555   8.107  18.208  0.00  0.00    +0.000 NA
ATOM      7  N   UNL     1       2.019   7.625  19.357  0.00  0.00    +0.000 N 
ATOM      8  C   UNL     1       2.244   6.267  19.496  0.00  0.00    +0.000 A 
ATOM      9  C   UNL     1       1.643   5.387  20.527  0.00  0.00    +0.000 C 
ATOM     10  C   UNL     1       3.094   5.925  18.455  0.00  0.00    +0.000 A 
BRANCH   7  11
ATOM     11  C   UNL     1       1.365   8.520  20.237  0.00  0.00    +0.000 A 
ATOM     12  C   UNL     1       0.685   9.628  19.707  0.00  0.00    +0.000 A 
ATOM     13  C   UNL     1       0.079  10.541  20.566  0.00  0.00    +0.000 A 
ATOM     14  C   UNL     1       0.171  10.360  21.937  0.00  0.00    +0.000 A 
ATOM     15  F   UNL     1      -0.380  11.256  22.763  0.00  0.00    +0.000 F 
ATOM     16  C   UNL     1       0.854   9.271  22.477  0.00  0.00    +0.000 A 
ATOM     17  C   UNL     1       1.451   8.347  21.626  0.00  0.00    +0.000 A 
ENDBRANCH   7  11
ENDBRANCH   1  10
BRANCH   1  18
ATOM     18  N   UNL     1       5.412   4.356  18.484  0.00  0.00    +0.000 NA
ATOM     19  C   UNL     1       6.242   4.349  17.251  0.00  0.00    +0.000 C 
ATOM     20  C   UNL     1       7.734   4.544  17.504  0.00  0.00    +0.000 C 
ATOM     21  C   UNL     1       8.062   5.693  18.450  0.00  0.00    +0.000 C 
ATOM     22  C   UNL     1       7.273   5.495  19.745  0.00  0.00    +0.000 C 
ATOM     23  C   UNL     1       5.769   5.354  19.528  0.00  0.00    +0.000 C 
BRANCH  21  24
ATOM     24  C   UNL     1       7.847   7.093  17.863  0.00  0.00    +0.000 C 
ATOM     25  O   UNL     1       7.164   7.286  16.865  0.00  0.00    +0.000 OA
ATOM     26  N   UNL     1       8.443   8.126  18.557  0.00  0.00    +0.000 N 
ATOM     27  H   UNL     1       8.905   7.953  19.441  0.00  0.00    +0.000 HD
BRANCH  26  28
ATOM     28  C   UNL     1       8.226   9.527  18.190  0.00  0.00    +0.000 C 
BRANCH  28  29
ATOM     29  C   UNL     1       9.454  10.410  18.469  0.00  0.00    +0.000 C 
ATOM     30  C   UNL     1       9.320  11.808  17.872  0.00  0.00    +0.000 C 
ATOM     31  C   UNL     1       8.789  12.628  19.022  0.00  0.00    +0.000 C 
ATOM     32  C   UNL     1       9.460  11.980  20.209  0.00  0.00    +0.000 C 
ATOM     33  O   UNL     1       9.593  10.585  19.898  0.00  0.00    +0.000 OA
ENDBRANCH  28  29
ENDBRANCH  26  28
ENDBRANCH  21  24
ENDBRANCH   1  18
TORSDOF 6
ENDMDL
MODEL 4
REMARK VINA RESULT:      -8.3      5.786     10.347
REMARK  Name = 
REMARK  8 active torsions:
REMARK  status: ('A' for Active; 'I' for Inactive)
REMARK    1  A    between atoms: C_1  and  C_2
REMARK    2  A    between atoms: N_4  and  C_5
REMARK    3  A    between atoms: C_12  and  C_13
REMARK    4  A    between atoms: C_14  and  S_15
REMARK    5  A    between atoms: S_15  and  N_18
REMARK    6  A    between atoms: C_21  and  C_22
REMARK    7  A    between atoms: N_24  and  C_25
REMARK    8  A    between atoms: C_25  and  C_26
REMARK                            x       y       z     vdW  Elec       q    Type
REMARK                         _______ _______ _______ _____ _____    ______ ____
ROOT
ATOM      1  S   UNL     1       0.628   9.315  20.979  0.00  0.00    +0.000 S 
ATOM      2  O   UNL     1      -0.505   8.495  21.365  0.00  0.00    +0.000 OA
ATOM      3  O   UNL     1       1.624   9.741  21.934  0.00  0.00    +0.000 OA
ENDROOT
BRANCH   1  10
ATOM      4  C   UNL     1       1.966  10.007  17.828  0.00  0.00    +0.000 C 
ATOM      5  C   UNL     1       2.071   8.744  18.607  0.00  0.00    +0.000 A 
ATOM      6  N   UNL     1       2.813   7.748  18.103  0.00  0.00    +0.000 NA
ATOM      7  N   UNL     1       2.546   6.673  18.886  0.00  0.00    +0.000 N 
ATOM      8  C   UNL     1       1.838   7.029  20.019  0.00  0.00    +0.000 A 
ATOM      9  C   UNL     1       1.544   6.146  21.174  0.00  0.00    +0.000 C 
ATOM     10  C   UNL     1       1.520   8.368  19.851  0.00  0.00    +0.000 A 
BRANCH   7  11
ATOM     11  C   UNL     1       2.966   5.391  18.457  0.00  0.00    +0.000 A 
ATOM     12  C   UNL     1       2.059   4.567  17.770  0.00  0.00    +0.000 A 
ATOM     13  C   UNL     1       2.446   3.287  17.384  0.00  0.00    +0.000 A 
ATOM     14  C   UNL     1       3.715   2.827  17.702  0.00  0.00    +0.000 A 
ATOM     15  F   UNL     1       4.075   1.584  17.364  0.00  0.00    +0.000 F 
ATOM     16  C   UNL     1       4.621   3.630  18.394  0.00  0.00    +0.000 A 
ATOM     17  C   UNL     1       4.247   4.916  18.771  0.00  0.00    +0.000 A 
ENDBRANCH   7  11
ENDBRANCH   1  10
BRANCH   1  18
ATOM     18  N   UNL     1       0.036  10.723  20.144  0.00  0.00    +0.000 NA
ATOM     19  C   UNL     1      -1.240  10.486  19.419  0.00  0.00    +0.000 C 
ATOM     20  C   UNL     1      -1.867  11.747  18.833  0.00  0.00    +0.000 C 
ATOM     21  C   UNL     1      -1.929  12.922  19.801  0.00  0.00    +0.000 C 
ATOM     22  C   UNL     1      -0.524  13.172  20.351  0.00  0.00    +0.000 C 
ATOM     23  C   UNL     1       0.107  11.941  20.996  0.00  0.00    +0.000 C 
BRANCH  21  24
ATOM     24  C   UNL     1      -2.960  12.776  20.926  0.00  0.00    +0.000 C 
ATOM     25  O   UNL     1      -2.653  12.850  22.109  0.00  0.00    +0.000 OA
ATOM     26  N   UNL     1      -4.265  12.595  20.516  0.00  0.00    +0.000 N 
ATOM     27  H   UNL     1      -4.509  12.652  19.535  0.00  0.00    +0.000 HD
BRANCH  26  28
ATOM     28  C   UNL     1      -5.376  12.563  21.470  0.00  0.00    +0.000 C 
BRANCH  28  29
ATOM     29  C   UNL     1      -6.740  12.371  20.786  0.00  0.00    +0.000 C 
ATOM     30  C   UNL     1      -6.631  11.627  19.457  0.00  0.00    +0.000 C 
ATOM     31  C   UNL     1      -6.908  10.194  19.837  0.00  0.00    +0.000 C 
ATOM     32  C   UNL     1      -7.916  10.351  20.951  0.00  0.00    +0.000 C 
ATOM     33  O   UNL     1      -7.586  11.566  21.639  0.00  0.00    +0.000 OA
ENDBRANCH  28  29
ENDBRANCH  26  28
ENDBRANCH  21  24
ENDBRANCH   1  18
TORSDOF 6
ENDMDL
MODEL 5
REMARK VINA RESULT:      -8.1      5.638     10.185
REMARK  Name = 
REMARK  8 active torsions:
REMARK  status: ('A' for Active; 'I' for Inactive)
REMARK    1  A    between atoms: C_1  and  C_2
REMARK    2  A    between atoms: N_4  and  C_5
REMARK    3  A    between atoms: C_12  and  C_13
REMARK    4  A    between atoms: C_14  and  S_15
REMARK    5  A    between atoms: S_15  and  N_18
REMARK    6  A    between atoms: C_21  and  C_22
REMARK    7  A    between atoms: N_24  and  C_25
REMARK    8  A    between atoms: C_25  and  C_26
REMARK                            x       y       z     vdW  Elec       q    Type
REMARK                         _______ _______ _______ _____ _____    ______ ____
ROOT
ATOM      1  S   UNL     1       0.682   9.402  20.954  0.00  0.00    +0.000 S 
ATOM      2  O   UNL     1      -0.526   8.663  21.266  0.00  0.00    +0.000 OA
ATOM      3  O   UNL     1       1.660   9.733  21.964  0.00  0.00    +0.000 OA
ENDROOT
BRANCH   1  10
ATOM      4  C   UNL     1       2.090  10.020  17.818  0.00  0.00    +0.000 C 
ATOM      5  C   UNL     1       2.138   8.760  18.608  0.00  0.00    +0.000 A 
ATOM      6  N   UNL     1       2.850   7.733  18.122  0.00  0.00    +0.000 NA
ATOM      7  N   UNL     1       2.532   6.675  18.909  0.00  0.00    +0.000 N 
ATOM      8  C   UNL     1       1.821   7.066  20.029  0.00  0.00    +0.000 A 
ATOM      9  C   UNL     1       1.478   6.204  21.187  0.00  0.00    +0.000 C 
ATOM     10  C   UNL     1       1.555   8.415  19.846  0.00  0.00    +0.000 A 
BRANCH   7  11
ATOM     11  C   UNL     1       2.911   5.375  18.497  0.00  0.00    +0.000 A 
ATOM     12  C   UNL     1       1.969   4.561  17.848  0.00  0.00    +0.000 A 
ATOM     13  C   UNL     1       2.316   3.264  17.479  0.00  0.00    +0.000 A 
ATOM     14  C   UNL     1       3.581   2.780  17.777  0.00  0.00    +0.000 A 
ATOM     15  F   UNL     1       3.903   1.522  17.455  0.00  0.00    +0.000 F 
ATOM     16  C   UNL     1       4.522   3.574  18.431  0.00  0.00    +0.000 A 
ATOM     17  C   UNL     1       4.188   4.876  18.791  0.00  0.00    +0.000 A 
ENDBRANCH   7  11
ENDBRANCH   1  10
BRANCH   1  18
ATOM     18  N   UNL     1       0.237  10.868  20.126  0.00  0.00    +0.000 NA
ATOM     19  C   UNL     1      -0.937  10.706  19.229  0.00  0.00    +0.000 C 
ATOM     20  C   UNL     1      -1.452  12.013  18.635  0.00  0.00    +0.000 C 
ATOM     21  C   UNL     1      -1.615  13.138  19.649  0.00  0.00    +0.000 C 
ATOM     22  C   UNL     1      -0.289  13.319  20.390  0.00  0.00    +0.000 C 
ATOM     23  C   UNL     1       0.224  12.039  21.045  0.00  0.00    +0.000 C 
BRANCH  21  24
ATOM     24  C   UNL     1      -2.788  12.967  20.620  0.00  0.00    +0.000 C 
ATOM     25  O   UNL     1      -2.629  12.890  21.832  0.00  0.00    +0.000 OA
ATOM     26  N   UNL     1      -4.040  12.943  20.041  0.00  0.00    +0.000 N 
ATOM     27  H   UNL     1      -4.153  13.124  19.051  0.00  0.00    +0.000 HD
BRANCH  26  28
ATOM     28  C   UNL     1      -5.263  12.909  20.847  0.00  0.00    +0.000 C 
BRANCH  28  29
ATOM     29  C   UNL     1      -6.280  11.875  20.338  0.00  0.00    +0.000 C 
ATOM     30  C   UNL     1      -7.612  12.507  19.942  0.00  0.00    +0.000 C 
ATOM     31  C   UNL     1      -7.470  12.720  18.456  0.00  0.00    +0.000 C 
ATOM     32  C   UNL     1      -6.631  11.532  18.046  0.00  0.00    +0.000 C 
ATOM     33  O   UNL     1      -5.755  11.245  19.146  0.00  0.00    +0.000 OA
ENDBRANCH  28  29
ENDBRANCH  26  28
ENDBRANCH  21  24
ENDBRANCH   1  18
TORSDOF 6
ENDMDL
MODEL 6
REMARK VINA RESULT:      -8.1      1.062      1.221
REMARK  Name = 
REMARK  8 active torsions:
REMARK  status: ('A' for Active; 'I' for Inactive)
REMARK    1  A    between atoms: C_1  and  C_2
REMARK    2  A    between atoms: N_4  and  C_5
REMARK    3  A    between atoms: C_12  and  C_13
REMARK    4  A    between atoms: C_14  and  S_15
REMARK    5  A    between atoms: S_15  and  N_18
REMARK    6  A    between atoms: C_21  and  C_22
REMARK    7  A    between atoms: N_24  and  C_25
REMARK    8  A    between atoms: C_25  and  C_26
REMARK                            x       y       z     vdW  Elec       q    Type
REMARK                         _______ _______ _______ _____ _____    ______ ____
ROOT
ATOM      1  S   UNL     1       3.177   5.408  17.817  0.00  0.00    +0.000 S 
ATOM      2  O   UNL     1       2.425   4.193  17.572  0.00  0.00    +0.000 OA
ATOM      3  O   UNL     1       3.229   6.484  16.856  0.00  0.00    +0.000 OA
ENDROOT
BRANCH   1  10
ATOM      4  C   UNL     1       2.179   4.137  20.914  0.00  0.00    +0.000 C 
ATOM      5  C   UNL     1       2.121   5.548  20.445  0.00  0.00    +0.000 A 
ATOM      6  N   UNL     1       1.700   6.485  21.305  0.00  0.00    +0.000 NA
ATOM      7  N   UNL     1       1.531   7.605  20.558  0.00  0.00    +0.000 N 
ATOM      8  C   UNL     1       2.067   7.460  19.291  0.00  0.00    +0.000 A 
ATOM      9  C   UNL     1       2.227   8.538  18.285  0.00  0.00    +0.000 C 
ATOM     10  C   UNL     1       2.451   6.130  19.202  0.00  0.00    +0.000 A 
BRANCH   7  11
ATOM     11  C   UNL     1       0.837   8.705  21.117  0.00  0.00    +0.000 A 
ATOM     12  C   UNL     1       0.996   9.978  20.544  0.00  0.00    +0.000 A 
ATOM     13  C   UNL     1       0.356  11.074  21.114  0.00  0.00    +0.000 A 
ATOM     14  C   UNL     1      -0.414  10.905  22.255  0.00  0.00    +0.000 A 
ATOM     15  F   UNL     1      -0.999  11.964  22.824  0.00  0.00    +0.000 F 
ATOM     16  C   UNL     1      -0.569   9.649  22.840  0.00  0.00    +0.000 A 
ATOM     17  C   UNL     1       0.055   8.545  22.270  0.00  0.00    +0.000 A 
ENDBRANCH   7  11
ENDBRANCH   1  10
BRANCH   1  18
ATOM     18  N   UNL     1       4.811   4.975  18.238  0.00  0.00    +0.000 NA
ATOM     19  C   UNL     1       5.680   4.736  17.055  0.00  0.00    +0.000 C 
ATOM     20  C   UNL     1       7.153   4.532  17.397  0.00  0.00    +0.000 C 
ATOM     21  C   UNL     1       7.717   5.564  18.366  0.00  0.00    +0.000 C 
ATOM     22  C   UNL     1       6.831   5.595  19.612  0.00  0.00    +0.000 C 
ATOM     23  C   UNL     1       5.358   5.854  19.306  0.00  0.00    +0.000 C 
BRANCH  21  24
ATOM     24  C   UNL     1       7.914   6.964  17.775  0.00  0.00    +0.000 C 
ATOM     25  O   UNL     1       7.700   7.213  16.596  0.00  0.00    +0.000 OA
ATOM     26  N   UNL     1       8.314   7.936  18.670  0.00  0.00    +0.000 N 
ATOM     27  H   UNL     1       8.373   7.731  19.660  0.00  0.00    +0.000 HD
BRANCH  26  28
ATOM     28  C   UNL     1       8.424   9.344  18.280  0.00  0.00    +0.000 C 
BRANCH  28  29
ATOM     29  C   UNL     1       9.619  10.050  18.943  0.00  0.00    +0.000 C 
ATOM     30  C   UNL     1      10.158  11.206  18.104  0.00  0.00    +0.000 C 
ATOM     31  C   UNL     1       9.455  12.410  18.678  0.00  0.00    +0.000 C 
ATOM     32  C   UNL     1       9.347  12.047  20.140  0.00  0.00    +0.000 C 
ATOM     33  O   UNL     1       9.189  10.622  20.201  0.00  0.00    +0.000 OA
ENDBRANCH  28  29
ENDBRANCH  26  28
ENDBRANCH  21  24
ENDBRANCH   1  18
TORSDOF 6
ENDMDL
MODEL 7
REMARK VINA RESULT:      -8.0      5.761     10.221
REMARK  Name = 
REMARK  8 active torsions:
REMARK  status: ('A' for Active; 'I' for Inactive)
REMARK    1  A    between atoms: C_1  and  C_2
REMARK    2  A    between atoms: N_4  and  C_5
REMARK    3  A    between atoms: C_12  and  C_13
REMARK    4  A    between atoms: C_14  and  S_15
REMARK    5  A    between atoms: S_15  and  N_18
REMARK    6  A    between atoms: C_21  and  C_22
REMARK    7  A    between atoms: N_24  and  C_25
REMARK    8  A    between atoms: C_25  and  C_26
REMARK                            x       y       z     vdW  Elec       q    Type
REMARK                         _______ _______ _______ _____ _____    ______ ____
ROOT
ATOM      1  S   UNL     1       0.676   9.421  20.989  0.00  0.00    +0.000 S 
ATOM      2  O   UNL     1      -0.546   8.709  21.309  0.00  0.00    +0.000 OA
ATOM      3  O   UNL     1       1.665   9.736  21.994  0.00  0.00    +0.000 OA
ENDROOT
BRANCH   1  10
ATOM      4  C   UNL     1       1.994   9.964  17.799  0.00  0.00    +0.000 C 
ATOM      5  C   UNL     1       2.071   8.725  18.620  0.00  0.00    +0.000 A 
ATOM      6  N   UNL     1       2.775   7.690  18.142  0.00  0.00    +0.000 NA
ATOM      7  N   UNL     1       2.486   6.651  18.965  0.00  0.00    +0.000 N 
ATOM      8  C   UNL     1       1.803   7.067  20.093  0.00  0.00    +0.000 A 
ATOM      9  C   UNL     1       1.498   6.234  21.282  0.00  0.00    +0.000 C 
ATOM     10  C   UNL     1       1.524   8.409  19.883  0.00  0.00    +0.000 A 
BRANCH   7  11
ATOM     11  C   UNL     1       2.861   5.343  18.576  0.00  0.00    +0.000 A 
ATOM     12  C   UNL     1       4.119   4.849  18.958  0.00  0.00    +0.000 A 
ATOM     13  C   UNL     1       4.517   3.582  18.541  0.00  0.00    +0.000 A 
ATOM     14  C   UNL     1       3.678   2.828  17.734  0.00  0.00    +0.000 A 
ATOM     15  F   UNL     1       4.076   1.625  17.304  0.00  0.00    +0.000 F 
ATOM     16  C   UNL     1       2.433   3.311  17.338  0.00  0.00    +0.000 A 
ATOM     17  C   UNL     1       2.020   4.571  17.760  0.00  0.00    +0.000 A 
ENDBRANCH   7  11
ENDBRANCH   1  10
BRANCH   1  18
ATOM     18  N   UNL     1       0.260  10.892  20.154  0.00  0.00    +0.000 NA
ATOM     19  C   UNL     1      -1.069  10.837  19.490  0.00  0.00    +0.000 C 
ATOM     20  C   UNL     1      -1.529  12.170  18.908  0.00  0.00    +0.000 C 
ATOM     21  C   UNL     1      -1.374  13.352  19.857  0.00  0.00    +0.000 C 
ATOM     22  C   UNL     1       0.076  13.399  20.340  0.00  0.00    +0.000 C 
ATOM     23  C   UNL     1       0.549  12.096  20.980  0.00  0.00    +0.000 C 
BRANCH  21  24
ATOM     24  C   UNL     1      -2.363  13.374  21.028  0.00  0.00    +0.000 C 
ATOM     25  O   UNL     1      -2.140  13.993  22.061  0.00  0.00    +0.000 OA
ATOM     26  N   UNL     1      -3.537  12.679  20.827  0.00  0.00    +0.000 N 
ATOM     27  H   UNL     1      -3.746  12.272  19.923  0.00  0.00    +0.000 HD
BRANCH  26  28
ATOM     28  C   UNL     1      -4.628  12.710  21.804  0.00  0.00    +0.000 C 
BRANCH  28  29
ATOM     29  C   UNL     1      -5.992  13.008  21.160  0.00  0.00    +0.000 C 
ATOM     30  C   UNL     1      -6.192  12.270  19.838  0.00  0.00    +0.000 C 
ATOM     31  C   UNL     1      -6.942  11.026  20.243  0.00  0.00    +0.000 C 
ATOM     32  C   UNL     1      -7.798  11.529  21.382  0.00  0.00    +0.000 C 
ATOM     33  O   UNL     1      -7.041  12.552  22.046  0.00  0.00    +0.000 OA
ENDBRANCH  28  29
ENDBRANCH  26  28
ENDBRANCH  21  24
ENDBRANCH   1  18
TORSDOF 6
ENDMDL
MODEL 8
REMARK VINA RESULT:      -7.9      5.586      9.898
REMARK  Name = 
REMARK  8 active torsions:
REMARK  status: ('A' for Active; 'I' for Inactive)
REMARK    1  A    between atoms: C_1  and  C_2
REMARK    2  A    between atoms: N_4  and  C_5
REMARK    3  A    between atoms: C_12  and  C_13
REMARK    4  A    between atoms: C_14  and  S_15
REMARK    5  A    between atoms: S_15  and  N_18
REMARK    6  A    between atoms: C_21  and  C_22
REMARK    7  A    between atoms: N_24  and  C_25
REMARK    8  A    between atoms: C_25  and  C_26
REMARK                            x       y       z     vdW  Elec       q    Type
REMARK                         _______ _______ _______ _____ _____    ______ ____
ROOT
ATOM      1  S   UNL     1       0.704   9.615  20.737  0.00  0.00    +0.000 S 
ATOM      2  O   UNL     1      -0.618   9.033  20.870  0.00  0.00    +0.000 OA
ATOM      3  O   UNL     1       1.576   9.802  21.872  0.00  0.00    +0.000 OA
ENDROOT
BRANCH   1  10
ATOM      4  C   UNL     1       2.240  10.004  17.623  0.00  0.00    +0.000 C 
ATOM      5  C   UNL     1       2.219   8.791  18.485  0.00  0.00    +0.000 A 
ATOM      6  N   UNL     1       2.913   7.717  18.086  0.00  0.00    +0.000 NA
ATOM      7  N   UNL     1       2.534   6.717  18.920  0.00  0.00    +0.000 N 
ATOM      8  C   UNL     1       1.798   7.194  19.989  0.00  0.00    +0.000 A 
ATOM      9  C   UNL     1       1.387   6.412  21.181  0.00  0.00    +0.000 C 
ATOM     10  C   UNL     1       1.582   8.537  19.720  0.00  0.00    +0.000 A 
BRANCH   7  11
ATOM     11  C   UNL     1       2.884   5.384  18.597  0.00  0.00    +0.000 A 
ATOM     12  C   UNL     1       2.010   4.619  17.807  0.00  0.00    +0.000 A 
ATOM     13  C   UNL     1       2.322   3.292  17.522  0.00  0.00    +0.000 A 
ATOM     14  C   UNL     1       3.480   2.732  18.039  0.00  0.00    +0.000 A 
ATOM     15  F   UNL     1       3.762   1.447  17.795  0.00  0.00    +0.000 F 
ATOM     16  C   UNL     1       4.350   3.477  18.834  0.00  0.00    +0.000 A 
ATOM     17  C   UNL     1       4.053   4.807  19.113  0.00  0.00    +0.000 A 
ENDBRANCH   7  11
ENDBRANCH   1  10
BRANCH   1  18
ATOM     18  N   UNL     1       0.560  11.137  19.903  0.00  0.00    +0.000 NA
ATOM     19  C   UNL     1      -0.710  11.274  19.142  0.00  0.00    +0.000 C 
ATOM     20  C   UNL     1      -0.936  12.663  18.554  0.00  0.00    +0.000 C 
ATOM     21  C   UNL     1      -0.691  13.803  19.535  0.00  0.00    +0.000 C 
ATOM     22  C   UNL     1       0.711  13.643  20.124  0.00  0.00    +0.000 C 
ATOM     23  C   UNL     1       0.949  12.281  20.771  0.00  0.00    +0.000 C 
BRANCH  21  24
ATOM     24  C   UNL     1      -1.753  13.952  20.630  0.00  0.00    +0.000 C 
ATOM     25  O   UNL     1      -1.473  14.295  21.771  0.00  0.00    +0.000 OA
ATOM     26  N   UNL     1      -3.053  13.708  20.234  0.00  0.00    +0.000 N 
ATOM     27  H   UNL     1      -3.271  13.538  19.260  0.00  0.00    +0.000 HD
BRANCH  26  28
ATOM     28  C   UNL     1      -4.187  13.928  21.135  0.00  0.00    +0.000 C 
BRANCH  28  29
ATOM     29  C   UNL     1      -4.542  12.679  21.957  0.00  0.00    +0.000 C 
ATOM     30  C   UNL     1      -4.327  12.881  23.455  0.00  0.00    +0.000 C 
ATOM     31  C   UNL     1      -5.694  13.282  23.952  0.00  0.00    +0.000 C 
ATOM     32  C   UNL     1      -6.605  12.482  23.051  0.00  0.00    +0.000 C 
ATOM     33  O   UNL     1      -5.946  12.382  21.780  0.00  0.00    +0.000 OA
ENDBRANCH  28  29
ENDBRANCH  26  28
ENDBRANCH  21  24
ENDBRANCH   1  18
TORSDOF 6
ENDMDL
MODEL 9
REMARK VINA RESULT:      -7.9      5.965     10.369
REMARK  Name = 
REMARK  8 active torsions:
REMARK  status: ('A' for Active; 'I' for Inactive)
REMARK    1  A    between atoms: C_1  and  C_2
REMARK    2  A    between atoms: N_4  and  C_5
REMARK    3  A    between atoms: C_12  and  C_13
REMARK    4  A    between atoms: C_14  and  S_15
REMARK    5  A    between atoms: S_15  and  N_18
REMARK    6  A    between atoms: C_21  and  C_22
REMARK    7  A    between atoms: N_24  and  C_25
REMARK    8  A    between atoms: C_25  and  C_26
REMARK                            x       y       z     vdW  Elec       q    Type
REMARK                         _______ _______ _______ _____ _____    ______ ____
ROOT
ATOM      1  S   UNL     1       0.672   9.439  21.049  0.00  0.00    +0.000 S 
ATOM      2  O   UNL     1      -0.519   8.687  21.393  0.00  0.00    +0.000 OA
ATOM      3  O   UNL     1       1.677   9.772  22.031  0.00  0.00    +0.000 OA
ENDROOT
BRANCH   1  10
ATOM      4  C   UNL     1       1.914  10.063  17.844  0.00  0.00    +0.000 C 
ATOM      5  C   UNL     1       2.035   8.813  18.642  0.00  0.00    +0.000 A 
ATOM      6  N   UNL     1       2.752   7.801  18.133  0.00  0.00    +0.000 NA
ATOM      7  N   UNL     1       2.501   6.743  18.944  0.00  0.00    +0.000 N 
ATOM      8  C   UNL     1       1.832   7.125  20.092  0.00  0.00    +0.000 A 
ATOM      9  C   UNL     1       1.568   6.266  21.272  0.00  0.00    +0.000 C 
ATOM     10  C   UNL     1       1.520   8.464  19.910  0.00  0.00    +0.000 A 
BRANCH   7  11
ATOM     11  C   UNL     1       2.897   5.450  18.525  0.00  0.00    +0.000 A 
ATOM     12  C   UNL     1       1.988   4.654  17.809  0.00  0.00    +0.000 A 
ATOM     13  C   UNL     1       2.349   3.363  17.434  0.00  0.00    +0.000 A 
ATOM     14  C   UNL     1       3.594   2.867  17.789  0.00  0.00    +0.000 A 
ATOM     15  F   UNL     1       3.928   1.614  17.460  0.00  0.00    +0.000 F 
ATOM     16  C   UNL     1       4.501   3.642  18.510  0.00  0.00    +0.000 A 
ATOM     17  C   UNL     1       4.154   4.938  18.878  0.00  0.00    +0.000 A 
ENDBRANCH   7  11
ENDBRANCH   1  10
BRANCH   1  18
ATOM     18  N   UNL     1       0.191  10.905  20.242  0.00  0.00    +0.000 NA
ATOM     19  C   UNL     1      -1.178  10.839  19.667  0.00  0.00    +0.000 C 
ATOM     20  C   UNL     1      -1.686  12.168  19.115  0.00  0.00    +0.000 C 
ATOM     21  C   UNL     1      -1.478  13.352  20.051  0.00  0.00    +0.000 C 
ATOM     22  C   UNL     1       0.000  13.411  20.438  0.00  0.00    +0.000 C 
ATOM     23  C   UNL     1       0.524  12.112  21.046  0.00  0.00    +0.000 C 
BRANCH  21  24
ATOM     24  C   UNL     1      -2.389  13.368  21.284  0.00  0.00    +0.000 C 
ATOM     25  O   UNL     1      -2.052  13.889  22.339  0.00  0.00    +0.000 OA
ATOM     26  N   UNL     1      -3.629  12.787  21.114  0.00  0.00    +0.000 N 
ATOM     27  H   UNL     1      -3.926  12.466  20.201  0.00  0.00    +0.000 HD
BRANCH  26  28
ATOM     28  C   UNL     1      -4.652  12.834  22.161  0.00  0.00    +0.000 C 
BRANCH  28  29
ATOM     29  C   UNL     1      -6.043  13.196  21.615  0.00  0.00    +0.000 C 
ATOM     30  C   UNL     1      -6.996  12.003  21.600  0.00  0.00    +0.000 C 
ATOM     31  C   UNL     1      -7.751  12.145  22.899  0.00  0.00    +0.000 C 
ATOM     32  C   UNL     1      -7.840  13.645  23.050  0.00  0.00    +0.000 C 
ATOM     33  O   UNL     1      -6.644  14.190  22.476  0.00  0.00    +0.000 OA
ENDBRANCH  28  29
ENDBRANCH  26  28
ENDBRANCH  21  24
ENDBRANCH   1  18
TORSDOF 6
ENDMDL
