MODEL 1
REMARK VINA RESULT:      -6.7      0.000      0.000
REMARK  Name = 
REMARK  10 active torsions:
REMARK  status: ('A' for Active; 'I' for Inactive)
REMARK    1  A    between atoms: C_1  and  C_2
REMARK    2  A    between atoms: C_2  and  C_3
REMARK    3  A    between atoms: C_3  and  C_4
REMARK    4  A    between atoms: C_4  and  C_5
REMARK    5  A    between atoms: C_8  and  O_9
REMARK    6  A    between atoms: O_9  and  C_10
REMARK    7  A    between atoms: C_11  and  O_12
REMARK    8  A    between atoms: O_12  and  C_13
REMARK    9  A    between atoms: N_18  and  S_19
REMARK   10  A    between atoms: S_19  and  N_20
REMARK                            x       y       z     vdW  Elec       q    Type
REMARK                         _______ _______ _______ _____ _____    ______ ____
ROOT
ATOM      1  C   UNL     1       5.244   4.620  17.493  0.00  0.00    +0.000 C 
ATOM      2  C   UNL     1       4.020   5.109  18.271  0.00  0.00    +0.000 A 
ATOM      3  C   UNL     1       3.283   4.238  19.096  0.00  0.00    +0.000 A 
ATOM      4  C   UNL     1       2.322   4.720  20.001  0.00  0.00    +0.000 A 
ATOM      5  C   UNL     1       2.068   6.103  20.041  0.00  0.00    +0.000 A 
ATOM      6  C   UNL     1       2.744   6.957  19.156  0.00  0.00    +0.000 A 
ATOM      7  C   UNL     1       3.696   6.469  18.261  0.00  0.00    +0.000 A 
ATOM      8  C   UNL     1       4.405   7.373  17.295  0.00  0.00    +0.000 C 
ATOM      9  C   UNL     1       4.672   6.598  16.005  0.00  0.00    +0.000 C 
ATOM     10  N   UNL     1       5.542   5.428  16.268  0.00  0.00    +0.000 NA
ENDROOT
BRANCH  10  11
ATOM     11  S   UNL     1       6.196   4.646  14.944  0.00  0.00    +0.000 S 
ATOM     12  O   UNL     1       5.200   4.552  13.911  0.00  0.00    +0.000 OA
ATOM     13  O   UNL     1       7.526   5.141  14.706  0.00  0.00    +0.000 OA
BRANCH  11  14
ATOM     14  N   UNL     1       6.356   3.124  15.573  0.00  0.00    +0.000 NA
ATOM     15  H   UNL     1       7.037   2.524  15.122  0.00  0.00    +0.000 HD
ATOM     16  H   UNL     1       5.562   2.742  16.071  0.00  0.00    +0.000 HD
ENDBRANCH  11  14
ENDBRANCH  10  11
BRANCH   4  17
ATOM     17  O   UNL     1       1.633   3.908  20.859  0.00  0.00    +0.000 OA
ATOM     18  C   UNL     1       2.345   2.918  21.590  0.00  0.00    +0.000 C 
ENDBRANCH   4  17
BRANCH   5  19
ATOM     19  O   UNL     1       1.214   6.798  20.858  0.00  0.00    +0.000 OA
ATOM     20  C   UNL     1       1.347   8.206  20.959  0.00  0.00    +0.000 C 
ENDBRANCH   5  19
BRANCH   1  21
ATOM     21  C   UNL     1       6.500   4.654  18.420  0.00  0.00    +0.000 C 
BRANCH  21  22
ATOM     22  C   UNL     1       7.635   5.535  17.871  0.00  0.00    +0.000 C 
BRANCH  22  24
ATOM     23  C   UNL     1       7.916   8.073  17.734  0.00  0.00    +0.000 C 
ATOM     24  C   UNL     1       7.890   6.843  18.620  0.00  0.00    +0.000 C 
ENDBRANCH  22  24
ENDBRANCH  21  22
ENDBRANCH   1  21
TORSDOF 7
ENDMDL
MODEL 2
REMARK VINA RESULT:      -6.6      0.852      1.016
REMARK  Name = 
REMARK  10 active torsions:
REMARK  status: ('A' for Active; 'I' for Inactive)
REMARK    1  A    between atoms: C_1  and  C_2
REMARK    2  A    between atoms: C_2  and  C_3
REMARK    3  A    between atoms: C_3  and  C_4
REMARK    4  A    between atoms: C_4  and  C_5
REMARK    5  A    between atoms: C_8  and  O_9
REMARK    6  A    between atoms: O_9  and  C_10
REMARK    7  A    between atoms: C_11  and  O_12
REMARK    8  A    between atoms: O_12  and  C_13
REMARK    9  A    between atoms: N_18  and  S_19
REMARK   10  A    between atoms: S_19  and  N_20
REMARK                            x       y       z     vdW  Elec       q    Type
REMARK                         _______ _______ _______ _____ _____    ______ ____
ROOT
ATOM      1  C   UNL     1       5.822   4.964  18.335  0.00  0.00    +0.000 C 
ATOM      2  C   UNL     1       4.424   5.262  18.884  0.00  0.00    +0.000 A 
ATOM      3  C   UNL     1       3.844   4.454  19.881  0.00  0.00    +0.000 A 
ATOM      4  C   UNL     1       2.684   4.852  20.566  0.00  0.00    +0.000 A 
ATOM      5  C   UNL     1       2.073   6.067  20.207  0.00  0.00    +0.000 A 
ATOM      6  C   UNL     1       2.606   6.826  19.155  0.00  0.00    +0.000 A 
ATOM      7  C   UNL     1       3.759   6.422  18.480  0.00  0.00    +0.000 A 
ATOM      8  C   UNL     1       4.321   7.217  17.337  0.00  0.00    +0.000 C 
ATOM      9  C   UNL     1       4.942   6.251  16.328  0.00  0.00    +0.000 C 
ATOM     10  N   UNL     1       6.050   5.487  16.950  0.00  0.00    +0.000 NA
ENDROOT
BRANCH  10  11
ATOM     11  S   UNL     1       7.048   4.617  15.931  0.00  0.00    +0.000 S 
ATOM     12  O   UNL     1       7.255   5.366  14.720  0.00  0.00    +0.000 OA
ATOM     13  O   UNL     1       8.128   4.048  16.692  0.00  0.00    +0.000 OA
BRANCH  11  14
ATOM     14  N   UNL     1       6.029   3.375  15.538  0.00  0.00    +0.000 NA
ATOM     15  H   UNL     1       6.451   2.456  15.470  0.00  0.00    +0.000 HD
ATOM     16  H   UNL     1       5.187   3.609  15.027  0.00  0.00    +0.000 HD
ENDBRANCH  11  14
ENDBRANCH  10  11
BRANCH   4  17
ATOM     17  O   UNL     1       2.130   4.121  21.581  0.00  0.00    +0.000 OA
ATOM     18  C   UNL     1       1.990   2.716  21.420  0.00  0.00    +0.000 C 
ENDBRANCH   4  17
BRANCH   5  19
ATOM     19  O   UNL     1       0.970   6.670  20.755  0.00  0.00    +0.000 OA
ATOM     20  C   UNL     1       1.050   8.031  21.147  0.00  0.00    +0.000 C 
ENDBRANCH   5  19
BRANCH   1  21
ATOM     21  C   UNL     1       6.898   5.592  19.278  0.00  0.00    +0.000 C 
BRANCH  21  22
ATOM     22  C   UNL     1       8.054   6.261  18.517  0.00  0.00    +0.000 C 
BRANCH  22  24
ATOM     23  C   UNL     1       7.830   8.628  17.575  0.00  0.00    +0.000 C 
ATOM     24  C   UNL     1       8.231   7.761  18.752  0.00  0.00    +0.000 C 
ENDBRANCH  22  24
ENDBRANCH  21  22
ENDBRANCH   1  21
TORSDOF 7
ENDMDL
MODEL 3
REMARK VINA RESULT:      -6.5      2.698      5.842
REMARK  Name = 
REMARK  10 active torsions:
REMARK  status: ('A' for Active; 'I' for Inactive)
REMARK    1  A    between atoms: C_1  and  C_2
REMARK    2  A    between atoms: C_2  and  C_3
REMARK    3  A    between atoms: C_3  and  C_4
REMARK    4  A    between atoms: C_4  and  C_5
REMARK    5  A    between atoms: C_8  and  O_9
REMARK    6  A    between atoms: O_9  and  C_10
REMARK    7  A    between atoms: C_11  and  O_12
REMARK    8  A    between atoms: O_12  and  C_13
REMARK    9  A    between atoms: N_18  and  S_19
REMARK   10  A    between atoms: S_19  and  N_20
REMARK                            x       y       z     vdW  Elec       q    Type
REMARK                         _______ _______ _______ _____ _____    ______ ____
ROOT
ATOM      1  C   UNL     1       2.867   4.305  17.720  0.00  0.00    +0.000 C 
ATOM      2  C   UNL     1       4.278   4.815  17.414  0.00  0.00    +0.000 A 
ATOM      3  C   UNL     1       4.735   4.944  16.088  0.00  0.00    +0.000 A 
ATOM      4  C   UNL     1       5.919   5.638  15.784  0.00  0.00    +0.000 A 
ATOM      5  C   UNL     1       6.677   6.173  16.841  0.00  0.00    +0.000 A 
ATOM      6  C   UNL     1       6.261   5.967  18.165  0.00  0.00    +0.000 A 
ATOM      7  C   UNL     1       5.084   5.277  18.457  0.00  0.00    +0.000 A 
ATOM      8  C   UNL     1       4.646   5.032  19.872  0.00  0.00    +0.000 C 
ATOM      9  C   UNL     1       3.938   3.679  19.938  0.00  0.00    +0.000 C 
ATOM     10  N   UNL     1       2.734   3.676  19.073  0.00  0.00    +0.000 NA
ENDROOT
BRANCH  10  11
ATOM     11  S   UNL     1       1.664   2.407  19.253  0.00  0.00    +0.000 S 
ATOM     12  O   UNL     1       1.453   2.161  20.655  0.00  0.00    +0.000 OA
ATOM     13  O   UNL     1       0.583   2.556  18.315  0.00  0.00    +0.000 OA
BRANCH  11  14
ATOM     14  N   UNL     1       2.610   1.166  18.704  0.00  0.00    +0.000 NA
ATOM     15  H   UNL     1       3.093   1.328  17.827  0.00  0.00    +0.000 HD
ATOM     16  H   UNL     1       2.377   0.232  19.014  0.00  0.00    +0.000 HD
ENDBRANCH  11  14
ENDBRANCH  10  11
BRANCH   4  17
ATOM     17  O   UNL     1       6.359   5.834  14.504  0.00  0.00    +0.000 OA
ATOM     18  C   UNL     1       7.161   4.833  13.890  0.00  0.00    +0.000 C 
ENDBRANCH   4  17
BRANCH   5  19
ATOM     19  O   UNL     1       7.831   6.912  16.784  0.00  0.00    +0.000 OA
ATOM     20  C   UNL     1       7.936   8.090  17.566  0.00  0.00    +0.000 C 
ENDBRANCH   5  19
BRANCH   1  21
ATOM     21  C   UNL     1       1.852   5.489  17.628  0.00  0.00    +0.000 C 
BRANCH  21  22
ATOM     22  C   UNL     1       2.270   6.711  18.463  0.00  0.00    +0.000 C 
BRANCH  22  24
ATOM     23  C   UNL     1       1.707   9.156  17.971  0.00  0.00    +0.000 C 
ATOM     24  C   UNL     1       2.611   7.975  17.674  0.00  0.00    +0.000 C 
ENDBRANCH  22  24
ENDBRANCH  21  22
ENDBRANCH   1  21
TORSDOF 7
ENDMDL
MODEL 4
REMARK VINA RESULT:      -6.5      2.129      4.021
REMARK  Name = 
REMARK  10 active torsions:
REMARK  status: ('A' for Active; 'I' for Inactive)
REMARK    1  A    between atoms: C_1  and  C_2
REMARK    2  A    between atoms: C_2  and  C_3
REMARK    3  A    between atoms: C_3  and  C_4
REMARK    4  A    between atoms: C_4  and  C_5
REMARK    5  A    between atoms: C_8  and  O_9
REMARK    6  A    between atoms: O_9  and  C_10
REMARK    7  A    between atoms: C_11  and  O_12
REMARK    8  A    between atoms: O_12  and  C_13
REMARK    9  A    between atoms: N_18  and  S_19
REMARK   10  A    between atoms: S_19  and  N_20
REMARK                            x       y       z     vdW  Elec       q    Type
REMARK                         _______ _______ _______ _____ _____    ______ ____
ROOT
ATOM      1  C   UNL     1       4.650   5.561  17.069  0.00  0.00    +0.000 C 
ATOM      2  C   UNL     1       3.798   6.390  18.033  0.00  0.00    +0.000 A 
ATOM      3  C   UNL     1       3.043   7.489  17.579  0.00  0.00    +0.000 A 
ATOM      4  C   UNL     1       2.072   8.098  18.392  0.00  0.00    +0.000 A 
ATOM      5  C   UNL     1       1.891   7.618  19.701  0.00  0.00    +0.000 A 
ATOM      6  C   UNL     1       2.706   6.579  20.177  0.00  0.00    +0.000 A 
ATOM      7  C   UNL     1       3.668   5.980  19.362  0.00  0.00    +0.000 A 
ATOM      8  C   UNL     1       4.559   4.885  19.872  0.00  0.00    +0.000 C 
ATOM      9  C   UNL     1       5.925   5.012  19.197  0.00  0.00    +0.000 C 
ATOM     10  N   UNL     1       5.799   4.861  17.729  0.00  0.00    +0.000 NA
ENDROOT
BRANCH  10  11
ATOM     11  S   UNL     1       7.208   4.656  16.855  0.00  0.00    +0.000 S 
ATOM     12  O   UNL     1       8.241   4.171  17.730  0.00  0.00    +0.000 OA
ATOM     13  O   UNL     1       6.901   4.040  15.591  0.00  0.00    +0.000 OA
BRANCH  11  14
ATOM     14  N   UNL     1       7.572   6.239  16.542  0.00  0.00    +0.000 NA
ATOM     15  H   UNL     1       8.209   6.407  15.771  0.00  0.00    +0.000 HD
ATOM     16  H   UNL     1       7.484   6.896  17.306  0.00  0.00    +0.000 HD
ENDBRANCH  11  14
ENDBRANCH  10  11
BRANCH   4  17
ATOM     17  O   UNL     1       1.279   9.127  17.962  0.00  0.00    +0.000 OA
ATOM     18  C   UNL     1       1.650  10.462  18.281  0.00  0.00    +0.000 C 
ENDBRANCH   4  17
BRANCH   5  19
ATOM     19  O   UNL     1       0.989   8.025  20.651  0.00  0.00    +0.000 OA
ATOM     20  C   UNL     1       1.439   8.821  21.735  0.00  0.00    +0.000 C 
ENDBRANCH   5  19
BRANCH   1  21
ATOM     21  C   UNL     1       3.756   4.486  16.373  0.00  0.00    +0.000 C 
BRANCH  21  22
ATOM     22  C   UNL     1       3.786   3.123  17.082  0.00  0.00    +0.000 C 
BRANCH  22  24
ATOM     23  C   UNL     1       1.406   3.762  17.767  0.00  0.00    +0.000 C 
ATOM     24  C   UNL     1       2.494   2.705  17.785  0.00  0.00    +0.000 C 
ENDBRANCH  22  24
ENDBRANCH  21  22
ENDBRANCH   1  21
TORSDOF 7
ENDMDL
MODEL 5
REMARK VINA RESULT:      -6.4      2.918      6.321
REMARK  Name = 
REMARK  10 active torsions:
REMARK  status: ('A' for Active; 'I' for Inactive)
REMARK    1  A    between atoms: C_1  and  C_2
REMARK    2  A    between atoms: C_2  and  C_3
REMARK    3  A    between atoms: C_3  and  C_4
REMARK    4  A    between atoms: C_4  and  C_5
REMARK    5  A    between atoms: C_8  and  O_9
REMARK    6  A    between atoms: O_9  and  C_10
REMARK    7  A    between atoms: C_11  and  O_12
REMARK    8  A    between atoms: O_12  and  C_13
REMARK    9  A    between atoms: N_18  and  S_19
REMARK   10  A    between atoms: S_19  and  N_20
REMARK                            x       y       z     vdW  Elec       q    Type
REMARK                         _______ _______ _______ _____ _____    ______ ____
ROOT
ATOM      1  C   UNL     1       4.101   3.627  17.391  0.00  0.00    +0.000 C 
ATOM      2  C   UNL     1       5.283   3.984  16.487  0.00  0.00    +0.000 A 
ATOM      3  C   UNL     1       5.367   3.498  15.168  0.00  0.00    +0.000 A 
ATOM      4  C   UNL     1       6.303   4.011  14.254  0.00  0.00    +0.000 A 
ATOM      5  C   UNL     1       7.199   5.002  14.692  0.00  0.00    +0.000 A 
ATOM      6  C   UNL     1       7.167   5.422  16.031  0.00  0.00    +0.000 A 
ATOM      7  C   UNL     1       6.235   4.906  16.931  0.00  0.00    +0.000 A 
ATOM      8  C   UNL     1       6.211   5.333  18.371  0.00  0.00    +0.000 C 
ATOM      9  C   UNL     1       5.780   4.142  19.227  0.00  0.00    +0.000 C 
ATOM     10  N   UNL     1       4.418   3.695  18.854  0.00  0.00    +0.000 NA
ENDROOT
BRANCH  10  11
ATOM     11  S   UNL     1       3.656   2.618  19.879  0.00  0.00    +0.000 S 
ATOM     12  O   UNL     1       3.111   3.337  20.999  0.00  0.00    +0.000 OA
ATOM     13  O   UNL     1       2.887   1.682  19.103  0.00  0.00    +0.000 OA
BRANCH  11  14
ATOM     14  N   UNL     1       4.975   1.800  20.451  0.00  0.00    +0.000 NA
ATOM     15  H   UNL     1       4.812   1.190  21.245  0.00  0.00    +0.000 HD
ATOM     16  H   UNL     1       5.885   2.203  20.273  0.00  0.00    +0.000 HD
ENDBRANCH  11  14
ENDBRANCH  10  11
BRANCH   4  17
ATOM     17  O   UNL     1       6.370   3.605  12.950  0.00  0.00    +0.000 OA
ATOM     18  C   UNL     1       5.163   3.339  12.248  0.00  0.00    +0.000 C 
ENDBRANCH   4  17
BRANCH   5  19
ATOM     19  O   UNL     1       8.160   5.670  13.977  0.00  0.00    +0.000 OA
ATOM     20  C   UNL     1       8.073   5.700  12.562  0.00  0.00    +0.000 C 
ENDBRANCH   5  19
BRANCH   1  21
ATOM     21  C   UNL     1       2.910   4.595  17.102  0.00  0.00    +0.000 C 
BRANCH  21  22
ATOM     22  C   UNL     1       2.708   5.651  18.201  0.00  0.00    +0.000 C 
BRANCH  22  24
ATOM     23  C   UNL     1       2.160   8.143  18.025  0.00  0.00    +0.000 C 
ATOM     24  C   UNL     1       3.210   7.059  17.877  0.00  0.00    +0.000 C 
ENDBRANCH  22  24
ENDBRANCH  21  22
ENDBRANCH   1  21
TORSDOF 7
ENDMDL
MODEL 6
REMARK VINA RESULT:      -6.4      1.159      1.450
REMARK  Name = 
REMARK  10 active torsions:
REMARK  status: ('A' for Active; 'I' for Inactive)
REMARK    1  A    between atoms: C_1  and  C_2
REMARK    2  A    between atoms: C_2  and  C_3
REMARK    3  A    between atoms: C_3  and  C_4
REMARK    4  A    between atoms: C_4  and  C_5
REMARK    5  A    between atoms: C_8  and  O_9
REMARK    6  A    between atoms: O_9  and  C_10
REMARK    7  A    between atoms: C_11  and  O_12
REMARK    8  A    between atoms: O_12  and  C_13
REMARK    9  A    between atoms: N_18  and  S_19
REMARK   10  A    between atoms: S_19  and  N_20
REMARK                            x       y       z     vdW  Elec       q    Type
REMARK                         _______ _______ _______ _____ _____    ______ ____
ROOT
ATOM      1  C   UNL     1       5.883   5.183  17.932  0.00  0.00    +0.000 C 
ATOM      2  C   UNL     1       4.510   5.555  18.499  0.00  0.00    +0.000 A 
ATOM      3  C   UNL     1       3.996   4.916  19.644  0.00  0.00    +0.000 A 
ATOM      4  C   UNL     1       2.866   5.412  20.317  0.00  0.00    +0.000 A 
ATOM      5  C   UNL     1       2.218   6.547  19.798  0.00  0.00    +0.000 A 
ATOM      6  C   UNL     1       2.683   7.129  18.609  0.00  0.00    +0.000 A 
ATOM      7  C   UNL     1       3.806   6.628  17.948  0.00  0.00    +0.000 A 
ATOM      8  C   UNL     1       4.296   7.230  16.662  0.00  0.00    +0.000 C 
ATOM      9  C   UNL     1       4.880   6.117  15.793  0.00  0.00    +0.000 C 
ATOM     10  N   UNL     1       6.030   5.473  16.470  0.00  0.00    +0.000 NA
ENDROOT
BRANCH  10  11
ATOM     11  S   UNL     1       6.988   4.456  15.554  0.00  0.00    +0.000 S 
ATOM     12  O   UNL     1       8.125   4.049  16.335  0.00  0.00    +0.000 OA
ATOM     13  O   UNL     1       6.153   3.524  14.844  0.00  0.00    +0.000 OA
BRANCH  11  14
ATOM     14  N   UNL     1       7.555   5.539  14.440  0.00  0.00    +0.000 NA
ATOM     15  H   UNL     1       7.894   5.146  13.568  0.00  0.00    +0.000 HD
ATOM     16  H   UNL     1       7.893   6.428  14.785  0.00  0.00    +0.000 HD
ENDBRANCH  11  14
ENDBRANCH  10  11
BRANCH   4  17
ATOM     17  O   UNL     1       2.377   4.853  21.465  0.00  0.00    +0.000 OA
ATOM     18  C   UNL     1       1.903   3.513  21.431  0.00  0.00    +0.000 C 
ENDBRANCH   4  17
BRANCH   5  19
ATOM     19  O   UNL     1       1.135   7.224  20.299  0.00  0.00    +0.000 OA
ATOM     20  C   UNL     1       1.348   8.387  21.081  0.00  0.00    +0.000 C 
ENDBRANCH   5  19
BRANCH   1  21
ATOM     21  C   UNL     1       6.995   5.964  18.701  0.00  0.00    +0.000 C 
BRANCH  21  22
ATOM     22  C   UNL     1       7.565   7.148  17.904  0.00  0.00    +0.000 C 
BRANCH  22  24
ATOM     23  C   UNL     1       8.487   9.516  18.192  0.00  0.00    +0.000 C 
ATOM     24  C   UNL     1       8.511   8.076  18.666  0.00  0.00    +0.000 C 
ENDBRANCH  22  24
ENDBRANCH  21  22
ENDBRANCH   1  21
TORSDOF 7
ENDMDL
MODEL 7
REMARK VINA RESULT:      -6.3      2.924      5.872
REMARK  Name = 
REMARK  10 active torsions:
REMARK  status: ('A' for Active; 'I' for Inactive)
REMARK    1  A    between atoms: C_1  and  C_2
REMARK    2  A    between atoms: C_2  and  C_3
REMARK    3  A    between atoms: C_3  and  C_4
REMARK    4  A    between atoms: C_4  and  C_5
REMARK    5  A    between atoms: C_8  and  O_9
REMARK    6  A    between atoms: O_9  and  C_10
REMARK    7  A    between atoms: C_11  and  O_12
REMARK    8  A    between atoms: O_12  and  C_13
REMARK    9  A    between atoms: N_18  and  S_19
REMARK   10  A    between atoms: S_19  and  N_20
REMARK                            x       y       z     vdW  Elec       q    Type
REMARK                         _______ _______ _______ _____ _____    ______ ____
ROOT
ATOM      1  C   UNL     1       2.768   4.315  17.702  0.00  0.00    +0.000 C 
ATOM      2  C   UNL     1       4.198   4.783  17.418  0.00  0.00    +0.000 A 
ATOM      3  C   UNL     1       4.706   4.824  16.105  0.00  0.00    +0.000 A 
ATOM      4  C   UNL     1       5.912   5.479  15.805  0.00  0.00    +0.000 A 
ATOM      5  C   UNL     1       6.641   6.065  16.855  0.00  0.00    +0.000 A 
ATOM      6  C   UNL     1       6.173   5.946  18.173  0.00  0.00    +0.000 A 
ATOM      7  C   UNL     1       4.974   5.294  18.461  0.00  0.00    +0.000 A 
ATOM      8  C   UNL     1       4.480   5.142  19.872  0.00  0.00    +0.000 C 
ATOM      9  C   UNL     1       3.746   3.807  19.991  0.00  0.00    +0.000 C 
ATOM     10  N   UNL     1       2.575   3.771  19.084  0.00  0.00    +0.000 NA
ENDROOT
BRANCH  10  11
ATOM     11  S   UNL     1       1.475   2.532  19.299  0.00  0.00    +0.000 S 
ATOM     12  O   UNL     1       0.487   2.590  18.256  0.00  0.00    +0.000 OA
ATOM     13  O   UNL     1       2.178   1.324  19.644  0.00  0.00    +0.000 OA
BRANCH  11  14
ATOM     14  N   UNL     1       0.726   3.061  20.676  0.00  0.00    +0.000 NA
ATOM     15  H   UNL     1      -0.189   2.668  20.865  0.00  0.00    +0.000 HD
ATOM     16  H   UNL     1       0.995   3.970  21.031  0.00  0.00    +0.000 HD
ENDBRANCH  11  14
ENDBRANCH  10  11
BRANCH   4  17
ATOM     17  O   UNL     1       6.402   5.591  14.532  0.00  0.00    +0.000 OA
ATOM     18  C   UNL     1       6.597   4.411  13.764  0.00  0.00    +0.000 C 
ENDBRANCH   4  17
BRANCH   5  19
ATOM     19  O   UNL     1       7.809   6.781  16.797  0.00  0.00    +0.000 OA
ATOM     20  C   UNL     1       7.921   7.981  17.545  0.00  0.00    +0.000 C 
ENDBRANCH   5  19
BRANCH   1  21
ATOM     21  C   UNL     1       1.779   5.506  17.501  0.00  0.00    +0.000 C 
BRANCH  21  22
ATOM     22  C   UNL     1       2.072   6.699  18.426  0.00  0.00    +0.000 C 
BRANCH  22  24
ATOM     23  C   UNL     1       1.649   9.177  17.955  0.00  0.00    +0.000 C 
ATOM     24  C   UNL     1       2.551   7.978  17.738  0.00  0.00    +0.000 C 
ENDBRANCH  22  24
ENDBRANCH  21  22
ENDBRANCH   1  21
TORSDOF 7
ENDMDL
MODEL 8
REMARK VINA RESULT:      -6.2      2.070      4.008
REMARK  Name = 
REMARK  10 active torsions:
REMARK  status: ('A' for Active; 'I' for Inactive)
REMARK    1  A    between atoms: C_1  and  C_2
REMARK    2  A    between atoms: C_2  and  C_3
REMARK    3  A    between atoms: C_3  and  C_4
REMARK    4  A    between atoms: C_4  and  C_5
REMARK    5  A    between atoms: C_8  and  O_9
REMARK    6  A    between atoms: O_9  and  C_10
REMARK    7  A    between atoms: C_11  and  O_12
REMARK    8  A    between atoms: O_12  and  C_13
REMARK    9  A    between atoms: N_18  and  S_19
REMARK   10  A    between atoms: S_19  and  N_20
REMARK                            x       y       z     vdW  Elec       q    Type
REMARK                         _______ _______ _______ _____ _____    ______ ____
ROOT
ATOM      1  C   UNL     1       4.683   5.648  17.124  0.00  0.00    +0.000 C 
ATOM      2  C   UNL     1       3.821   6.401  18.141  0.00  0.00    +0.000 A 
ATOM      3  C   UNL     1       3.068   7.530  17.765  0.00  0.00    +0.000 A 
ATOM      4  C   UNL     1       2.089   8.076  18.614  0.00  0.00    +0.000 A 
ATOM      5  C   UNL     1       1.899   7.498  19.882  0.00  0.00    +0.000 A 
ATOM      6  C   UNL     1       2.712   6.427  20.284  0.00  0.00    +0.000 A 
ATOM      7  C   UNL     1       3.681   5.893  19.435  0.00  0.00    +0.000 A 
ATOM      8  C   UNL     1       4.570   4.763  19.867  0.00  0.00    +0.000 C 
ATOM      9  C   UNL     1       5.941   4.942  19.215  0.00  0.00    +0.000 C 
ATOM     10  N   UNL     1       5.827   4.902  17.739  0.00  0.00    +0.000 NA
ENDROOT
BRANCH  10  11
ATOM     11  S   UNL     1       7.243   4.765  16.863  0.00  0.00    +0.000 S 
ATOM     12  O   UNL     1       7.482   5.995  16.156  0.00  0.00    +0.000 OA
ATOM     13  O   UNL     1       8.244   4.121  17.672  0.00  0.00    +0.000 OA
BRANCH  11  14
ATOM     14  N   UNL     1       6.762   3.665  15.726  0.00  0.00    +0.000 NA
ATOM     15  H   UNL     1       6.856   3.952  14.759  0.00  0.00    +0.000 HD
ATOM     16  H   UNL     1       6.077   2.975  16.008  0.00  0.00    +0.000 HD
ENDBRANCH  11  14
ENDBRANCH  10  11
BRANCH   4  17
ATOM     17  O   UNL     1       1.298   9.133  18.256  0.00  0.00    +0.000 OA
ATOM     18  C   UNL     1       1.878  10.428  18.167  0.00  0.00    +0.000 C 
ENDBRANCH   4  17
BRANCH   5  19
ATOM     19  O   UNL     1       0.988   7.832  20.851  0.00  0.00    +0.000 OA
ATOM     20  C   UNL     1       1.279   8.904  21.733  0.00  0.00    +0.000 C 
ENDBRANCH   5  19
BRANCH   1  21
ATOM     21  C   UNL     1       3.796   4.628  16.342  0.00  0.00    +0.000 C 
BRANCH  21  22
ATOM     22  C   UNL     1       3.353   3.430  17.197  0.00  0.00    +0.000 C 
BRANCH  22  24
ATOM     23  C   UNL     1       1.571   2.577  18.822  0.00  0.00    +0.000 C 
ATOM     24  C   UNL     1       1.872   3.388  17.576  0.00  0.00    +0.000 C 
ENDBRANCH  22  24
ENDBRANCH  21  22
ENDBRANCH   1  21
TORSDOF 7
ENDMDL
MODEL 9
REMARK VINA RESULT:      -6.2      2.953      6.241
REMARK  Name = 
REMARK  10 active torsions:
REMARK  status: ('A' for Active; 'I' for Inactive)
REMARK    1  A    between atoms: C_1  and  C_2
REMARK    2  A    between atoms: C_2  and  C_3
REMARK    3  A    between atoms: C_3  and  C_4
REMARK    4  A    between atoms: C_4  and  C_5
REMARK    5  A    between atoms: C_8  and  O_9
REMARK    6  A    between atoms: O_9  and  C_10
REMARK    7  A    between atoms: C_11  and  O_12
REMARK    8  A    between atoms: O_12  and  C_13
REMARK    9  A    between atoms: N_18  and  S_19
REMARK   10  A    between atoms: S_19  and  N_20
REMARK                            x       y       z     vdW  Elec       q    Type
REMARK                         _______ _______ _______ _____ _____    ______ ____
ROOT
ATOM      1  C   UNL     1       3.848   3.807  17.658  0.00  0.00    +0.000 C 
ATOM      2  C   UNL     1       5.064   4.101  16.775  0.00  0.00    +0.000 A 
ATOM      3  C   UNL     1       5.148   3.604  15.460  0.00  0.00    +0.000 A 
ATOM      4  C   UNL     1       6.125   4.066  14.562  0.00  0.00    +0.000 A 
ATOM      5  C   UNL     1       7.061   5.013  15.013  0.00  0.00    +0.000 A 
ATOM      6  C   UNL     1       7.026   5.441  16.349  0.00  0.00    +0.000 A 
ATOM      7  C   UNL     1       6.052   4.976  17.234  0.00  0.00    +0.000 A 
ATOM      8  C   UNL     1       6.022   5.411  18.671  0.00  0.00    +0.000 C 
ATOM      9  C   UNL     1       5.516   4.247  19.523  0.00  0.00    +0.000 C 
ATOM     10  N   UNL     1       4.141   3.867  19.126  0.00  0.00    +0.000 NA
ENDROOT
BRANCH  10  11
ATOM     11  S   UNL     1       3.307   2.835  20.141  0.00  0.00    +0.000 S 
ATOM     12  O   UNL     1       2.294   2.146  19.387  0.00  0.00    +0.000 OA
ATOM     13  O   UNL     1       4.239   2.155  21.001  0.00  0.00    +0.000 OA
BRANCH  11  14
ATOM     14  N   UNL     1       2.513   3.945  21.075  0.00  0.00    +0.000 NA
ATOM     15  H   UNL     1       2.994   4.824  21.230  0.00  0.00    +0.000 HD
ATOM     16  H   UNL     1       1.828   3.595  21.733  0.00  0.00    +0.000 HD
ENDBRANCH  11  14
ENDBRANCH  10  11
BRANCH   4  17
ATOM     17  O   UNL     1       6.197   3.650  13.261  0.00  0.00    +0.000 OA
ATOM     18  C   UNL     1       4.991   3.437  12.539  0.00  0.00    +0.000 C 
ENDBRANCH   4  17
BRANCH   5  19
ATOM     19  O   UNL     1       8.068   5.628  14.314  0.00  0.00    +0.000 OA
ATOM     20  C   UNL     1       8.105   5.504  12.902  0.00  0.00    +0.000 C 
ENDBRANCH   5  19
BRANCH   1  21
ATOM     21  C   UNL     1       2.713   4.832  17.343  0.00  0.00    +0.000 C 
BRANCH  21  22
ATOM     22  C   UNL     1       2.719   6.050  18.281  0.00  0.00    +0.000 C 
BRANCH  22  24
ATOM     23  C   UNL     1       2.258   8.521  17.807  0.00  0.00    +0.000 C 
ATOM     24  C   UNL     1       3.224   7.360  17.675  0.00  0.00    +0.000 C 
ENDBRANCH  22  24
ENDBRANCH  21  22
ENDBRANCH   1  21
TORSDOF 7
ENDMDL
