MODEL 1
REMARK VINA RESULT:      -8.1      0.000      0.000
REMARK  Name = 
REMARK  7 active torsions:
REMARK  status: ('A' for Active; 'I' for Inactive)
REMARK    1  A    between atoms: C_1  and  C_2
REMARK    2  A    between atoms: C_2  and  C_3
REMARK    3  A    between atoms: C_14  and  C_16
REMARK    4  A    between atoms: C_16  and  O_17
REMARK    5  A    between atoms: O_17  and  C_18
REMARK    6  A    between atoms: C_18  and  C_20
REMARK    7  A    between atoms: C_20  and  C_21
REMARK                            x       y       z     vdW  Elec       q    Type
REMARK                         _______ _______ _______ _____ _____    ______ ____
ROOT
ATOM      1  C   UNL     1       2.119   9.415  17.711  0.00  0.00    +0.000 C 
ATOM      2  C   UNL     1       1.149  10.039  18.733  0.00  0.00    +0.000 C 
ATOM      3  C   UNL     1      -0.247  10.037  18.057  0.00  0.00    +0.000 C 
ATOM      4  C   UNL     1       1.601  11.521  18.863  0.00  0.00    +0.000 C 
ATOM      5  O   UNL     1       2.277  12.114  18.026  0.00  0.00    +0.000 OA
ATOM      6  N   UNL     1       1.022  12.240  19.867  0.00  0.00    +0.000 N 
ATOM      7  C   UNL     1       0.309  11.651  20.909  0.00  0.00    +0.000 A 
ATOM      8  C   UNL     1      -0.347  12.508  21.801  0.00  0.00    +0.000 A 
ATOM      9  C   UNL     1      -1.034  11.985  22.890  0.00  0.00    +0.000 A 
ATOM     10  C   UNL     1      -1.060  10.609  23.079  0.00  0.00    +0.000 A 
ATOM     11  C   UNL     1      -0.408   9.754  22.179  0.00  0.00    +0.000 A 
ATOM     12  C   UNL     1       0.306  10.251  21.077  0.00  0.00    +0.000 A 
ATOM     13  N   UNL     1       1.026   9.400  20.120  0.00  0.00    +0.000 N 
ATOM     14  C   UNL     1       1.465   8.128  20.546  0.00  0.00    +0.000 C 
ATOM     15  O   UNL     1       1.333   7.716  21.706  0.00  0.00    +0.000 OA
ATOM     16  H   UNL     1       1.188  13.238  19.855  0.00  0.00    +0.000 HD
ENDROOT
BRANCH  14  17
ATOM     17  C   UNL     1       2.161   7.180  19.562  0.00  0.00    +0.000 C 
BRANCH  17  18
ATOM     18  O   UNL     1       2.673   5.982  20.164  0.00  0.00    +0.000 OA
BRANCH  18  19
ATOM     19  C   UNL     1       2.857   4.952  19.285  0.00  0.00    +0.000 C 
ATOM     20  O   UNL     1       2.579   3.782  19.512  0.00  0.00    +0.000 OA
BRANCH  19  21
ATOM     21  C   UNL     1       3.494   5.453  18.008  0.00  0.00    +0.000 C 
BRANCH  21  22
ATOM     22  C   UNL     1       4.954   5.802  18.136  0.00  0.00    +0.000 A 
ATOM     23  C   UNL     1       5.769   5.250  19.134  0.00  0.00    +0.000 A 
ATOM     24  C   UNL     1       7.121   5.595  19.218  0.00  0.00    +0.000 A 
ATOM     25  C   UNL     1       7.682   6.474  18.294  0.00  0.00    +0.000 A 
ATOM     26  C   UNL     1       6.892   6.999  17.274  0.00  0.00    +0.000 A 
ATOM     27  C   UNL     1       5.544   6.657  17.199  0.00  0.00    +0.000 A 
ATOM     28  F   UNL     1       4.807   7.162  16.199  0.00  0.00    +0.000 F 
ENDBRANCH  21  22
ENDBRANCH  19  21
ENDBRANCH  18  19
ENDBRANCH  17  18
ENDBRANCH  14  17
TORSDOF 5
ENDMDL
MODEL 2
REMARK VINA RESULT:      -8.1      3.151      8.050
REMARK  Name = 
REMARK  7 active torsions:
REMARK  status: ('A' for Active; 'I' for Inactive)
REMARK    1  A    between atoms: C_1  and  C_2
REMARK    2  A    between atoms: C_2  and  C_3
REMARK    3  A    between atoms: C_14  and  C_16
REMARK    4  A    between atoms: C_16  and  O_17
REMARK    5  A    between atoms: O_17  and  C_18
REMARK    6  A    between atoms: C_18  and  C_20
REMARK    7  A    between atoms: C_20  and  C_21
REMARK                            x       y       z     vdW  Elec       q    Type
REMARK                         _______ _______ _______ _____ _____    ______ ____
ROOT
ATOM      1  C   UNL     1       1.893   4.135  20.594  0.00  0.00    +0.000 C 
ATOM      2  C   UNL     1       2.703   4.190  19.285  0.00  0.00    +0.000 C 
ATOM      3  C   UNL     1       1.834   3.481  18.213  0.00  0.00    +0.000 C 
ATOM      4  C   UNL     1       3.947   3.294  19.542  0.00  0.00    +0.000 C 
ATOM      5  O   UNL     1       4.009   2.433  20.415  0.00  0.00    +0.000 OA
ATOM      6  N   UNL     1       4.929   3.342  18.596  0.00  0.00    +0.000 N 
ATOM      7  C   UNL     1       4.992   4.331  17.618  0.00  0.00    +0.000 A 
ATOM      8  C   UNL     1       5.972   4.190  16.628  0.00  0.00    +0.000 A 
ATOM      9  C   UNL     1       6.120   5.169  15.652  0.00  0.00    +0.000 A 
ATOM     10  C   UNL     1       5.288   6.280  15.673  0.00  0.00    +0.000 A 
ATOM     11  C   UNL     1       4.303   6.414  16.662  0.00  0.00    +0.000 A 
ATOM     12  C   UNL     1       4.137   5.451  17.670  0.00  0.00    +0.000 A 
ATOM     13  N   UNL     1       3.138   5.556  18.743  0.00  0.00    +0.000 N 
ATOM     14  C   UNL     1       2.673   6.837  19.109  0.00  0.00    +0.000 C 
ATOM     15  O   UNL     1       3.113   7.886  18.619  0.00  0.00    +0.000 OA
ATOM     16  H   UNL     1       5.658   2.646  18.675  0.00  0.00    +0.000 HD
ENDROOT
BRANCH  14  17
ATOM     17  C   UNL     1       1.583   6.990  20.176  0.00  0.00    +0.000 C 
BRANCH  17  18
ATOM     18  O   UNL     1       1.701   8.178  20.971  0.00  0.00    +0.000 OA
BRANCH  18  19
ATOM     19  C   UNL     1       0.567   8.941  21.005  0.00  0.00    +0.000 C 
ATOM     20  O   UNL     1      -0.459   8.638  21.598  0.00  0.00    +0.000 OA
BRANCH  19  21
ATOM     21  C   UNL     1       0.743  10.190  20.172  0.00  0.00    +0.000 C 
BRANCH  21  22
ATOM     22  C   UNL     1      -0.414  10.493  19.254  0.00  0.00    +0.000 A 
ATOM     23  C   UNL     1      -0.621   9.794  18.057  0.00  0.00    +0.000 A 
ATOM     24  C   UNL     1      -1.708  10.101  17.234  0.00  0.00    +0.000 A 
ATOM     25  C   UNL     1      -2.616  11.090  17.608  0.00  0.00    +0.000 A 
ATOM     26  C   UNL     1      -2.444  11.764  18.814  0.00  0.00    +0.000 A 
ATOM     27  C   UNL     1      -1.355  11.459  19.627  0.00  0.00    +0.000 A 
ATOM     28  F   UNL     1      -1.218  12.109  20.791  0.00  0.00    +0.000 F 
ENDBRANCH  21  22
ENDBRANCH  19  21
ENDBRANCH  18  19
ENDBRANCH  17  18
ENDBRANCH  14  17
TORSDOF 5
ENDMDL
MODEL 3
REMARK VINA RESULT:      -8.1      1.047      1.271
REMARK  Name = 
REMARK  7 active torsions:
REMARK  status: ('A' for Active; 'I' for Inactive)
REMARK    1  A    between atoms: C_1  and  C_2
REMARK    2  A    between atoms: C_2  and  C_3
REMARK    3  A    between atoms: C_14  and  C_16
REMARK    4  A    between atoms: C_16  and  O_17
REMARK    5  A    between atoms: O_17  and  C_18
REMARK    6  A    between atoms: C_18  and  C_20
REMARK    7  A    between atoms: C_20  and  C_21
REMARK                            x       y       z     vdW  Elec       q    Type
REMARK                         _______ _______ _______ _____ _____    ______ ____
ROOT
ATOM      1  C   UNL     1       2.112   9.472  17.704  0.00  0.00    +0.000 C 
ATOM      2  C   UNL     1       1.135  10.052  18.745  0.00  0.00    +0.000 C 
ATOM      3  C   UNL     1      -0.264  10.036  18.077  0.00  0.00    +0.000 C 
ATOM      4  C   UNL     1       1.556  11.539  18.908  0.00  0.00    +0.000 C 
ATOM      5  O   UNL     1       2.215  12.165  18.082  0.00  0.00    +0.000 OA
ATOM      6  N   UNL     1       0.968  12.222  19.932  0.00  0.00    +0.000 N 
ATOM      7  C   UNL     1       0.274  11.594  20.963  0.00  0.00    +0.000 A 
ATOM      8  C   UNL     1      -0.394  12.416  21.879  0.00  0.00    +0.000 A 
ATOM      9  C   UNL     1      -1.064  11.853  22.959  0.00  0.00    +0.000 A 
ATOM     10  C   UNL     1      -1.060  10.473  23.115  0.00  0.00    +0.000 A 
ATOM     11  C   UNL     1      -0.396   9.653  22.192  0.00  0.00    +0.000 A 
ATOM     12  C   UNL     1       0.301  10.191  21.099  0.00  0.00    +0.000 A 
ATOM     13  N   UNL     1       1.034   9.378  20.118  0.00  0.00    +0.000 N 
ATOM     14  C   UNL     1       1.502   8.106  20.511  0.00  0.00    +0.000 C 
ATOM     15  O   UNL     1       1.385   7.663  21.662  0.00  0.00    +0.000 OA
ATOM     16  H   UNL     1       1.113  13.223  19.942  0.00  0.00    +0.000 HD
ENDROOT
BRANCH  14  17
ATOM     17  C   UNL     1       2.212   7.196  19.501  0.00  0.00    +0.000 C 
BRANCH  17  18
ATOM     18  O   UNL     1       2.957   6.126  20.099  0.00  0.00    +0.000 OA
BRANCH  18  19
ATOM     19  C   UNL     1       3.054   5.009  19.316  0.00  0.00    +0.000 C 
ATOM     20  O   UNL     1       3.188   3.869  19.740  0.00  0.00    +0.000 OA
BRANCH  19  21
ATOM     21  C   UNL     1       3.017   5.384  17.852  0.00  0.00    +0.000 C 
BRANCH  21  22
ATOM     22  C   UNL     1       4.316   5.165  17.121  0.00  0.00    +0.000 A 
ATOM     23  C   UNL     1       4.621   3.955  16.484  0.00  0.00    +0.000 A 
ATOM     24  C   UNL     1       5.835   3.792  15.812  0.00  0.00    +0.000 A 
ATOM     25  C   UNL     1       6.749   4.841  15.745  0.00  0.00    +0.000 A 
ATOM     26  C   UNL     1       6.442   6.063  16.340  0.00  0.00    +0.000 A 
ATOM     27  C   UNL     1       5.233   6.217  17.014  0.00  0.00    +0.000 A 
ATOM     28  F   UNL     1       4.951   7.407  17.565  0.00  0.00    +0.000 F 
ENDBRANCH  21  22
ENDBRANCH  19  21
ENDBRANCH  18  19
ENDBRANCH  17  18
ENDBRANCH  14  17
TORSDOF 5
ENDMDL
MODEL 4
REMARK VINA RESULT:      -8.0      3.092      7.797
REMARK  Name = 
REMARK  7 active torsions:
REMARK  status: ('A' for Active; 'I' for Inactive)
REMARK    1  A    between atoms: C_1  and  C_2
REMARK    2  A    between atoms: C_2  and  C_3
REMARK    3  A    between atoms: C_14  and  C_16
REMARK    4  A    between atoms: C_16  and  O_17
REMARK    5  A    between atoms: O_17  and  C_18
REMARK    6  A    between atoms: C_18  and  C_20
REMARK    7  A    between atoms: C_20  and  C_21
REMARK                            x       y       z     vdW  Elec       q    Type
REMARK                         _______ _______ _______ _____ _____    ______ ____
ROOT
ATOM      1  C   UNL     1       5.125   6.464  16.710  0.00  0.00    +0.000 C 
ATOM      2  C   UNL     1       4.807   5.517  17.883  0.00  0.00    +0.000 C 
ATOM      3  C   UNL     1       6.032   5.582  18.831  0.00  0.00    +0.000 C 
ATOM      4  C   UNL     1       4.777   4.095  17.256  0.00  0.00    +0.000 C 
ATOM      5  O   UNL     1       5.309   3.800  16.189  0.00  0.00    +0.000 OA
ATOM      6  N   UNL     1       4.314   3.094  18.058  0.00  0.00    +0.000 N 
ATOM      7  C   UNL     1       3.623   3.330  19.244  0.00  0.00    +0.000 A 
ATOM      8  C   UNL     1       3.319   2.219  20.040  0.00  0.00    +0.000 A 
ATOM      9  C   UNL     1       2.587   2.381  21.210  0.00  0.00    +0.000 A 
ATOM     10  C   UNL     1       2.166   3.652  21.577  0.00  0.00    +0.000 A 
ATOM     11  C   UNL     1       2.478   4.763  20.781  0.00  0.00    +0.000 A 
ATOM     12  C   UNL     1       3.203   4.632  19.586  0.00  0.00    +0.000 A 
ATOM     13  N   UNL     1       3.535   5.760  18.704  0.00  0.00    +0.000 N 
ATOM     14  C   UNL     1       2.716   6.908  18.739  0.00  0.00    +0.000 C 
ATOM     15  O   UNL     1       1.689   6.990  19.428  0.00  0.00    +0.000 OA
ATOM     16  H   UNL     1       4.445   2.151  17.715  0.00  0.00    +0.000 HD
ENDROOT
BRANCH  14  17
ATOM     17  C   UNL     1       3.062   8.134  17.887  0.00  0.00    +0.000 C 
BRANCH  17  18
ATOM     18  O   UNL     1       1.920   8.858  17.407  0.00  0.00    +0.000 OA
BRANCH  18  19
ATOM     19  C   UNL     1       1.695  10.037  18.060  0.00  0.00    +0.000 C 
ATOM     20  O   UNL     1       2.350  11.059  17.902  0.00  0.00    +0.000 OA
BRANCH  19  21
ATOM     21  C   UNL     1       0.550   9.892  19.037  0.00  0.00    +0.000 C 
BRANCH  21  22
ATOM     22  C   UNL     1      -0.778  10.380  18.515  0.00  0.00    +0.000 A 
ATOM     23  C   UNL     1      -1.407   9.794  17.409  0.00  0.00    +0.000 A 
ATOM     24  C   UNL     1      -2.640  10.273  16.958  0.00  0.00    +0.000 A 
ATOM     25  C   UNL     1      -3.273  11.323  17.620  0.00  0.00    +0.000 A 
ATOM     26  C   UNL     1      -2.677  11.887  18.745  0.00  0.00    +0.000 A 
ATOM     27  C   UNL     1      -1.445  11.411  19.186  0.00  0.00    +0.000 A 
ATOM     28  F   UNL     1      -0.897  11.959  20.281  0.00  0.00    +0.000 F 
ENDBRANCH  21  22
ENDBRANCH  19  21
ENDBRANCH  18  19
ENDBRANCH  17  18
ENDBRANCH  14  17
TORSDOF 5
ENDMDL
MODEL 5
REMARK VINA RESULT:      -8.0      3.659      7.988
REMARK  Name = 
REMARK  7 active torsions:
REMARK  status: ('A' for Active; 'I' for Inactive)
REMARK    1  A    between atoms: C_1  and  C_2
REMARK    2  A    between atoms: C_2  and  C_3
REMARK    3  A    between atoms: C_14  and  C_16
REMARK    4  A    between atoms: C_16  and  O_17
REMARK    5  A    between atoms: O_17  and  C_18
REMARK    6  A    between atoms: C_18  and  C_20
REMARK    7  A    between atoms: C_20  and  C_21
REMARK                            x       y       z     vdW  Elec       q    Type
REMARK                         _______ _______ _______ _____ _____    ______ ____
ROOT
ATOM      1  C   UNL     1       6.491   5.628  19.411  0.00  0.00    +0.000 C 
ATOM      2  C   UNL     1       6.844   5.206  17.972  0.00  0.00    +0.000 C 
ATOM      3  C   UNL     1       8.044   4.232  18.092  0.00  0.00    +0.000 C 
ATOM      4  C   UNL     1       7.362   6.503  17.288  0.00  0.00    +0.000 C 
ATOM      5  O   UNL     1       7.782   7.484  17.896  0.00  0.00    +0.000 OA
ATOM      6  N   UNL     1       7.551   6.437  15.939  0.00  0.00    +0.000 N 
ATOM      7  C   UNL     1       7.039   5.409  15.150  0.00  0.00    +0.000 A 
ATOM      8  C   UNL     1       7.415   5.389  13.802  0.00  0.00    +0.000 A 
ATOM      9  C   UNL     1       6.900   4.419  12.951  0.00  0.00    +0.000 A 
ATOM     10  C   UNL     1       6.012   3.477  13.454  0.00  0.00    +0.000 A 
ATOM     11  C   UNL     1       5.643   3.497  14.806  0.00  0.00    +0.000 A 
ATOM     12  C   UNL     1       6.135   4.471  15.689  0.00  0.00    +0.000 A 
ATOM     13  N   UNL     1       5.761   4.551  17.108  0.00  0.00    +0.000 N 
ATOM     14  C   UNL     1       4.526   4.000  17.512  0.00  0.00    +0.000 C 
ATOM     15  O   UNL     1       3.708   3.509  16.721  0.00  0.00    +0.000 OA
ATOM     16  H   UNL     1       8.037   7.218  15.518  0.00  0.00    +0.000 HD
ENDROOT
BRANCH  14  17
ATOM     17  C   UNL     1       4.125   4.000  18.992  0.00  0.00    +0.000 C 
BRANCH  17  18
ATOM     18  O   UNL     1       2.778   3.569  19.235  0.00  0.00    +0.000 OA
BRANCH  18  19
ATOM     19  C   UNL     1       2.010   4.489  19.893  0.00  0.00    +0.000 C 
ATOM     20  O   UNL     1       0.816   4.360  20.129  0.00  0.00    +0.000 OA
BRANCH  19  21
ATOM     21  C   UNL     1       2.832   5.707  20.250  0.00  0.00    +0.000 C 
BRANCH  21  22
ATOM     22  C   UNL     1       2.358   6.986  19.610  0.00  0.00    +0.000 A 
ATOM     23  C   UNL     1       2.570   7.266  18.253  0.00  0.00    +0.000 A 
ATOM     24  C   UNL     1       2.111   8.461  17.694  0.00  0.00    +0.000 A 
ATOM     25  C   UNL     1       1.413   9.381  18.474  0.00  0.00    +0.000 A 
ATOM     26  C   UNL     1       1.160   9.097  19.814  0.00  0.00    +0.000 A 
ATOM     27  C   UNL     1       1.626   7.907  20.367  0.00  0.00    +0.000 A 
ATOM     28  F   UNL     1       1.358   7.647  21.656  0.00  0.00    +0.000 F 
ENDBRANCH  21  22
ENDBRANCH  19  21
ENDBRANCH  18  19
ENDBRANCH  17  18
ENDBRANCH  14  17
TORSDOF 5
ENDMDL
MODEL 6
REMARK VINA RESULT:      -8.0      1.236      1.559
REMARK  Name = 
REMARK  7 active torsions:
REMARK  status: ('A' for Active; 'I' for Inactive)
REMARK    1  A    between atoms: C_1  and  C_2
REMARK    2  A    between atoms: C_2  and  C_3
REMARK    3  A    between atoms: C_14  and  C_16
REMARK    4  A    between atoms: C_16  and  O_17
REMARK    5  A    between atoms: O_17  and  C_18
REMARK    6  A    between atoms: C_18  and  C_20
REMARK    7  A    between atoms: C_20  and  C_21
REMARK                            x       y       z     vdW  Elec       q    Type
REMARK                         _______ _______ _______ _____ _____    ______ ____
ROOT
ATOM      1  C   UNL     1       2.079   9.488  17.842  0.00  0.00    +0.000 C 
ATOM      2  C   UNL     1       1.108  10.199  18.803  0.00  0.00    +0.000 C 
ATOM      3  C   UNL     1      -0.276  10.183  18.105  0.00  0.00    +0.000 C 
ATOM      4  C   UNL     1       1.591  11.676  18.845  0.00  0.00    +0.000 C 
ATOM      5  O   UNL     1       2.294  12.197  17.983  0.00  0.00    +0.000 OA
ATOM      6  N   UNL     1       1.013  12.472  19.790  0.00  0.00    +0.000 N 
ATOM      7  C   UNL     1       0.270  11.968  20.855  0.00  0.00    +0.000 A 
ATOM      8  C   UNL     1      -0.379  12.896  21.678  0.00  0.00    +0.000 A 
ATOM      9  C   UNL     1      -1.095  12.460  22.786  0.00  0.00    +0.000 A 
ATOM     10  C   UNL     1      -1.156  11.101  23.064  0.00  0.00    +0.000 A 
ATOM     11  C   UNL     1      -0.510  10.175  22.234  0.00  0.00    +0.000 A 
ATOM     12  C   UNL     1       0.233  10.583  21.114  0.00  0.00    +0.000 A 
ATOM     13  N   UNL     1       0.949   9.655  20.227  0.00  0.00    +0.000 N 
ATOM     14  C   UNL     1       1.351   8.404  20.742  0.00  0.00    +0.000 C 
ATOM     15  O   UNL     1       1.191   8.072  21.925  0.00  0.00    +0.000 OA
ATOM     16  H   UNL     1       1.203  13.462  19.715  0.00  0.00    +0.000 HD
ENDROOT
BRANCH  14  17
ATOM     17  C   UNL     1       2.041   7.378  19.835  0.00  0.00    +0.000 C 
BRANCH  17  18
ATOM     18  O   UNL     1       2.169   6.073  20.416  0.00  0.00    +0.000 OA
BRANCH  18  19
ATOM     19  C   UNL     1       2.277   5.064  19.500  0.00  0.00    +0.000 C 
ATOM     20  O   UNL     1       2.305   3.872  19.775  0.00  0.00    +0.000 OA
BRANCH  19  21
ATOM     21  C   UNL     1       2.401   5.628  18.103  0.00  0.00    +0.000 C 
BRANCH  21  22
ATOM     22  C   UNL     1       3.755   5.431  17.471  0.00  0.00    +0.000 A 
ATOM     23  C   UNL     1       4.751   6.416  17.516  0.00  0.00    +0.000 A 
ATOM     24  C   UNL     1       5.996   6.195  16.922  0.00  0.00    +0.000 A 
ATOM     25  C   UNL     1       6.273   4.980  16.299  0.00  0.00    +0.000 A 
ATOM     26  C   UNL     1       5.306   3.977  16.282  0.00  0.00    +0.000 A 
ATOM     27  C   UNL     1       4.064   4.207  16.870  0.00  0.00    +0.000 A 
ATOM     28  F   UNL     1       3.153   3.222  16.855  0.00  0.00    +0.000 F 
ENDBRANCH  21  22
ENDBRANCH  19  21
ENDBRANCH  18  19
ENDBRANCH  17  18
ENDBRANCH  14  17
TORSDOF 5
ENDMDL
MODEL 7
REMARK VINA RESULT:      -8.0      3.334      7.945
REMARK  Name = 
REMARK  7 active torsions:
REMARK  status: ('A' for Active; 'I' for Inactive)
REMARK    1  A    between atoms: C_1  and  C_2
REMARK    2  A    between atoms: C_2  and  C_3
REMARK    3  A    between atoms: C_14  and  C_16
REMARK    4  A    between atoms: C_16  and  O_17
REMARK    5  A    between atoms: O_17  and  C_18
REMARK    6  A    between atoms: C_18  and  C_20
REMARK    7  A    between atoms: C_20  and  C_21
REMARK                            x       y       z     vdW  Elec       q    Type
REMARK                         _______ _______ _______ _____ _____    ______ ____
ROOT
ATOM      1  C   UNL     1       6.309   5.645  19.257  0.00  0.00    +0.000 C 
ATOM      2  C   UNL     1       6.727   5.221  17.836  0.00  0.00    +0.000 C 
ATOM      3  C   UNL     1       7.909   4.233  18.012  0.00  0.00    +0.000 C 
ATOM      4  C   UNL     1       7.293   6.513  17.182  0.00  0.00    +0.000 C 
ATOM      5  O   UNL     1       7.694   7.488  17.811  0.00  0.00    +0.000 OA
ATOM      6  N   UNL     1       7.547   6.447  15.843  0.00  0.00    +0.000 N 
ATOM      7  C   UNL     1       7.062   5.426  15.028  0.00  0.00    +0.000 A 
ATOM      8  C   UNL     1       7.504   5.404  13.700  0.00  0.00    +0.000 A 
ATOM      9  C   UNL     1       7.019   4.441  12.822  0.00  0.00    +0.000 A 
ATOM     10  C   UNL     1       6.097   3.509  13.279  0.00  0.00    +0.000 A 
ATOM     11  C   UNL     1       5.662   3.531  14.612  0.00  0.00    +0.000 A 
ATOM     12  C   UNL     1       6.122   4.498  15.520  0.00  0.00    +0.000 A 
ATOM     13  N   UNL     1       5.680   4.580  16.919  0.00  0.00    +0.000 N 
ATOM     14  C   UNL     1       4.421   4.043  17.261  0.00  0.00    +0.000 C 
ATOM     15  O   UNL     1       3.637   3.563  16.430  0.00  0.00    +0.000 OA
ATOM     16  H   UNL     1       8.062   7.222  15.448  0.00  0.00    +0.000 HD
ENDROOT
BRANCH  14  17
ATOM     17  C   UNL     1       3.947   4.045  18.720  0.00  0.00    +0.000 C 
BRANCH  17  18
ATOM     18  O   UNL     1       2.522   4.016  18.874  0.00  0.00    +0.000 OA
BRANCH  18  19
ATOM     19  C   UNL     1       2.058   4.778  19.909  0.00  0.00    +0.000 C 
ATOM     20  O   UNL     1       1.067   4.519  20.578  0.00  0.00    +0.000 OA
BRANCH  19  21
ATOM     21  C   UNL     1       2.915   6.012  20.084  0.00  0.00    +0.000 C 
BRANCH  21  22
ATOM     22  C   UNL     1       2.259   7.293  19.639  0.00  0.00    +0.000 A 
ATOM     23  C   UNL     1       1.510   8.092  20.513  0.00  0.00    +0.000 A 
ATOM     24  C   UNL     1       0.919   9.277  20.064  0.00  0.00    +0.000 A 
ATOM     25  C   UNL     1       1.090   9.692  18.745  0.00  0.00    +0.000 A 
ATOM     26  C   UNL     1       1.865   8.927  17.876  0.00  0.00    +0.000 A 
ATOM     27  C   UNL     1       2.445   7.745  18.328  0.00  0.00    +0.000 A 
ATOM     28  F   UNL     1       3.200   7.033  17.478  0.00  0.00    +0.000 F 
ENDBRANCH  21  22
ENDBRANCH  19  21
ENDBRANCH  18  19
ENDBRANCH  17  18
ENDBRANCH  14  17
TORSDOF 5
ENDMDL
MODEL 8
REMARK VINA RESULT:      -8.0      1.279      1.554
REMARK  Name = 
REMARK  7 active torsions:
REMARK  status: ('A' for Active; 'I' for Inactive)
REMARK    1  A    between atoms: C_1  and  C_2
REMARK    2  A    between atoms: C_2  and  C_3
REMARK    3  A    between atoms: C_14  and  C_16
REMARK    4  A    between atoms: C_16  and  O_17
REMARK    5  A    between atoms: O_17  and  C_18
REMARK    6  A    between atoms: C_18  and  C_20
REMARK    7  A    between atoms: C_20  and  C_21
REMARK                            x       y       z     vdW  Elec       q    Type
REMARK                         _______ _______ _______ _____ _____    ______ ____
ROOT
ATOM      1  C   UNL     1       2.115   9.428  17.734  0.00  0.00    +0.000 C 
ATOM      2  C   UNL     1       1.124   9.993  18.771  0.00  0.00    +0.000 C 
ATOM      3  C   UNL     1      -0.276   9.927  18.107  0.00  0.00    +0.000 C 
ATOM      4  C   UNL     1       1.502  11.494  18.913  0.00  0.00    +0.000 C 
ATOM      5  O   UNL     1       2.140  12.128  18.076  0.00  0.00    +0.000 OA
ATOM      6  N   UNL     1       0.897  12.173  19.929  0.00  0.00    +0.000 N 
ATOM      7  C   UNL     1       0.224  11.539  20.971  0.00  0.00    +0.000 A 
ATOM      8  C   UNL     1      -0.465  12.353  21.877  0.00  0.00    +0.000 A 
ATOM      9  C   UNL     1      -1.115  11.785  22.967  0.00  0.00    +0.000 A 
ATOM     10  C   UNL     1      -1.071  10.409  23.142  0.00  0.00    +0.000 A 
ATOM     11  C   UNL     1      -0.385   9.596  22.228  0.00  0.00    +0.000 A 
ATOM     12  C   UNL     1       0.293  10.139  21.125  0.00  0.00    +0.000 A 
ATOM     13  N   UNL     1       1.047   9.335  20.153  0.00  0.00    +0.000 N 
ATOM     14  C   UNL     1       1.552   8.082  20.561  0.00  0.00    +0.000 C 
ATOM     15  O   UNL     1       1.452   7.652  21.718  0.00  0.00    +0.000 OA
ATOM     16  H   UNL     1       1.013  13.178  19.925  0.00  0.00    +0.000 HD
ENDROOT
BRANCH  14  17
ATOM     17  C   UNL     1       2.286   7.180  19.562  0.00  0.00    +0.000 C 
BRANCH  17  18
ATOM     18  O   UNL     1       1.865   5.808  19.591  0.00  0.00    +0.000 OA
BRANCH  18  19
ATOM     19  C   UNL     1       2.893   4.909  19.544  0.00  0.00    +0.000 C 
ATOM     20  O   UNL     1       2.762   3.694  19.610  0.00  0.00    +0.000 OA
BRANCH  19  21
ATOM     21  C   UNL     1       4.220   5.627  19.443  0.00  0.00    +0.000 C 
BRANCH  21  22
ATOM     22  C   UNL     1       5.060   5.217  18.261  0.00  0.00    +0.000 A 
ATOM     23  C   UNL     1       4.509   5.002  16.991  0.00  0.00    +0.000 A 
ATOM     24  C   UNL     1       5.321   4.627  15.918  0.00  0.00    +0.000 A 
ATOM     25  C   UNL     1       6.697   4.486  16.092  0.00  0.00    +0.000 A 
ATOM     26  C   UNL     1       7.263   4.736  17.340  0.00  0.00    +0.000 A 
ATOM     27  C   UNL     1       6.447   5.103  18.407  0.00  0.00    +0.000 A 
ATOM     28  F   UNL     1       7.016   5.353  19.596  0.00  0.00    +0.000 F 
ENDBRANCH  21  22
ENDBRANCH  19  21
ENDBRANCH  18  19
ENDBRANCH  17  18
ENDBRANCH  14  17
TORSDOF 5
ENDMDL
MODEL 9
REMARK VINA RESULT:      -8.0      2.740      7.946
REMARK  Name = 
REMARK  7 active torsions:
REMARK  status: ('A' for Active; 'I' for Inactive)
REMARK    1  A    between atoms: C_1  and  C_2
REMARK    2  A    between atoms: C_2  and  C_3
REMARK    3  A    between atoms: C_14  and  C_16
REMARK    4  A    between atoms: C_16  and  O_17
REMARK    5  A    between atoms: O_17  and  C_18
REMARK    6  A    between atoms: C_18  and  C_20
REMARK    7  A    between atoms: C_20  and  C_21
REMARK                            x       y       z     vdW  Elec       q    Type
REMARK                         _______ _______ _______ _____ _____    ______ ____
ROOT
ATOM      1  C   UNL     1       1.700   4.362  20.329  0.00  0.00    +0.000 C 
ATOM      2  C   UNL     1       2.607   4.368  19.083  0.00  0.00    +0.000 C 
ATOM      3  C   UNL     1       1.808   3.647  17.967  0.00  0.00    +0.000 C 
ATOM      4  C   UNL     1       3.810   3.457  19.457  0.00  0.00    +0.000 C 
ATOM      5  O   UNL     1       3.789   2.618  20.353  0.00  0.00    +0.000 OA
ATOM      6  N   UNL     1       4.861   3.462  18.587  0.00  0.00    +0.000 N 
ATOM      7  C   UNL     1       5.018   4.424  17.592  0.00  0.00    +0.000 A 
ATOM      8  C   UNL     1       6.067   4.239  16.683  0.00  0.00    +0.000 A 
ATOM      9  C   UNL     1       6.308   5.189  15.697  0.00  0.00    +0.000 A 
ATOM     10  C   UNL     1       5.499   6.316  15.628  0.00  0.00    +0.000 A 
ATOM     11  C   UNL     1       4.445   6.493  16.536  0.00  0.00    +0.000 A 
ATOM     12  C   UNL     1       4.184   5.560  17.551  0.00  0.00    +0.000 A 
ATOM     13  N   UNL     1       3.109   5.711  18.542  0.00  0.00    +0.000 N 
ATOM     14  C   UNL     1       2.644   7.010  18.840  0.00  0.00    +0.000 C 
ATOM     15  O   UNL     1       3.140   8.038  18.358  0.00  0.00    +0.000 OA
ATOM     16  H   UNL     1       5.569   2.756  18.739  0.00  0.00    +0.000 HD
ENDROOT
BRANCH  14  17
ATOM     17  C   UNL     1       1.479   7.210  19.817  0.00  0.00    +0.000 C 
BRANCH  17  18
ATOM     18  O   UNL     1       1.726   8.194  20.831  0.00  0.00    +0.000 OA
BRANCH  18  19
ATOM     19  C   UNL     1       0.684   9.054  21.039  0.00  0.00    +0.000 C 
ATOM     20  O   UNL     1      -0.257   8.841  21.792  0.00  0.00    +0.000 OA
BRANCH  19  21
ATOM     21  C   UNL     1       0.834  10.287  20.176  0.00  0.00    +0.000 C 
BRANCH  21  22
ATOM     22  C   UNL     1      -0.420  10.688  19.443  0.00  0.00    +0.000 A 
ATOM     23  C   UNL     1      -1.301  11.657  19.944  0.00  0.00    +0.000 A 
ATOM     24  C   UNL     1      -2.452  12.006  19.233  0.00  0.00    +0.000 A 
ATOM     25  C   UNL     1      -2.725  11.413  18.001  0.00  0.00    +0.000 A 
ATOM     26  C   UNL     1      -1.837  10.479  17.473  0.00  0.00    +0.000 A 
ATOM     27  C   UNL     1      -0.695  10.130  18.190  0.00  0.00    +0.000 A 
ATOM     28  F   UNL     1       0.154   9.240  17.655  0.00  0.00    +0.000 F 
ENDBRANCH  21  22
ENDBRANCH  19  21
ENDBRANCH  18  19
ENDBRANCH  17  18
ENDBRANCH  14  17
TORSDOF 5
ENDMDL
