MODEL 1
REMARK VINA RESULT:      -7.2      0.000      0.000
REMARK  Name = 
REMARK  5 active torsions:
REMARK  status: ('A' for Active; 'I' for Inactive)
REMARK    1  A    between atoms: N_2  and  C_4
REMARK    2  A    between atoms: C_7  and  O_8
REMARK    3  A    between atoms: O_8  and  S_9
REMARK    4  A    between atoms: S_9  and  C_12
REMARK    5  A    between atoms: C_12  and  C_13
REMARK                            x       y       z     vdW  Elec       q    Type
REMARK                         _______ _______ _______ _____ _____    ______ ____
ROOT
ATOM      1  O   UNL     1       4.329   4.837  16.418  0.00  0.00    +0.000 OA
ENDROOT
BRANCH   1   5
ATOM      2  C   UNL     1       2.545   3.643  20.004  0.00  0.00    +0.000 A 
ATOM      3  C   UNL     1       3.717   3.025  19.543  0.00  0.00    +0.000 A 
ATOM      4  C   UNL     1       4.303   3.461  18.346  0.00  0.00    +0.000 A 
ATOM      5  C   UNL     1       3.717   4.493  17.604  0.00  0.00    +0.000 A 
ATOM      6  C   UNL     1       2.570   5.125  18.098  0.00  0.00    +0.000 A 
ATOM      7  C   UNL     1       1.977   4.700  19.289  0.00  0.00    +0.000 A 
BRANCH   2   9
ATOM      8  O   UNL     1       2.567   3.218  22.285  0.00  0.00    +0.000 OA
ATOM      9  N   UNL     1       1.901   3.177  21.241  0.00  0.00    +0.000 N 
ATOM     10  O   UNL     1       0.735   2.768  21.164  0.00  0.00    +0.000 OA
ENDBRANCH   2   9
ENDBRANCH   1   5
BRANCH   1  11
ATOM     11  S   UNL     1       5.449   6.037  16.393  0.00  0.00    +0.000 S 
ATOM     12  O   UNL     1       5.155   6.901  15.265  0.00  0.00    +0.000 OA
ATOM     13  O   UNL     1       5.593   6.556  17.740  0.00  0.00    +0.000 OA
BRANCH  11  14
ATOM     14  C   UNL     1       6.893   5.039  16.011  0.00  0.00    +0.000 C 
BRANCH  14  15
ATOM     15  C   UNL     1       6.880   4.747  14.527  0.00  0.00    +0.000 A 
ATOM     16  C   UNL     1       6.037   3.757  13.999  0.00  0.00    +0.000 A 
ATOM     17  C   UNL     1       6.077   3.442  12.638  0.00  0.00    +0.000 A 
ATOM     18  C   UNL     1       6.957   4.112  11.791  0.00  0.00    +0.000 A 
ATOM     19  C   UNL     1       7.795   5.099  12.302  0.00  0.00    +0.000 A 
ATOM     20  C   UNL     1       7.758   5.416  13.662  0.00  0.00    +0.000 A 
ENDBRANCH  14  15
ENDBRANCH  11  14
ENDBRANCH   1  11
TORSDOF 5
ENDMDL
MODEL 2
REMARK VINA RESULT:      -7.1      1.204      1.792
REMARK  Name = 
REMARK  5 active torsions:
REMARK  status: ('A' for Active; 'I' for Inactive)
REMARK    1  A    between atoms: N_2  and  C_4
REMARK    2  A    between atoms: C_7  and  O_8
REMARK    3  A    between atoms: O_8  and  S_9
REMARK    4  A    between atoms: S_9  and  C_12
REMARK    5  A    between atoms: C_12  and  C_13
REMARK                            x       y       z     vdW  Elec       q    Type
REMARK                         _______ _______ _______ _____ _____    ______ ____
ROOT
ATOM      1  O   UNL     1       5.921   6.138  18.183  0.00  0.00    +0.000 OA
ENDROOT
BRANCH   1   5
ATOM      2  C   UNL     1       2.573   3.745  18.915  0.00  0.00    +0.000 A 
ATOM      3  C   UNL     1       2.450   4.966  18.234  0.00  0.00    +0.000 A 
ATOM      4  C   UNL     1       3.594   5.738  17.986  0.00  0.00    +0.000 A 
ATOM      5  C   UNL     1       4.850   5.305  18.428  0.00  0.00    +0.000 A 
ATOM      6  C   UNL     1       4.961   4.066  19.070  0.00  0.00    +0.000 A 
ATOM      7  C   UNL     1       3.828   3.289  19.323  0.00  0.00    +0.000 A 
BRANCH   2   9
ATOM      8  O   UNL     1       1.099   2.741  20.400  0.00  0.00    +0.000 OA
ATOM      9  N   UNL     1       1.379   2.939  19.210  0.00  0.00    +0.000 N 
ATOM     10  O   UNL     1       0.728   2.503  18.251  0.00  0.00    +0.000 OA
ENDBRANCH   2   9
ENDBRANCH   1   5
BRANCH   1  11
ATOM     11  S   UNL     1       6.445   6.365  16.643  0.00  0.00    +0.000 S 
ATOM     12  O   UNL     1       5.320   6.821  15.849  0.00  0.00    +0.000 OA
ATOM     13  O   UNL     1       7.698   7.096  16.690  0.00  0.00    +0.000 OA
BRANCH  11  14
ATOM     14  C   UNL     1       6.801   4.653  16.233  0.00  0.00    +0.000 C 
BRANCH  14  15
ATOM     15  C   UNL     1       6.772   4.516  14.727  0.00  0.00    +0.000 A 
ATOM     16  C   UNL     1       5.850   3.661  14.103  0.00  0.00    +0.000 A 
ATOM     17  C   UNL     1       5.870   3.485  12.718  0.00  0.00    +0.000 A 
ATOM     18  C   UNL     1       6.809   4.161  11.941  0.00  0.00    +0.000 A 
ATOM     19  C   UNL     1       7.725   5.015  12.548  0.00  0.00    +0.000 A 
ATOM     20  C   UNL     1       7.708   5.192  13.933  0.00  0.00    +0.000 A 
ENDBRANCH  14  15
ENDBRANCH  11  14
ENDBRANCH   1  11
TORSDOF 5
ENDMDL
MODEL 3
REMARK VINA RESULT:      -7.1      1.445      2.335
REMARK  Name = 
REMARK  5 active torsions:
REMARK  status: ('A' for Active; 'I' for Inactive)
REMARK    1  A    between atoms: N_2  and  C_4
REMARK    2  A    between atoms: C_7  and  O_8
REMARK    3  A    between atoms: O_8  and  S_9
REMARK    4  A    between atoms: S_9  and  C_12
REMARK    5  A    between atoms: C_12  and  C_13
REMARK                            x       y       z     vdW  Elec       q    Type
REMARK                         _______ _______ _______ _____ _____    ______ ____
ROOT
ATOM      1  O   UNL     1       6.072   5.975  18.271  0.00  0.00    +0.000 OA
ENDROOT
BRANCH   1   5
ATOM      2  C   UNL     1       2.581   3.792  18.992  0.00  0.00    +0.000 A 
ATOM      3  C   UNL     1       2.520   5.132  18.583  0.00  0.00    +0.000 A 
ATOM      4  C   UNL     1       3.708   5.833  18.330  0.00  0.00    +0.000 A 
ATOM      5  C   UNL     1       4.949   5.208  18.499  0.00  0.00    +0.000 A 
ATOM      6  C   UNL     1       4.992   3.859  18.870  0.00  0.00    +0.000 A 
ATOM      7  C   UNL     1       3.815   3.151  19.125  0.00  0.00    +0.000 A 
BRANCH   2   9
ATOM      8  O   UNL     1       0.701   2.601  18.335  0.00  0.00    +0.000 OA
ATOM      9  N   UNL     1       1.346   3.053  19.291  0.00  0.00    +0.000 N 
ATOM     10  O   UNL     1       1.022   2.930  20.481  0.00  0.00    +0.000 OA
ENDBRANCH   2   9
ENDBRANCH   1   5
BRANCH   1  11
ATOM     11  S   UNL     1       6.964   5.735  16.914  0.00  0.00    +0.000 S 
ATOM     12  O   UNL     1       7.711   6.950  16.647  0.00  0.00    +0.000 OA
ATOM     13  O   UNL     1       7.616   4.442  17.018  0.00  0.00    +0.000 OA
BRANCH  11  14
ATOM     14  C   UNL     1       5.616   5.599  15.735  0.00  0.00    +0.000 C 
BRANCH  14  15
ATOM     15  C   UNL     1       6.162   4.974  14.470  0.00  0.00    +0.000 A 
ATOM     16  C   UNL     1       7.341   5.459  13.883  0.00  0.00    +0.000 A 
ATOM     17  C   UNL     1       7.806   4.925  12.679  0.00  0.00    +0.000 A 
ATOM     18  C   UNL     1       7.100   3.902  12.049  0.00  0.00    +0.000 A 
ATOM     19  C   UNL     1       5.932   3.410  12.624  0.00  0.00    +0.000 A 
ATOM     20  C   UNL     1       5.464   3.942  13.828  0.00  0.00    +0.000 A 
ENDBRANCH  14  15
ENDBRANCH  11  14
ENDBRANCH   1  11
TORSDOF 5
ENDMDL
MODEL 4
REMARK VINA RESULT:      -7.1      3.119      6.991
REMARK  Name = 
REMARK  5 active torsions:
REMARK  status: ('A' for Active; 'I' for Inactive)
REMARK    1  A    between atoms: N_2  and  C_4
REMARK    2  A    between atoms: C_7  and  O_8
REMARK    3  A    between atoms: O_8  and  S_9
REMARK    4  A    between atoms: S_9  and  C_12
REMARK    5  A    between atoms: C_12  and  C_13
REMARK                            x       y       z     vdW  Elec       q    Type
REMARK                         _______ _______ _______ _____ _____    ______ ____
ROOT
ATOM      1  O   UNL     1       5.758   5.920  17.663  0.00  0.00    +0.000 OA
ENDROOT
BRANCH   1   5
ATOM      2  C   UNL     1       6.290   4.251  13.868  0.00  0.00    +0.000 A 
ATOM      3  C   UNL     1       7.387   4.711  14.613  0.00  0.00    +0.000 A 
ATOM      4  C   UNL     1       7.179   5.249  15.891  0.00  0.00    +0.000 A 
ATOM      5  C   UNL     1       5.886   5.342  16.418  0.00  0.00    +0.000 A 
ATOM      6  C   UNL     1       4.807   4.842  15.680  0.00  0.00    +0.000 A 
ATOM      7  C   UNL     1       5.002   4.305  14.405  0.00  0.00    +0.000 A 
BRANCH   2   9
ATOM      8  O   UNL     1       7.365   4.235  11.812  0.00  0.00    +0.000 OA
ATOM      9  N   UNL     1       6.488   3.713  12.515  0.00  0.00    +0.000 N 
ATOM     10  O   UNL     1       5.765   2.773  12.157  0.00  0.00    +0.000 OA
ENDBRANCH   2   9
ENDBRANCH   1   5
BRANCH   1  11
ATOM     11  S   UNL     1       5.480   4.977  18.978  0.00  0.00    +0.000 S 
ATOM     12  O   UNL     1       5.153   3.642  18.512  0.00  0.00    +0.000 OA
ATOM     13  O   UNL     1       6.539   5.215  19.943  0.00  0.00    +0.000 OA
BRANCH  11  14
ATOM     14  C   UNL     1       3.985   5.780  19.565  0.00  0.00    +0.000 C 
BRANCH  14  15
ATOM     15  C   UNL     1       2.865   4.764  19.532  0.00  0.00    +0.000 A 
ATOM     16  C   UNL     1       2.505   4.056  20.690  0.00  0.00    +0.000 A 
ATOM     17  C   UNL     1       1.517   3.070  20.640  0.00  0.00    +0.000 A 
ATOM     18  C   UNL     1       0.877   2.780  19.437  0.00  0.00    +0.000 A 
ATOM     19  C   UNL     1       1.222   3.479  18.283  0.00  0.00    +0.000 A 
ATOM     20  C   UNL     1       2.210   4.465  18.329  0.00  0.00    +0.000 A 
ENDBRANCH  14  15
ENDBRANCH  11  14
ENDBRANCH   1  11
TORSDOF 5
ENDMDL
MODEL 5
REMARK VINA RESULT:      -7.1      0.153      1.683
REMARK  Name = 
REMARK  5 active torsions:
REMARK  status: ('A' for Active; 'I' for Inactive)
REMARK    1  A    between atoms: N_2  and  C_4
REMARK    2  A    between atoms: C_7  and  O_8
REMARK    3  A    between atoms: O_8  and  S_9
REMARK    4  A    between atoms: S_9  and  C_12
REMARK    5  A    between atoms: C_12  and  C_13
REMARK                            x       y       z     vdW  Elec       q    Type
REMARK                         _______ _______ _______ _____ _____    ______ ____
ROOT
ATOM      1  O   UNL     1       4.305   4.730  16.439  0.00  0.00    +0.000 OA
ENDROOT
BRANCH   1   5
ATOM      2  C   UNL     1       2.523   3.563  20.036  0.00  0.00    +0.000 A 
ATOM      3  C   UNL     1       1.947   4.563  19.238  0.00  0.00    +0.000 A 
ATOM      4  C   UNL     1       2.558   4.919  18.027  0.00  0.00    +0.000 A 
ATOM      5  C   UNL     1       3.743   4.296  17.621  0.00  0.00    +0.000 A 
ATOM      6  C   UNL     1       4.284   3.272  18.408  0.00  0.00    +0.000 A 
ATOM      7  C   UNL     1       3.684   2.909  19.617  0.00  0.00    +0.000 A 
BRANCH   2   9
ATOM      8  O   UNL     1       0.793   2.668  21.297  0.00  0.00    +0.000 OA
ATOM      9  N   UNL     1       1.912   3.199  21.323  0.00  0.00    +0.000 N 
ATOM     10  O   UNL     1       2.551   3.450  22.354  0.00  0.00    +0.000 OA
ENDBRANCH   2   9
ENDBRANCH   1   5
BRANCH   1  11
ATOM     11  S   UNL     1       5.416   5.938  16.458  0.00  0.00    +0.000 S 
ATOM     12  O   UNL     1       5.162   6.799  15.317  0.00  0.00    +0.000 OA
ATOM     13  O   UNL     1       5.501   6.461  17.809  0.00  0.00    +0.000 OA
BRANCH  11  14
ATOM     14  C   UNL     1       6.882   4.951  16.136  0.00  0.00    +0.000 C 
BRANCH  14  15
ATOM     15  C   UNL     1       6.936   4.663  14.653  0.00  0.00    +0.000 A 
ATOM     16  C   UNL     1       7.798   5.388  13.814  0.00  0.00    +0.000 A 
ATOM     17  C   UNL     1       7.797   5.167  12.435  0.00  0.00    +0.000 A 
ATOM     18  C   UNL     1       6.938   4.222  11.878  0.00  0.00    +0.000 A 
ATOM     19  C   UNL     1       6.082   3.494  12.700  0.00  0.00    +0.000 A 
ATOM     20  C   UNL     1       6.080   3.713  14.080  0.00  0.00    +0.000 A 
ENDBRANCH  14  15
ENDBRANCH  11  14
ENDBRANCH   1  11
TORSDOF 5
ENDMDL
MODEL 6
REMARK VINA RESULT:      -7.0      3.310      6.633
REMARK  Name = 
REMARK  5 active torsions:
REMARK  status: ('A' for Active; 'I' for Inactive)
REMARK    1  A    between atoms: N_2  and  C_4
REMARK    2  A    between atoms: C_7  and  O_8
REMARK    3  A    between atoms: O_8  and  S_9
REMARK    4  A    between atoms: S_9  and  C_12
REMARK    5  A    between atoms: C_12  and  C_13
REMARK                            x       y       z     vdW  Elec       q    Type
REMARK                         _______ _______ _______ _____ _____    ______ ____
ROOT
ATOM      1  O   UNL     1       3.104   3.181  19.224  0.00  0.00    +0.000 OA
ENDROOT
BRANCH   1   5
ATOM      2  C   UNL     1       6.114   4.785  16.806  0.00  0.00    +0.000 A 
ATOM      3  C   UNL     1       6.288   4.675  18.194  0.00  0.00    +0.000 A 
ATOM      4  C   UNL     1       5.267   4.115  18.977  0.00  0.00    +0.000 A 
ATOM      5  C   UNL     1       4.076   3.682  18.383  0.00  0.00    +0.000 A 
ATOM      6  C   UNL     1       3.934   3.762  16.993  0.00  0.00    +0.000 A 
ATOM      7  C   UNL     1       4.944   4.318  16.204  0.00  0.00    +0.000 A 
BRANCH   2   9
ATOM      8  O   UNL     1       7.563   4.758  14.994  0.00  0.00    +0.000 OA
ATOM      9  N   UNL     1       7.161   5.398  15.976  0.00  0.00    +0.000 N 
ATOM     10  O   UNL     1       7.581   6.514  16.311  0.00  0.00    +0.000 OA
ENDBRANCH   2   9
ENDBRANCH   1   5
BRANCH   1  11
ATOM     11  S   UNL     1       1.850   4.135  19.683  0.00  0.00    +0.000 S 
ATOM     12  O   UNL     1       1.171   4.592  18.485  0.00  0.00    +0.000 OA
ATOM     13  O   UNL     1       1.141   3.471  20.761  0.00  0.00    +0.000 OA
BRANCH  11  14
ATOM     14  C   UNL     1       2.796   5.495  20.379  0.00  0.00    +0.000 C 
BRANCH  14  15
ATOM     15  C   UNL     1       2.391   6.762  19.660  0.00  0.00    +0.000 A 
ATOM     16  C   UNL     1       2.873   7.041  18.371  0.00  0.00    +0.000 A 
ATOM     17  C   UNL     1       2.552   8.243  17.738  0.00  0.00    +0.000 A 
ATOM     18  C   UNL     1       1.747   9.180  18.382  0.00  0.00    +0.000 A 
ATOM     19  C   UNL     1       1.259   8.914  19.659  0.00  0.00    +0.000 A 
ATOM     20  C   UNL     1       1.579   7.712  20.295  0.00  0.00    +0.000 A 
ENDBRANCH  14  15
ENDBRANCH  11  14
ENDBRANCH   1  11
TORSDOF 5
ENDMDL
MODEL 7
REMARK VINA RESULT:      -6.9      3.275      6.608
REMARK  Name = 
REMARK  5 active torsions:
REMARK  status: ('A' for Active; 'I' for Inactive)
REMARK    1  A    between atoms: N_2  and  C_4
REMARK    2  A    between atoms: C_7  and  O_8
REMARK    3  A    between atoms: O_8  and  S_9
REMARK    4  A    between atoms: S_9  and  C_12
REMARK    5  A    between atoms: C_12  and  C_13
REMARK                            x       y       z     vdW  Elec       q    Type
REMARK                         _______ _______ _______ _____ _____    ______ ____
ROOT
ATOM      1  O   UNL     1       3.149   3.077  18.920  0.00  0.00    +0.000 OA
ENDROOT
BRANCH   1   5
ATOM      2  C   UNL     1       6.185   4.942  16.733  0.00  0.00    +0.000 A 
ATOM      3  C   UNL     1       6.318   4.730  18.113  0.00  0.00    +0.000 A 
ATOM      4  C   UNL     1       5.291   4.085  18.816  0.00  0.00    +0.000 A 
ATOM      5  C   UNL     1       4.132   3.667  18.153  0.00  0.00    +0.000 A 
ATOM      6  C   UNL     1       4.031   3.850  16.769  0.00  0.00    +0.000 A 
ATOM      7  C   UNL     1       5.048   4.492  16.058  0.00  0.00    +0.000 A 
BRANCH   2   9
ATOM      8  O   UNL     1       7.747   6.644  16.515  0.00  0.00    +0.000 OA
ATOM      9  N   UNL     1       7.239   5.645  15.987  0.00  0.00    +0.000 N 
ATOM     10  O   UNL     1       7.552   5.198  14.875  0.00  0.00    +0.000 OA
ENDBRANCH   2   9
ENDBRANCH   1   5
BRANCH   1  11
ATOM     11  S   UNL     1       1.865   3.965  19.427  0.00  0.00    +0.000 S 
ATOM     12  O   UNL     1       1.246   4.567  18.261  0.00  0.00    +0.000 OA
ATOM     13  O   UNL     1       1.105   3.170  20.374  0.00  0.00    +0.000 OA
BRANCH  11  14
ATOM     14  C   UNL     1       2.763   5.228  20.336  0.00  0.00    +0.000 C 
BRANCH  14  15
ATOM     15  C   UNL     1       2.429   6.571  19.726  0.00  0.00    +0.000 A 
ATOM     16  C   UNL     1       1.606   7.482  20.407  0.00  0.00    +0.000 A 
ATOM     17  C   UNL     1       1.243   8.692  19.811  0.00  0.00    +0.000 A 
ATOM     18  C   UNL     1       1.698   9.007  18.532  0.00  0.00    +0.000 A 
ATOM     19  C   UNL     1       2.518   8.113  17.849  0.00  0.00    +0.000 A 
ATOM     20  C   UNL     1       2.882   6.901  18.441  0.00  0.00    +0.000 A 
ENDBRANCH  14  15
ENDBRANCH  11  14
ENDBRANCH   1  11
TORSDOF 5
ENDMDL
MODEL 8
REMARK VINA RESULT:      -6.9      0.987      2.013
REMARK  Name = 
REMARK  5 active torsions:
REMARK  status: ('A' for Active; 'I' for Inactive)
REMARK    1  A    between atoms: N_2  and  C_4
REMARK    2  A    between atoms: C_7  and  O_8
REMARK    3  A    between atoms: O_8  and  S_9
REMARK    4  A    between atoms: S_9  and  C_12
REMARK    5  A    between atoms: C_12  and  C_13
REMARK                            x       y       z     vdW  Elec       q    Type
REMARK                         _______ _______ _______ _____ _____    ______ ____
ROOT
ATOM      1  O   UNL     1       5.969   5.772  18.497  0.00  0.00    +0.000 OA
ENDROOT
BRANCH   1   5
ATOM      2  C   UNL     1       2.800   3.685  20.252  0.00  0.00    +0.000 A 
ATOM      3  C   UNL     1       2.763   5.082  20.132  0.00  0.00    +0.000 A 
ATOM      4  C   UNL     1       3.833   5.753  19.521  0.00  0.00    +0.000 A 
ATOM      5  C   UNL     1       4.939   5.039  19.047  0.00  0.00    +0.000 A 
ATOM      6  C   UNL     1       4.943   3.642  19.139  0.00  0.00    +0.000 A 
ATOM      7  C   UNL     1       3.884   2.963  19.745  0.00  0.00    +0.000 A 
BRANCH   2   9
ATOM      8  O   UNL     1       0.639   2.842  20.293  0.00  0.00    +0.000 OA
ATOM      9  N   UNL     1       1.702   2.970  20.917  0.00  0.00    +0.000 N 
ATOM     10  O   UNL     1       1.903   2.543  22.062  0.00  0.00    +0.000 OA
ENDBRANCH   2   9
ENDBRANCH   1   5
BRANCH   1  11
ATOM     11  S   UNL     1       6.001   6.050  16.879  0.00  0.00    +0.000 S 
ATOM     12  O   UNL     1       4.683   5.756  16.347  0.00  0.00    +0.000 OA
ATOM     13  O   UNL     1       6.655   7.325  16.647  0.00  0.00    +0.000 OA
BRANCH  11  14
ATOM     14  C   UNL     1       7.132   4.736  16.410  0.00  0.00    +0.000 C 
BRANCH  14  15
ATOM     15  C   UNL     1       7.015   4.530  14.916  0.00  0.00    +0.000 A 
ATOM     16  C   UNL     1       7.840   5.239  14.029  0.00  0.00    +0.000 A 
ATOM     17  C   UNL     1       7.683   5.097  12.648  0.00  0.00    +0.000 A 
ATOM     18  C   UNL     1       6.705   4.246  12.139  0.00  0.00    +0.000 A 
ATOM     19  C   UNL     1       5.884   3.534  13.009  0.00  0.00    +0.000 A 
ATOM     20  C   UNL     1       6.037   3.674  14.391  0.00  0.00    +0.000 A 
ENDBRANCH  14  15
ENDBRANCH  11  14
ENDBRANCH   1  11
TORSDOF 5
ENDMDL
MODEL 9
REMARK VINA RESULT:      -6.9      3.300      6.730
REMARK  Name = 
REMARK  5 active torsions:
REMARK  status: ('A' for Active; 'I' for Inactive)
REMARK    1  A    between atoms: N_2  and  C_4
REMARK    2  A    between atoms: C_7  and  O_8
REMARK    3  A    between atoms: O_8  and  S_9
REMARK    4  A    between atoms: S_9  and  C_12
REMARK    5  A    between atoms: C_12  and  C_13
REMARK                            x       y       z     vdW  Elec       q    Type
REMARK                         _______ _______ _______ _____ _____    ______ ____
ROOT
ATOM      1  O   UNL     1       3.120   2.903  19.019  0.00  0.00    +0.000 OA
ENDROOT
BRANCH   1   5
ATOM      2  C   UNL     1       6.107   4.815  16.806  0.00  0.00    +0.000 A 
ATOM      3  C   UNL     1       4.948   4.330  16.182  0.00  0.00    +0.000 A 
ATOM      4  C   UNL     1       3.954   3.710  16.954  0.00  0.00    +0.000 A 
ATOM      5  C   UNL     1       4.122   3.560  18.335  0.00  0.00    +0.000 A 
ATOM      6  C   UNL     1       5.265   4.084  18.948  0.00  0.00    +0.000 A 
ATOM      7  C   UNL     1       6.261   4.703  18.189  0.00  0.00    +0.000 A 
BRANCH   2   9
ATOM      8  O   UNL     1       7.624   6.523  16.401  0.00  0.00    +0.000 OA
ATOM      9  N   UNL     1       7.171   5.440  16.006  0.00  0.00    +0.000 N 
ATOM     10  O   UNL     1       7.546   4.848  14.985  0.00  0.00    +0.000 OA
ENDBRANCH   2   9
ENDBRANCH   1   5
BRANCH   1  11
ATOM     11  S   UNL     1       1.814   3.738  19.557  0.00  0.00    +0.000 S 
ATOM     12  O   UNL     1       1.155   4.331  18.408  0.00  0.00    +0.000 OA
ATOM     13  O   UNL     1       1.099   2.906  20.507  0.00  0.00    +0.000 OA
BRANCH  11  14
ATOM     14  C   UNL     1       2.681   5.022  20.466  0.00  0.00    +0.000 C 
BRANCH  14  15
ATOM     15  C   UNL     1       2.295   6.358  19.871  0.00  0.00    +0.000 A 
ATOM     16  C   UNL     1       2.746   6.731  18.595  0.00  0.00    +0.000 A 
ATOM     17  C   UNL     1       2.444   7.993  18.077  0.00  0.00    +0.000 A 
ATOM     18  C   UNL     1       1.690   8.895  18.825  0.00  0.00    +0.000 A 
ATOM     19  C   UNL     1       1.234   8.534  20.090  0.00  0.00    +0.000 A 
ATOM     20  C   UNL     1       1.534   7.274  20.612  0.00  0.00    +0.000 A 
ENDBRANCH  14  15
ENDBRANCH  11  14
ENDBRANCH   1  11
TORSDOF 5
ENDMDL
