MODEL 1
REMARK VINA RESULT:      -8.2      0.000      0.000
REMARK  Name = 
REMARK  4 active torsions:
REMARK  status: ('A' for Active; 'I' for Inactive)
REMARK    1  A    between atoms: C_1  and  C_2
REMARK    2  A    between atoms: C_2  and  C_3
REMARK    3  A    between atoms: C_5  and  N_6
REMARK    4  A    between atoms: C_7  and  C_9
REMARK                            x       y       z     vdW  Elec       q    Type
REMARK                         _______ _______ _______ _____ _____    ______ ____
ROOT
ATOM      1  C   UNL     1       3.655   5.442  18.754  0.00  0.00    +0.000 A 
ATOM      2  C   UNL     1       2.993   6.506  19.388  0.00  0.00    +0.000 A 
ATOM      3  C   UNL     1       2.052   6.294  20.403  0.00  0.00    +0.000 A 
ATOM      4  C   UNL     1       1.790   4.989  20.828  0.00  0.00    +0.000 A 
ATOM      5  C   UNL     1       2.433   3.913  20.216  0.00  0.00    +0.000 A 
ATOM      6  C   UNL     1       3.348   4.150  19.193  0.00  0.00    +0.000 A 
ATOM      7  F   UNL     1       3.935   3.082  18.618  0.00  0.00    +0.000 F 
ENDROOT
BRANCH   1   9
ATOM      8  C   UNL     1       4.828   7.142  17.206  0.00  0.00    +0.000 C 
ATOM      9  C   UNL     1       4.728   5.662  17.672  0.00  0.00    +0.000 C 
ATOM     10  C   UNL     1       4.368   4.819  16.430  0.00  0.00    +0.000 C 
ATOM     11  C   UNL     1       5.404   3.892  15.824  0.00  0.00    +0.000 C 
ATOM     12  S   UNL     1       7.124   4.244  16.179  0.00  0.00    +0.000 S 
ATOM     13  C   UNL     1       7.005   4.800  17.800  0.00  0.00    +0.000 C 
ATOM     14  N   UNL     1       8.152   4.654  18.524  0.00  0.00    +0.000 N 
ATOM     15  N   UNL     1       6.000   5.377  18.324  0.00  0.00    +0.000 NA
ATOM     16  H   UNL     1       8.983   4.539  17.963  0.00  0.00    +0.000 HD
ATOM     17  H   UNL     1       8.223   5.329  19.273  0.00  0.00    +0.000 HD
ENDBRANCH   1   9
BRANCH   3  18
ATOM     18  N   UNL     1       1.360   7.352  21.025  0.00  0.00    +0.000 N 
ATOM     19  C   UNL     1       1.111   8.614  20.497  0.00  0.00    +0.000 C 
ATOM     20  O   UNL     1       1.435   8.968  19.367  0.00  0.00    +0.000 OA
ATOM     21  H   UNL     1       0.942   7.159  21.928  0.00  0.00    +0.000 HD
BRANCH  19  22
ATOM     22  C   UNL     1       0.372   9.522  21.366  0.00  0.00    +0.000 A 
ATOM     23  C   UNL     1      -0.259   9.175  22.550  0.00  0.00    +0.000 A 
ATOM     24  C   UNL     1      -0.870  10.289  23.193  0.00  0.00    +0.000 A 
ATOM     25  C   UNL     1      -0.688  11.436  22.465  0.00  0.00    +0.000 A 
ATOM     26 BR   UNL     1      -1.329  13.112  22.998  0.00  0.00    +0.000 Br
ATOM     27  S   UNL     1       0.183  11.192  21.032  0.00  0.00    +0.000 S 
ENDBRANCH  19  22
ENDBRANCH   3  18
TORSDOF 3
ENDMDL
MODEL 2
REMARK VINA RESULT:      -7.7      2.505      3.381
REMARK  Name = 
REMARK  4 active torsions:
REMARK  status: ('A' for Active; 'I' for Inactive)
REMARK    1  A    between atoms: C_1  and  C_2
REMARK    2  A    between atoms: C_2  and  C_3
REMARK    3  A    between atoms: C_5  and  N_6
REMARK    4  A    between atoms: C_7  and  C_9
REMARK                            x       y       z     vdW  Elec       q    Type
REMARK                         _______ _______ _______ _____ _____    ______ ____
ROOT
ATOM      1  C   UNL     1       3.146   6.061  18.748  0.00  0.00    +0.000 A 
ATOM      2  C   UNL     1       2.321   6.791  19.620  0.00  0.00    +0.000 A 
ATOM      3  C   UNL     1       1.998   8.134  19.384  0.00  0.00    +0.000 A 
ATOM      4  C   UNL     1       2.477   8.756  18.228  0.00  0.00    +0.000 A 
ATOM      5  C   UNL     1       3.297   8.054  17.345  0.00  0.00    +0.000 A 
ATOM      6  C   UNL     1       3.622   6.727  17.614  0.00  0.00    +0.000 A 
ATOM      7  F   UNL     1       4.430   6.091  16.744  0.00  0.00    +0.000 F 
ENDROOT
BRANCH   1   9
ATOM      8  C   UNL     1       4.993   4.282  19.038  0.00  0.00    +0.000 C 
ATOM      9  C   UNL     1       3.468   4.571  18.968  0.00  0.00    +0.000 C 
ATOM     10  C   UNL     1       2.905   3.757  17.784  0.00  0.00    +0.000 C 
ATOM     11  C   UNL     1       2.019   2.556  18.050  0.00  0.00    +0.000 C 
ATOM     12  S   UNL     1       2.145   1.787  19.663  0.00  0.00    +0.000 S 
ATOM     13  C   UNL     1       2.399   3.169  20.652  0.00  0.00    +0.000 C 
ATOM     14  N   UNL     1       2.020   3.000  21.952  0.00  0.00    +0.000 N 
ATOM     15  N   UNL     1       2.955   4.256  20.296  0.00  0.00    +0.000 NA
ATOM     16  H   UNL     1       1.938   2.035  22.237  0.00  0.00    +0.000 HD
ATOM     17  H   UNL     1       2.536   3.597  22.584  0.00  0.00    +0.000 HD
ENDBRANCH   1   9
BRANCH   3  18
ATOM     18  N   UNL     1       1.197   8.884  20.267  0.00  0.00    +0.000 N 
ATOM     19  C   UNL     1       0.221   9.813  19.925  0.00  0.00    +0.000 C 
ATOM     20  O   UNL     1      -0.111  10.078  18.773  0.00  0.00    +0.000 OA
ATOM     21  H   UNL     1       1.293   8.685  21.255  0.00  0.00    +0.000 HD
BRANCH  19  22
ATOM     22  C   UNL     1      -0.456  10.451  21.048  0.00  0.00    +0.000 A 
ATOM     23  C   UNL     1      -0.487   9.978  22.350  0.00  0.00    +0.000 A 
ATOM     24  C   UNL     1      -1.201  10.839  23.231  0.00  0.00    +0.000 A 
ATOM     25  C   UNL     1      -1.694  11.927  22.559  0.00  0.00    +0.000 A 
ATOM     26 BR   UNL     1      -2.670  13.295  23.383  0.00  0.00    +0.000 Br
ATOM     27  S   UNL     1      -1.327  11.921  20.905  0.00  0.00    +0.000 S 
ENDBRANCH  19  22
ENDBRANCH   3  18
TORSDOF 3
ENDMDL
MODEL 3
REMARK VINA RESULT:      -7.7      2.429      2.836
REMARK  Name = 
REMARK  4 active torsions:
REMARK  status: ('A' for Active; 'I' for Inactive)
REMARK    1  A    between atoms: C_1  and  C_2
REMARK    2  A    between atoms: C_2  and  C_3
REMARK    3  A    between atoms: C_5  and  N_6
REMARK    4  A    between atoms: C_7  and  C_9
REMARK                            x       y       z     vdW  Elec       q    Type
REMARK                         _______ _______ _______ _____ _____    ______ ____
ROOT
ATOM      1  C   UNL     1       3.359   5.295  18.902  0.00  0.00    +0.000 A 
ATOM      2  C   UNL     1       2.926   6.626  18.786  0.00  0.00    +0.000 A 
ATOM      3  C   UNL     1       2.041   7.200  19.708  0.00  0.00    +0.000 A 
ATOM      4  C   UNL     1       1.605   6.441  20.798  0.00  0.00    +0.000 A 
ATOM      5  C   UNL     1       2.020   5.117  20.938  0.00  0.00    +0.000 A 
ATOM      6  C   UNL     1       2.883   4.563  19.994  0.00  0.00    +0.000 A 
ATOM      7  F   UNL     1       3.246   3.276  20.158  0.00  0.00    +0.000 F 
ENDROOT
BRANCH   1   9
ATOM      8  C   UNL     1       3.893   3.305  17.346  0.00  0.00    +0.000 C 
ATOM      9  C   UNL     1       4.370   4.667  17.926  0.00  0.00    +0.000 C 
ATOM     10  C   UNL     1       5.693   4.401  18.676  0.00  0.00    +0.000 C 
ATOM     11  C   UNL     1       7.000   4.912  18.100  0.00  0.00    +0.000 C 
ATOM     12  S   UNL     1       7.041   5.257  16.343  0.00  0.00    +0.000 S 
ATOM     13  C   UNL     1       5.455   5.874  16.106  0.00  0.00    +0.000 C 
ATOM     14  N   UNL     1       5.333   6.698  15.025  0.00  0.00    +0.000 N 
ATOM     15  N   UNL     1       4.422   5.573  16.785  0.00  0.00    +0.000 NA
ATOM     16  H   UNL     1       6.073   6.599  14.345  0.00  0.00    +0.000 HD
ATOM     17  H   UNL     1       4.396   6.704  14.648  0.00  0.00    +0.000 HD
ENDBRANCH   1   9
BRANCH   3  18
ATOM     18  N   UNL     1       1.576   8.524  19.586  0.00  0.00    +0.000 N 
ATOM     19  C   UNL     1       1.647   9.335  18.458  0.00  0.00    +0.000 C 
ATOM     20  O   UNL     1       2.100   8.976  17.375  0.00  0.00    +0.000 OA
ATOM     21  H   UNL     1       1.080   8.911  20.379  0.00  0.00    +0.000 HD
BRANCH  19  22
ATOM     22  C   UNL     1       1.090  10.672  18.613  0.00  0.00    +0.000 A 
ATOM     23  C   UNL     1      -0.242  10.972  18.856  0.00  0.00    +0.000 A 
ATOM     24  C   UNL     1      -0.475  12.370  18.992  0.00  0.00    +0.000 A 
ATOM     25  C   UNL     1       0.689  13.078  18.836  0.00  0.00    +0.000 A 
ATOM     26 BR   UNL     1       0.790  14.942  18.967  0.00  0.00    +0.000 Br
ATOM     27  S   UNL     1       2.035  12.099  18.519  0.00  0.00    +0.000 S 
ENDBRANCH  19  22
ENDBRANCH   3  18
TORSDOF 3
ENDMDL
MODEL 4
REMARK VINA RESULT:      -7.7      1.058      1.466
REMARK  Name = 
REMARK  4 active torsions:
REMARK  status: ('A' for Active; 'I' for Inactive)
REMARK    1  A    between atoms: C_1  and  C_2
REMARK    2  A    between atoms: C_2  and  C_3
REMARK    3  A    between atoms: C_5  and  N_6
REMARK    4  A    between atoms: C_7  and  C_9
REMARK                            x       y       z     vdW  Elec       q    Type
REMARK                         _______ _______ _______ _____ _____    ______ ____
ROOT
ATOM      1  C   UNL     1       3.795   5.158  19.046  0.00  0.00    +0.000 A 
ATOM      2  C   UNL     1       3.148   6.249  19.650  0.00  0.00    +0.000 A 
ATOM      3  C   UNL     1       2.024   6.083  20.470  0.00  0.00    +0.000 A 
ATOM      4  C   UNL     1       1.556   4.792  20.730  0.00  0.00    +0.000 A 
ATOM      5  C   UNL     1       2.180   3.691  20.145  0.00  0.00    +0.000 A 
ATOM      6  C   UNL     1       3.281   3.885  19.314  0.00  0.00    +0.000 A 
ATOM      7  F   UNL     1       3.844   2.796  18.756  0.00  0.00    +0.000 F 
ENDROOT
BRANCH   1   9
ATOM      8  C   UNL     1       6.364   5.414  19.026  0.00  0.00    +0.000 C 
ATOM      9  C   UNL     1       5.060   5.322  18.184  0.00  0.00    +0.000 C 
ATOM     10  C   UNL     1       4.949   6.632  17.375  0.00  0.00    +0.000 C 
ATOM     11  C   UNL     1       5.164   6.609  15.874  0.00  0.00    +0.000 C 
ATOM     12  S   UNL     1       6.100   5.239  15.202  0.00  0.00    +0.000 S 
ATOM     13  C   UNL     1       5.572   3.964  16.225  0.00  0.00    +0.000 C 
ATOM     14  N   UNL     1       5.682   2.722  15.670  0.00  0.00    +0.000 N 
ATOM     15  N   UNL     1       5.177   4.081  17.428  0.00  0.00    +0.000 NA
ATOM     16  H   UNL     1       6.323   2.673  14.891  0.00  0.00    +0.000 HD
ATOM     17  H   UNL     1       5.788   1.997  16.366  0.00  0.00    +0.000 HD
ENDBRANCH   1   9
BRANCH   3  18
ATOM     18  N   UNL     1       1.349   7.171  21.056  0.00  0.00    +0.000 N 
ATOM     19  C   UNL     1       1.178   8.439  20.513  0.00  0.00    +0.000 C 
ATOM     20  O   UNL     1       1.568   8.774  19.398  0.00  0.00    +0.000 OA
ATOM     21  H   UNL     1       0.882   7.000  21.939  0.00  0.00    +0.000 HD
BRANCH  19  22
ATOM     22  C   UNL     1       0.437   9.381  21.344  0.00  0.00    +0.000 A 
ATOM     23  C   UNL     1      -0.211   9.079  22.531  0.00  0.00    +0.000 A 
ATOM     24  C   UNL     1      -0.819  10.217  23.131  0.00  0.00    +0.000 A 
ATOM     25  C   UNL     1      -0.618  11.339  22.369  0.00  0.00    +0.000 A 
ATOM     26 BR   UNL     1      -1.250  13.036  22.840  0.00  0.00    +0.000 Br
ATOM     27  S   UNL     1       0.267  11.042  20.955  0.00  0.00    +0.000 S 
ENDBRANCH  19  22
ENDBRANCH   3  18
TORSDOF 3
ENDMDL
MODEL 5
REMARK VINA RESULT:      -7.7      2.994      4.004
REMARK  Name = 
REMARK  4 active torsions:
REMARK  status: ('A' for Active; 'I' for Inactive)
REMARK    1  A    between atoms: C_1  and  C_2
REMARK    2  A    between atoms: C_2  and  C_3
REMARK    3  A    between atoms: C_5  and  N_6
REMARK    4  A    between atoms: C_7  and  C_9
REMARK                            x       y       z     vdW  Elec       q    Type
REMARK                         _______ _______ _______ _____ _____    ______ ____
ROOT
ATOM      1  C   UNL     1       3.068   5.302  18.201  0.00  0.00    +0.000 A 
ATOM      2  C   UNL     1       2.323   6.488  18.311  0.00  0.00    +0.000 A 
ATOM      3  C   UNL     1       2.750   7.688  17.729  0.00  0.00    +0.000 A 
ATOM      4  C   UNL     1       3.932   7.701  16.982  0.00  0.00    +0.000 A 
ATOM      5  C   UNL     1       4.691   6.537  16.856  0.00  0.00    +0.000 A 
ATOM      6  C   UNL     1       4.255   5.362  17.464  0.00  0.00    +0.000 A 
ATOM      7  F   UNL     1       5.027   4.266  17.331  0.00  0.00    +0.000 F 
ENDROOT
BRANCH   1   9
ATOM      8  C   UNL     1       1.896   3.049  17.744  0.00  0.00    +0.000 C 
ATOM      9  C   UNL     1       2.586   3.965  18.793  0.00  0.00    +0.000 C 
ATOM     10  C   UNL     1       1.548   4.252  19.899  0.00  0.00    +0.000 C 
ATOM     11  C   UNL     1       1.718   3.629  21.271  0.00  0.00    +0.000 C 
ATOM     12  S   UNL     1       2.736   2.159  21.381  0.00  0.00    +0.000 S 
ATOM     13  C   UNL     1       3.943   2.523  20.215  0.00  0.00    +0.000 C 
ATOM     14  N   UNL     1       5.127   1.876  20.419  0.00  0.00    +0.000 N 
ATOM     15  N   UNL     1       3.797   3.256  19.186  0.00  0.00    +0.000 NA
ATOM     16  H   UNL     1       5.056   1.061  21.011  0.00  0.00    +0.000 HD
ATOM     17  H   UNL     1       5.648   1.746  19.562  0.00  0.00    +0.000 HD
ENDBRANCH   1   9
BRANCH   3  18
ATOM     18  N   UNL     1       2.027   8.890  17.858  0.00  0.00    +0.000 N 
ATOM     19  C   UNL     1       1.359   9.347  18.988  0.00  0.00    +0.000 C 
ATOM     20  O   UNL     1       1.348   8.764  20.069  0.00  0.00    +0.000 OA
ATOM     21  H   UNL     1       2.045   9.523  17.067  0.00  0.00    +0.000 HD
BRANCH  19  22
ATOM     22  C   UNL     1       0.684  10.631  18.841  0.00  0.00    +0.000 A 
ATOM     23  C   UNL     1      -0.642  10.812  18.482  0.00  0.00    +0.000 A 
ATOM     24  C   UNL     1      -1.021  12.184  18.455  0.00  0.00    +0.000 A 
ATOM     25  C   UNL     1       0.037  12.991  18.784  0.00  0.00    +0.000 A 
ATOM     26 BR   UNL     1      -0.076  14.857  18.878  0.00  0.00    +0.000 Br
ATOM     27  S   UNL     1       1.463  12.135  19.107  0.00  0.00    +0.000 S 
ENDBRANCH  19  22
ENDBRANCH   3  18
TORSDOF 3
ENDMDL
MODEL 6
REMARK VINA RESULT:      -7.6      2.131      2.656
REMARK  Name = 
REMARK  4 active torsions:
REMARK  status: ('A' for Active; 'I' for Inactive)
REMARK    1  A    between atoms: C_1  and  C_2
REMARK    2  A    between atoms: C_2  and  C_3
REMARK    3  A    between atoms: C_5  and  N_6
REMARK    4  A    between atoms: C_7  and  C_9
REMARK                            x       y       z     vdW  Elec       q    Type
REMARK                         _______ _______ _______ _____ _____    ______ ____
ROOT
ATOM      1  C   UNL     1       3.323   5.228  18.942  0.00  0.00    +0.000 A 
ATOM      2  C   UNL     1       2.972   6.588  18.935  0.00  0.00    +0.000 A 
ATOM      3  C   UNL     1       2.071   7.126  19.865  0.00  0.00    +0.000 A 
ATOM      4  C   UNL     1       1.536   6.295  20.853  0.00  0.00    +0.000 A 
ATOM      5  C   UNL     1       1.868   4.941  20.883  0.00  0.00    +0.000 A 
ATOM      6  C   UNL     1       2.748   4.427  19.934  0.00  0.00    +0.000 A 
ATOM      7  F   UNL     1       3.029   3.111  19.989  0.00  0.00    +0.000 F 
ENDROOT
BRANCH   1   9
ATOM      8  C   UNL     1       3.889   3.285  17.341  0.00  0.00    +0.000 C 
ATOM      9  C   UNL     1       4.349   4.635  17.959  0.00  0.00    +0.000 C 
ATOM     10  C   UNL     1       5.667   4.362  18.715  0.00  0.00    +0.000 C 
ATOM     11  C   UNL     1       6.974   4.900  18.165  0.00  0.00    +0.000 C 
ATOM     12  S   UNL     1       7.028   5.290  16.418  0.00  0.00    +0.000 S 
ATOM     13  C   UNL     1       5.439   5.898  16.181  0.00  0.00    +0.000 C 
ATOM     14  N   UNL     1       5.320   6.749  15.121  0.00  0.00    +0.000 N 
ATOM     15  N   UNL     1       4.403   5.571  16.843  0.00  0.00    +0.000 NA
ATOM     16  H   UNL     1       6.067   6.674  14.446  0.00  0.00    +0.000 HD
ATOM     17  H   UNL     1       4.385   6.756  14.736  0.00  0.00    +0.000 HD
ENDBRANCH   1   9
BRANCH   3  18
ATOM     18  N   UNL     1       1.689   8.481  19.849  0.00  0.00    +0.000 N 
ATOM     19  C   UNL     1       1.404   9.257  18.731  0.00  0.00    +0.000 C 
ATOM     20  O   UNL     1       1.407   8.837  17.577  0.00  0.00    +0.000 OA
ATOM     21  H   UNL     1       1.542   8.927  20.747  0.00  0.00    +0.000 HD
BRANCH  19  22
ATOM     22  C   UNL     1       1.036  10.640  19.007  0.00  0.00    +0.000 A 
ATOM     23  C   UNL     1       1.737  11.763  18.595  0.00  0.00    +0.000 A 
ATOM     24  C   UNL     1       1.110  12.978  18.989  0.00  0.00    +0.000 A 
ATOM     25  C   UNL     1      -0.039  12.730  19.694  0.00  0.00    +0.000 A 
ATOM     26 BR   UNL     1      -1.154  14.078  20.362  0.00  0.00    +0.000 Br
ATOM     27  S   UNL     1      -0.361  11.079  19.898  0.00  0.00    +0.000 S 
ENDBRANCH  19  22
ENDBRANCH   3  18
TORSDOF 3
ENDMDL
MODEL 7
REMARK VINA RESULT:      -7.6      1.090      1.155
REMARK  Name = 
REMARK  4 active torsions:
REMARK  status: ('A' for Active; 'I' for Inactive)
REMARK    1  A    between atoms: C_1  and  C_2
REMARK    2  A    between atoms: C_2  and  C_3
REMARK    3  A    between atoms: C_5  and  N_6
REMARK    4  A    between atoms: C_7  and  C_9
REMARK                            x       y       z     vdW  Elec       q    Type
REMARK                         _______ _______ _______ _____ _____    ______ ____
ROOT
ATOM      1  C   UNL     1       3.447   5.909  18.967  0.00  0.00    +0.000 A 
ATOM      2  C   UNL     1       2.665   7.023  19.316  0.00  0.00    +0.000 A 
ATOM      3  C   UNL     1       1.690   6.960  20.320  0.00  0.00    +0.000 A 
ATOM      4  C   UNL     1       1.515   5.766  21.025  0.00  0.00    +0.000 A 
ATOM      5  C   UNL     1       2.278   4.645  20.700  0.00  0.00    +0.000 A 
ATOM      6  C   UNL     1       3.225   4.728  19.682  0.00  0.00    +0.000 A 
ATOM      7  F   UNL     1       3.929   3.617  19.390  0.00  0.00    +0.000 F 
ENDROOT
BRANCH   1   9
ATOM      8  C   UNL     1       4.628   7.356  17.186  0.00  0.00    +0.000 C 
ATOM      9  C   UNL     1       4.555   5.978  17.902  0.00  0.00    +0.000 C 
ATOM     10  C   UNL     1       4.274   4.917  16.816  0.00  0.00    +0.000 C 
ATOM     11  C   UNL     1       5.363   3.939  16.420  0.00  0.00    +0.000 C 
ATOM     12  S   UNL     1       7.054   4.413  16.766  0.00  0.00    +0.000 S 
ATOM     13  C   UNL     1       6.852   5.240  18.258  0.00  0.00    +0.000 C 
ATOM     14  N   UNL     1       7.972   5.267  19.036  0.00  0.00    +0.000 N 
ATOM     15  N   UNL     1       5.809   5.860  18.637  0.00  0.00    +0.000 NA
ATOM     16  H   UNL     1       8.829   5.088  18.533  0.00  0.00    +0.000 HD
ATOM     17  H   UNL     1       7.991   6.066  19.656  0.00  0.00    +0.000 HD
ENDBRANCH   1   9
BRANCH   3  18
ATOM     18  N   UNL     1       0.880   8.062  20.656  0.00  0.00    +0.000 N 
ATOM     19  C   UNL     1       1.059   8.937  21.721  0.00  0.00    +0.000 C 
ATOM     20  O   UNL     1       2.001   8.889  22.508  0.00  0.00    +0.000 OA
ATOM     21  H   UNL     1       0.121   8.284  20.023  0.00  0.00    +0.000 HD
BRANCH  19  22
ATOM     22  C   UNL     1       0.061   9.994  21.838  0.00  0.00    +0.000 A 
ATOM     23  C   UNL     1      -0.617  10.343  22.996  0.00  0.00    +0.000 A 
ATOM     24  C   UNL     1      -1.505  11.438  22.803  0.00  0.00    +0.000 A 
ATOM     25  C   UNL     1      -1.475  11.870  21.502  0.00  0.00    +0.000 A 
ATOM     26 BR   UNL     1      -2.492  13.307  20.866  0.00  0.00    +0.000 Br
ATOM     27  S   UNL     1      -0.418  10.980  20.521  0.00  0.00    +0.000 S 
ENDBRANCH  19  22
ENDBRANCH   3  18
TORSDOF 3
ENDMDL
MODEL 8
REMARK VINA RESULT:      -7.6      2.537      3.454
REMARK  Name = 
REMARK  4 active torsions:
REMARK  status: ('A' for Active; 'I' for Inactive)
REMARK    1  A    between atoms: C_1  and  C_2
REMARK    2  A    between atoms: C_2  and  C_3
REMARK    3  A    between atoms: C_5  and  N_6
REMARK    4  A    between atoms: C_7  and  C_9
REMARK                            x       y       z     vdW  Elec       q    Type
REMARK                         _______ _______ _______ _____ _____    ______ ____
ROOT
ATOM      1  C   UNL     1       3.144   6.165  18.683  0.00  0.00    +0.000 A 
ATOM      2  C   UNL     1       2.231   6.930  19.427  0.00  0.00    +0.000 A 
ATOM      3  C   UNL     1       1.950   8.265  19.109  0.00  0.00    +0.000 A 
ATOM      4  C   UNL     1       2.564   8.844  17.995  0.00  0.00    +0.000 A 
ATOM      5  C   UNL     1       3.475   8.107  17.238  0.00  0.00    +0.000 A 
ATOM      6  C   UNL     1       3.754   6.789  17.590  0.00  0.00    +0.000 A 
ATOM      7  F   UNL     1       4.651   6.118  16.841  0.00  0.00    +0.000 F 
ENDROOT
BRANCH   1   9
ATOM      8  C   UNL     1       4.941   4.363  19.116  0.00  0.00    +0.000 C 
ATOM      9  C   UNL     1       3.424   4.683  18.990  0.00  0.00    +0.000 C 
ATOM     10  C   UNL     1       2.873   3.819  17.836  0.00  0.00    +0.000 C 
ATOM     11  C   UNL     1       1.951   2.654  18.143  0.00  0.00    +0.000 C 
ATOM     12  S   UNL     1       2.019   1.971  19.797  0.00  0.00    +0.000 S 
ATOM     13  C   UNL     1       2.281   3.398  20.718  0.00  0.00    +0.000 C 
ATOM     14  N   UNL     1       1.865   3.308  22.014  0.00  0.00    +0.000 N 
ATOM     15  N   UNL     1       2.871   4.451  20.319  0.00  0.00    +0.000 NA
ATOM     16  H   UNL     1       1.753   2.362  22.348  0.00  0.00    +0.000 HD
ATOM     17  H   UNL     1       2.379   3.926  22.627  0.00  0.00    +0.000 HD
ENDBRANCH   1   9
BRANCH   3  18
ATOM     18  N   UNL     1       1.059   9.051  19.866  0.00  0.00    +0.000 N 
ATOM     19  C   UNL     1       1.032   9.187  21.249  0.00  0.00    +0.000 C 
ATOM     20  O   UNL     1       1.833   8.657  22.014  0.00  0.00    +0.000 OA
ATOM     21  H   UNL     1       0.407   9.631  19.351  0.00  0.00    +0.000 HD
BRANCH  19  22
ATOM     22  C   UNL     1      -0.007  10.067  21.772  0.00  0.00    +0.000 A 
ATOM     23  C   UNL     1      -0.547  10.014  23.047  0.00  0.00    +0.000 A 
ATOM     24  C   UNL     1      -1.521  11.027  23.274  0.00  0.00    +0.000 A 
ATOM     25  C   UNL     1      -1.689  11.804  22.157  0.00  0.00    +0.000 A 
ATOM     26 BR   UNL     1      -2.869  13.254  22.073  0.00  0.00    +0.000 Br
ATOM     27  S   UNL     1      -0.716  11.328  20.853  0.00  0.00    +0.000 S 
ENDBRANCH  19  22
ENDBRANCH   3  18
TORSDOF 3
ENDMDL
MODEL 9
REMARK VINA RESULT:      -7.5      4.623      6.853
REMARK  Name = 
REMARK  4 active torsions:
REMARK  status: ('A' for Active; 'I' for Inactive)
REMARK    1  A    between atoms: C_1  and  C_2
REMARK    2  A    between atoms: C_2  and  C_3
REMARK    3  A    between atoms: C_5  and  N_6
REMARK    4  A    between atoms: C_7  and  C_9
REMARK                            x       y       z     vdW  Elec       q    Type
REMARK                         _______ _______ _______ _____ _____    ______ ____
ROOT
ATOM      1  C   UNL     1       4.791   5.050  17.475  0.00  0.00    +0.000 A 
ATOM      2  C   UNL     1       5.344   6.320  17.707  0.00  0.00    +0.000 A 
ATOM      3  C   UNL     1       6.539   6.730  17.101  0.00  0.00    +0.000 A 
ATOM      4  C   UNL     1       7.181   5.867  16.207  0.00  0.00    +0.000 A 
ATOM      5  C   UNL     1       6.653   4.601  15.958  0.00  0.00    +0.000 A 
ATOM      6  C   UNL     1       5.476   4.209  16.592  0.00  0.00    +0.000 A 
ATOM      7  F   UNL     1       5.009   2.971  16.335  0.00  0.00    +0.000 F 
ENDROOT
BRANCH   1   9
ATOM      8  C   UNL     1       2.524   3.881  17.080  0.00  0.00    +0.000 C 
ATOM      9  C   UNL     1       3.454   4.605  18.094  0.00  0.00    +0.000 C 
ATOM     10  C   UNL     1       2.694   5.852  18.595  0.00  0.00    +0.000 C 
ATOM     11  C   UNL     1       2.171   5.893  20.018  0.00  0.00    +0.000 C 
ATOM     12  S   UNL     1       1.924   4.324  20.844  0.00  0.00    +0.000 S 
ATOM     13  C   UNL     1       3.248   3.425  20.218  0.00  0.00    +0.000 C 
ATOM     14  N   UNL     1       3.650   2.395  21.017  0.00  0.00    +0.000 N 
ATOM     15  N   UNL     1       3.802   3.595  19.086  0.00  0.00    +0.000 NA
ATOM     16  H   UNL     1       2.958   2.100  21.690  0.00  0.00    +0.000 HD
ATOM     17  H   UNL     1       4.092   1.651  20.494  0.00  0.00    +0.000 HD
ENDBRANCH   1   9
BRANCH   3  18
ATOM     18  N   UNL     1       7.119   7.989  17.349  0.00  0.00    +0.000 N 
ATOM     19  C   UNL     1       8.110   8.285  18.278  0.00  0.00    +0.000 C 
ATOM     20  O   UNL     1       8.658   7.453  18.996  0.00  0.00    +0.000 OA
ATOM     21  H   UNL     1       6.834   8.752  16.747  0.00  0.00    +0.000 HD
BRANCH  19  22
ATOM     22  C   UNL     1       8.525   9.682  18.328  0.00  0.00    +0.000 A 
ATOM     23  C   UNL     1       8.124  10.678  17.451  0.00  0.00    +0.000 A 
ATOM     24  C   UNL     1       8.672  11.950  17.778  0.00  0.00    +0.000 A 
ATOM     25  C   UNL     1       9.476  11.868  18.885  0.00  0.00    +0.000 A 
ATOM     26 BR   UNL     1      10.358  13.339  19.634  0.00  0.00    +0.000 Br
ATOM     27  S   UNL     1       9.591  10.301  19.519  0.00  0.00    +0.000 S 
ENDBRANCH  19  22
ENDBRANCH   3  18
TORSDOF 3
ENDMDL
