MODEL 1
REMARK VINA RESULT:      -7.0      0.000      0.000
REMARK  Name = 
REMARK  5 active torsions:
REMARK  status: ('A' for Active; 'I' for Inactive)
REMARK    1  A    between atoms: C_1  and  C_2
REMARK    2  A    between atoms: C_8  and  C_9
REMARK    3  A    between atoms: C_9  and  S_10
REMARK    4  A    between atoms: S_10  and  C_11
REMARK    5  A    between atoms: C_11  and  C_12
REMARK                            x       y       z     vdW  Elec       q    Type
REMARK                         _______ _______ _______ _____ _____    ______ ____
ROOT
ATOM      1  C   UNL     1       7.585   6.674  18.151  0.00  0.00    +0.000 C 
ATOM      2  C   UNL     1       6.859   5.554  17.452  0.00  0.00    +0.000 A 
ATOM      3  C   UNL     1       7.006   5.378  16.117  0.00  0.00    +0.000 A 
ATOM      4  C   UNL     1       6.304   4.332  15.384  0.00  0.00    +0.000 A 
ATOM      5 BR   UNL     1       6.598   4.184  13.552  0.00  0.00    +0.000 Br
ATOM      6  C   UNL     1       5.465   3.521  16.048  0.00  0.00    +0.000 A 
ATOM      7  N   UNL     1       5.303   3.686  17.421  0.00  0.00    +0.000 N 
ATOM      8  C   UNL     1       4.497   3.003  18.315  0.00  0.00    +0.000 A 
ATOM      9  C   UNL     1       4.767   3.580  19.542  0.00  0.00    +0.000 A 
ATOM     10  N   UNL     1       5.688   4.584  19.436  0.00  0.00    +0.000 NA
ATOM     11  C   UNL     1       5.983   4.655  18.155  0.00  0.00    +0.000 A 
ENDROOT
BRANCH   8  12
ATOM     12  C   UNL     1       3.527   1.938  17.956  0.00  0.00    +0.000 C 
BRANCH  12  13
ATOM     13  S   UNL     1       2.214   1.908  19.213  0.00  0.00    +0.000 S 
BRANCH  13  14
ATOM     14  C   UNL     1       1.054   3.113  18.495  0.00  0.00    +0.000 C 
BRANCH  14  15
ATOM     15  C   UNL     1       1.457   4.514  18.889  0.00  0.00    +0.000 A 
ATOM     16  C   UNL     1       1.965   5.406  17.931  0.00  0.00    +0.000 A 
ATOM     17  C   UNL     1       2.407   6.676  18.308  0.00  0.00    +0.000 A 
ATOM     18  C   UNL     1       2.350   7.069  19.644  0.00  0.00    +0.000 A 
ATOM     19  C   UNL     1       1.848   6.192  20.604  0.00  0.00    +0.000 A 
ATOM     20  C   UNL     1       1.405   4.922  20.229  0.00  0.00    +0.000 A 
ENDBRANCH  14  15
ENDBRANCH  13  14
ENDBRANCH  12  13
ENDBRANCH   8  12
TORSDOF 4
ENDMDL
MODEL 2
REMARK VINA RESULT:      -6.9      2.808      5.733
REMARK  Name = 
REMARK  5 active torsions:
REMARK  status: ('A' for Active; 'I' for Inactive)
REMARK    1  A    between atoms: C_1  and  C_2
REMARK    2  A    between atoms: C_8  and  C_9
REMARK    3  A    between atoms: C_9  and  S_10
REMARK    4  A    between atoms: S_10  and  C_11
REMARK    5  A    between atoms: C_11  and  C_12
REMARK                            x       y       z     vdW  Elec       q    Type
REMARK                         _______ _______ _______ _____ _____    ______ ____
ROOT
ATOM      1  C   UNL     1       1.244   2.568  21.468  0.00  0.00    +0.000 C 
ATOM      2  C   UNL     1       1.814   3.646  20.582  0.00  0.00    +0.000 A 
ATOM      3  C   UNL     1       1.577   4.950  20.861  0.00  0.00    +0.000 A 
ATOM      4  C   UNL     1       2.076   6.033  20.023  0.00  0.00    +0.000 A 
ATOM      5 BR   UNL     1       1.693   7.786  20.517  0.00  0.00    +0.000 Br
ATOM      6  C   UNL     1       2.781   5.731  18.920  0.00  0.00    +0.000 A 
ATOM      7  N   UNL     1       3.036   4.397  18.619  0.00  0.00    +0.000 N 
ATOM      8  C   UNL     1       3.712   3.834  17.551  0.00  0.00    +0.000 A 
ATOM      9  C   UNL     1       3.674   2.473  17.789  0.00  0.00    +0.000 A 
ATOM     10  N   UNL     1       3.001   2.181  18.942  0.00  0.00    +0.000 NA
ATOM     11  C   UNL     1       2.601   3.341  19.418  0.00  0.00    +0.000 A 
ENDROOT
BRANCH   8  12
ATOM     12  C   UNL     1       4.274   4.584  16.399  0.00  0.00    +0.000 C 
BRANCH  12  13
ATOM     13  S   UNL     1       5.692   3.654  15.744  0.00  0.00    +0.000 S 
BRANCH  13  14
ATOM     14  C   UNL     1       6.838   5.023  15.391  0.00  0.00    +0.000 C 
BRANCH  14  15
ATOM     15  C   UNL     1       7.251   5.694  16.679  0.00  0.00    +0.000 A 
ATOM     16  C   UNL     1       7.407   7.088  16.740  0.00  0.00    +0.000 A 
ATOM     17  C   UNL     1       7.861   7.701  17.909  0.00  0.00    +0.000 A 
ATOM     18  C   UNL     1       8.165   6.932  19.030  0.00  0.00    +0.000 A 
ATOM     19  C   UNL     1       8.014   5.548  18.983  0.00  0.00    +0.000 A 
ATOM     20  C   UNL     1       7.560   4.932  17.815  0.00  0.00    +0.000 A 
ENDBRANCH  14  15
ENDBRANCH  13  14
ENDBRANCH  12  13
ENDBRANCH   8  12
TORSDOF 4
ENDMDL
MODEL 3
REMARK VINA RESULT:      -6.7      0.705      1.287
REMARK  Name = 
REMARK  5 active torsions:
REMARK  status: ('A' for Active; 'I' for Inactive)
REMARK    1  A    between atoms: C_1  and  C_2
REMARK    2  A    between atoms: C_8  and  C_9
REMARK    3  A    between atoms: C_9  and  S_10
REMARK    4  A    between atoms: S_10  and  C_11
REMARK    5  A    between atoms: C_11  and  C_12
REMARK                            x       y       z     vdW  Elec       q    Type
REMARK                         _______ _______ _______ _____ _____    ______ ____
ROOT
ATOM      1  C   UNL     1       7.375   7.362  17.440  0.00  0.00    +0.000 C 
ATOM      2  C   UNL     1       6.722   6.060  17.051  0.00  0.00    +0.000 A 
ATOM      3  C   UNL     1       6.749   5.646  15.762  0.00  0.00    +0.000 A 
ATOM      4  C   UNL     1       6.108   4.413  15.323  0.00  0.00    +0.000 A 
ATOM      5 BR   UNL     1       6.224   3.945  13.525  0.00  0.00    +0.000 Br
ATOM      6  C   UNL     1       5.449   3.665  16.222  0.00  0.00    +0.000 A 
ATOM      7  N   UNL     1       5.413   4.074  17.552  0.00  0.00    +0.000 N 
ATOM      8  C   UNL     1       4.796   3.498  18.649  0.00  0.00    +0.000 A 
ATOM      9  C   UNL     1       5.120   4.325  19.708  0.00  0.00    +0.000 A 
ATOM     10  N   UNL     1       5.895   5.377  19.308  0.00  0.00    +0.000 NA
ATOM     11  C   UNL     1       6.042   5.230  18.008  0.00  0.00    +0.000 A 
ENDROOT
BRANCH   8  12
ATOM     12  C   UNL     1       3.931   2.291  18.612  0.00  0.00    +0.000 C 
BRANCH  12  13
ATOM     13  S   UNL     1       2.449   2.677  17.631  0.00  0.00    +0.000 S 
BRANCH  13  14
ATOM     14  C   UNL     1       1.377   3.369  18.929  0.00  0.00    +0.000 C 
BRANCH  14  15
ATOM     15  C   UNL     1       1.721   4.821  19.161  0.00  0.00    +0.000 A 
ATOM     16  C   UNL     1       1.602   5.387  20.440  0.00  0.00    +0.000 A 
ATOM     17  C   UNL     1       1.849   6.746  20.640  0.00  0.00    +0.000 A 
ATOM     18  C   UNL     1       2.215   7.556  19.568  0.00  0.00    +0.000 A 
ATOM     19  C   UNL     1       2.338   7.006  18.293  0.00  0.00    +0.000 A 
ATOM     20  C   UNL     1       2.092   5.647  18.090  0.00  0.00    +0.000 A 
ENDBRANCH  14  15
ENDBRANCH  13  14
ENDBRANCH  12  13
ENDBRANCH   8  12
TORSDOF 4
ENDMDL
MODEL 4
REMARK VINA RESULT:      -6.6      2.416      3.643
REMARK  Name = 
REMARK  5 active torsions:
REMARK  status: ('A' for Active; 'I' for Inactive)
REMARK    1  A    between atoms: C_1  and  C_2
REMARK    2  A    between atoms: C_8  and  C_9
REMARK    3  A    between atoms: C_9  and  S_10
REMARK    4  A    between atoms: S_10  and  C_11
REMARK    5  A    between atoms: C_11  and  C_12
REMARK                            x       y       z     vdW  Elec       q    Type
REMARK                         _______ _______ _______ _____ _____    ______ ____
ROOT
ATOM      1  C   UNL     1       8.885   5.843  12.743  0.00  0.00    +0.000 C 
ATOM      2  C   UNL     1       7.637   5.120  13.180  0.00  0.00    +0.000 A 
ATOM      3  C   UNL     1       6.954   4.350  12.299  0.00  0.00    +0.000 A 
ATOM      4  C   UNL     1       5.725   3.654  12.657  0.00  0.00    +0.000 A 
ATOM      5 BR   UNL     1       4.884   2.618  11.360  0.00  0.00    +0.000 Br
ATOM      6  C   UNL     1       5.237   3.791  13.900  0.00  0.00    +0.000 A 
ATOM      7  N   UNL     1       5.926   4.576  14.820  0.00  0.00    +0.000 N 
ATOM      8  C   UNL     1       5.627   4.885  16.135  0.00  0.00    +0.000 A 
ATOM      9  C   UNL     1       6.678   5.678  16.558  0.00  0.00    +0.000 A 
ATOM     10  N   UNL     1       7.594   5.873  15.563  0.00  0.00    +0.000 NA
ATOM     11  C   UNL     1       7.120   5.228  14.518  0.00  0.00    +0.000 A 
ENDROOT
BRANCH   8  12
ATOM     12  C   UNL     1       4.393   4.476  16.853  0.00  0.00    +0.000 C 
BRANCH  12  13
ATOM     13  S   UNL     1       3.901   5.827  17.966  0.00  0.00    +0.000 S 
BRANCH  13  14
ATOM     14  C   UNL     1       2.119   5.487  18.116  0.00  0.00    +0.000 C 
BRANCH  14  15
ATOM     15  C   UNL     1       1.879   4.473  19.209  0.00  0.00    +0.000 A 
ATOM     16  C   UNL     1       2.272   4.741  20.530  0.00  0.00    +0.000 A 
ATOM     17  C   UNL     1       2.118   3.775  21.526  0.00  0.00    +0.000 A 
ATOM     18  C   UNL     1       1.573   2.531  21.215  0.00  0.00    +0.000 A 
ATOM     19  C   UNL     1       1.178   2.253  19.908  0.00  0.00    +0.000 A 
ATOM     20  C   UNL     1       1.331   3.217  18.910  0.00  0.00    +0.000 A 
ENDBRANCH  14  15
ENDBRANCH  13  14
ENDBRANCH  12  13
ENDBRANCH   8  12
TORSDOF 4
ENDMDL
MODEL 5
REMARK VINA RESULT:      -6.5      3.125      6.572
REMARK  Name = 
REMARK  5 active torsions:
REMARK  status: ('A' for Active; 'I' for Inactive)
REMARK    1  A    between atoms: C_1  and  C_2
REMARK    2  A    between atoms: C_8  and  C_9
REMARK    3  A    between atoms: C_9  and  S_10
REMARK    4  A    between atoms: S_10  and  C_11
REMARK    5  A    between atoms: C_11  and  C_12
REMARK                            x       y       z     vdW  Elec       q    Type
REMARK                         _______ _______ _______ _____ _____    ______ ____
ROOT
ATOM      1  C   UNL     1       1.209   2.707  21.037  0.00  0.00    +0.000 C 
ATOM      2  C   UNL     1       1.950   3.939  20.586  0.00  0.00    +0.000 A 
ATOM      3  C   UNL     1       1.397   5.164  20.753  0.00  0.00    +0.000 A 
ATOM      4  C   UNL     1       2.053   6.386  20.308  0.00  0.00    +0.000 A 
ATOM      5 BR   UNL     1       1.195   8.011  20.605  0.00  0.00    +0.000 Br
ATOM      6  C   UNL     1       3.243   6.300  19.692  0.00  0.00    +0.000 A 
ATOM      7  N   UNL     1       3.828   5.049  19.513  0.00  0.00    +0.000 N 
ATOM      8  C   UNL     1       5.019   4.698  18.903  0.00  0.00    +0.000 A 
ATOM      9  C   UNL     1       5.095   3.325  19.045  0.00  0.00    +0.000 A 
ATOM     10  N   UNL     1       4.006   2.825  19.703  0.00  0.00    +0.000 NA
ATOM     11  C   UNL     1       3.241   3.866  19.955  0.00  0.00    +0.000 A 
ENDROOT
BRANCH   8  12
ATOM     12  C   UNL     1       5.936   5.636  18.206  0.00  0.00    +0.000 C 
BRANCH  12  13
ATOM     13  S   UNL     1       5.395   5.790  16.477  0.00  0.00    +0.000 S 
BRANCH  13  14
ATOM     14  C   UNL     1       6.966   5.467  15.619  0.00  0.00    +0.000 C 
BRANCH  14  15
ATOM     15  C   UNL     1       6.698   4.827  14.277  0.00  0.00    +0.000 A 
ATOM     16  C   UNL     1       5.582   3.995  14.094  0.00  0.00    +0.000 A 
ATOM     17  C   UNL     1       5.375   3.344  12.877  0.00  0.00    +0.000 A 
ATOM     18  C   UNL     1       6.278   3.514  11.829  0.00  0.00    +0.000 A 
ATOM     19  C   UNL     1       7.389   4.338  11.998  0.00  0.00    +0.000 A 
ATOM     20  C   UNL     1       7.599   4.990  13.215  0.00  0.00    +0.000 A 
ENDBRANCH  14  15
ENDBRANCH  13  14
ENDBRANCH  12  13
ENDBRANCH   8  12
TORSDOF 4
ENDMDL
MODEL 6
REMARK VINA RESULT:      -6.5      3.142      6.471
REMARK  Name = 
REMARK  5 active torsions:
REMARK  status: ('A' for Active; 'I' for Inactive)
REMARK    1  A    between atoms: C_1  and  C_2
REMARK    2  A    between atoms: C_8  and  C_9
REMARK    3  A    between atoms: C_9  and  S_10
REMARK    4  A    between atoms: S_10  and  C_11
REMARK    5  A    between atoms: C_11  and  C_12
REMARK                            x       y       z     vdW  Elec       q    Type
REMARK                         _______ _______ _______ _____ _____    ______ ____
ROOT
ATOM      1  C   UNL     1       1.270   2.837  21.194  0.00  0.00    +0.000 C 
ATOM      2  C   UNL     1       1.842   4.006  20.435  0.00  0.00    +0.000 A 
ATOM      3  C   UNL     1       1.536   5.272  20.804  0.00  0.00    +0.000 A 
ATOM      4  C   UNL     1       2.035   6.439  20.089  0.00  0.00    +0.000 A 
ATOM      5 BR   UNL     1       1.550   8.129  20.701  0.00  0.00    +0.000 Br
ATOM      6  C   UNL     1       2.813   6.258  19.010  0.00  0.00    +0.000 A 
ATOM      7  N   UNL     1       3.141   4.964  18.616  0.00  0.00    +0.000 N 
ATOM      8  C   UNL     1       3.900   4.519  17.548  0.00  0.00    +0.000 A 
ATOM      9  C   UNL     1       3.905   3.142  17.671  0.00  0.00    +0.000 A 
ATOM     10  N   UNL     1       3.181   2.729  18.754  0.00  0.00    +0.000 NA
ATOM     11  C   UNL     1       2.706   3.830  19.298  0.00  0.00    +0.000 A 
ENDROOT
BRANCH   8  12
ATOM     12  C   UNL     1       4.493   5.384  16.497  0.00  0.00    +0.000 C 
BRANCH  12  13
ATOM     13  S   UNL     1       6.128   5.940  17.066  0.00  0.00    +0.000 S 
BRANCH  13  14
ATOM     14  C   UNL     1       7.174   4.621  16.374  0.00  0.00    +0.000 C 
BRANCH  14  15
ATOM     15  C   UNL     1       6.973   4.534  14.880  0.00  0.00    +0.000 A 
ATOM     16  C   UNL     1       6.021   3.656  14.338  0.00  0.00    +0.000 A 
ATOM     17  C   UNL     1       5.887   3.522  12.955  0.00  0.00    +0.000 A 
ATOM     18  C   UNL     1       6.700   4.260  12.098  0.00  0.00    +0.000 A 
ATOM     19  C   UNL     1       7.648   5.135  12.623  0.00  0.00    +0.000 A 
ATOM     20  C   UNL     1       7.785   5.272  14.006  0.00  0.00    +0.000 A 
ENDBRANCH  14  15
ENDBRANCH  13  14
ENDBRANCH  12  13
ENDBRANCH   8  12
TORSDOF 4
ENDMDL
MODEL 7
REMARK VINA RESULT:      -6.5      0.698      1.284
REMARK  Name = 
REMARK  5 active torsions:
REMARK  status: ('A' for Active; 'I' for Inactive)
REMARK    1  A    between atoms: C_1  and  C_2
REMARK    2  A    between atoms: C_8  and  C_9
REMARK    3  A    between atoms: C_9  and  S_10
REMARK    4  A    between atoms: S_10  and  C_11
REMARK    5  A    between atoms: C_11  and  C_12
REMARK                            x       y       z     vdW  Elec       q    Type
REMARK                         _______ _______ _______ _____ _____    ______ ____
ROOT
ATOM      1  C   UNL     1       7.662   6.079  18.872  0.00  0.00    +0.000 C 
ATOM      2  C   UNL     1       6.837   5.177  17.991  0.00  0.00    +0.000 A 
ATOM      3  C   UNL     1       7.007   5.199  16.647  0.00  0.00    +0.000 A 
ATOM      4  C   UNL     1       6.216   4.372  15.745  0.00  0.00    +0.000 A 
ATOM      5 BR   UNL     1       6.551   4.485  13.917  0.00  0.00    +0.000 Br
ATOM      6  C   UNL     1       5.269   3.570  16.257  0.00  0.00    +0.000 A 
ATOM      7  N   UNL     1       5.081   3.533  17.636  0.00  0.00    +0.000 N 
ATOM      8  C   UNL     1       4.175   2.815  18.396  0.00  0.00    +0.000 A 
ATOM      9  C   UNL     1       4.468   3.154  19.704  0.00  0.00    +0.000 A 
ATOM     10  N   UNL     1       5.500   4.047  19.775  0.00  0.00    +0.000 NA
ATOM     11  C   UNL     1       5.842   4.287  18.526  0.00  0.00    +0.000 A 
ENDROOT
BRANCH   8  12
ATOM     12  C   UNL     1       3.102   1.941  17.855  0.00  0.00    +0.000 C 
BRANCH  12  13
ATOM     13  S   UNL     1       1.498   2.590  18.412  0.00  0.00    +0.000 S 
BRANCH  13  14
ATOM     14  C   UNL     1       1.483   4.193  17.550  0.00  0.00    +0.000 C 
BRANCH  14  15
ATOM     15  C   UNL     1       1.734   5.309  18.535  0.00  0.00    +0.000 A 
ATOM     16  C   UNL     1       1.448   5.136  19.898  0.00  0.00    +0.000 A 
ATOM     17  C   UNL     1       1.610   6.193  20.797  0.00  0.00    +0.000 A 
ATOM     18  C   UNL     1       2.057   7.433  20.346  0.00  0.00    +0.000 A 
ATOM     19  C   UNL     1       2.345   7.617  18.996  0.00  0.00    +0.000 A 
ATOM     20  C   UNL     1       2.184   6.563  18.095  0.00  0.00    +0.000 A 
ENDBRANCH  14  15
ENDBRANCH  13  14
ENDBRANCH  12  13
ENDBRANCH   8  12
TORSDOF 4
ENDMDL
MODEL 8
REMARK VINA RESULT:      -6.4      0.856      1.017
REMARK  Name = 
REMARK  5 active torsions:
REMARK  status: ('A' for Active; 'I' for Inactive)
REMARK    1  A    between atoms: C_1  and  C_2
REMARK    2  A    between atoms: C_8  and  C_9
REMARK    3  A    between atoms: C_9  and  S_10
REMARK    4  A    between atoms: S_10  and  C_11
REMARK    5  A    between atoms: C_11  and  C_12
REMARK                            x       y       z     vdW  Elec       q    Type
REMARK                         _______ _______ _______ _____ _____    ______ ____
ROOT
ATOM      1  C   UNL     1       7.687   7.014  17.880  0.00  0.00    +0.000 C 
ATOM      2  C   UNL     1       6.847   5.858  17.403  0.00  0.00    +0.000 A 
ATOM      3  C   UNL     1       6.787   5.561  16.082  0.00  0.00    +0.000 A 
ATOM      4  C   UNL     1       5.968   4.475  15.561  0.00  0.00    +0.000 A 
ATOM      5 BR   UNL     1       5.977   4.159  13.727  0.00  0.00    +0.000 Br
ATOM      6  C   UNL     1       5.228   3.749  16.415  0.00  0.00    +0.000 A 
ATOM      7  N   UNL     1       5.279   4.037  17.775  0.00  0.00    +0.000 N 
ATOM      8  C   UNL     1       4.610   3.458  18.839  0.00  0.00    +0.000 A 
ATOM      9  C   UNL     1       5.071   4.132  19.954  0.00  0.00    +0.000 A 
ATOM     10  N   UNL     1       5.980   5.097  19.620  0.00  0.00    +0.000 NA
ATOM     11  C   UNL     1       6.076   5.048  18.308  0.00  0.00    +0.000 A 
ENDROOT
BRANCH   8  12
ATOM     12  C   UNL     1       3.582   2.392  18.728  0.00  0.00    +0.000 C 
BRANCH  12  13
ATOM     13  S   UNL     1       1.984   3.173  18.349  0.00  0.00    +0.000 S 
BRANCH  13  14
ATOM     14  C   UNL     1       1.725   4.130  19.875  0.00  0.00    +0.000 C 
BRANCH  14  15
ATOM     15  C   UNL     1       1.800   5.608  19.576  0.00  0.00    +0.000 A 
ATOM     16  C   UNL     1       2.238   6.060  18.321  0.00  0.00    +0.000 A 
ATOM     17  C   UNL     1       2.379   7.426  18.068  0.00  0.00    +0.000 A 
ATOM     18  C   UNL     1       2.087   8.355  19.064  0.00  0.00    +0.000 A 
ATOM     19  C   UNL     1       1.651   7.920  20.314  0.00  0.00    +0.000 A 
ATOM     20  C   UNL     1       1.509   6.554  20.569  0.00  0.00    +0.000 A 
ENDBRANCH  14  15
ENDBRANCH  13  14
ENDBRANCH  12  13
ENDBRANCH   8  12
TORSDOF 4
ENDMDL
MODEL 9
REMARK VINA RESULT:      -6.4      3.783      6.552
REMARK  Name = 
REMARK  5 active torsions:
REMARK  status: ('A' for Active; 'I' for Inactive)
REMARK    1  A    between atoms: C_1  and  C_2
REMARK    2  A    between atoms: C_8  and  C_9
REMARK    3  A    between atoms: C_9  and  S_10
REMARK    4  A    between atoms: S_10  and  C_11
REMARK    5  A    between atoms: C_11  and  C_12
REMARK                            x       y       z     vdW  Elec       q    Type
REMARK                         _______ _______ _______ _____ _____    ______ ____
ROOT
ATOM      1  C   UNL     1       1.379  11.058  18.184  0.00  0.00    +0.000 C 
ATOM      2  C   UNL     1       1.310   9.946  19.198  0.00  0.00    +0.000 A 
ATOM      3  C   UNL     1       0.748  10.166  20.411  0.00  0.00    +0.000 A 
ATOM      4  C   UNL     1       0.682   9.137  21.441  0.00  0.00    +0.000 A 
ATOM      5 BR   UNL     1      -0.125   9.559  23.064  0.00  0.00    +0.000 Br
ATOM      6  C   UNL     1       1.212   7.929  21.191  0.00  0.00    +0.000 A 
ATOM      7  N   UNL     1       1.792   7.684  19.949  0.00  0.00    +0.000 N 
ATOM      8  C   UNL     1       2.412   6.548  19.460  0.00  0.00    +0.000 A 
ATOM      9  C   UNL     1       2.768   6.872  18.165  0.00  0.00    +0.000 A 
ATOM     10  N   UNL     1       2.404   8.151  17.846  0.00  0.00    +0.000 NA
ATOM     11  C   UNL     1       1.842   8.636  18.933  0.00  0.00    +0.000 A 
ENDROOT
BRANCH   8  12
ATOM     12  C   UNL     1       2.666   5.307  20.236  0.00  0.00    +0.000 C 
BRANCH  12  13
ATOM     13  S   UNL     1       3.065   3.972  19.069  0.00  0.00    +0.000 S 
BRANCH  13  14
ATOM     14  C   UNL     1       4.881   3.974  19.186  0.00  0.00    +0.000 C 
BRANCH  14  15
ATOM     15  C   UNL     1       5.484   4.265  17.832  0.00  0.00    +0.000 A 
ATOM     16  C   UNL     1       4.722   4.108  16.663  0.00  0.00    +0.000 A 
ATOM     17  C   UNL     1       5.301   4.305  15.408  0.00  0.00    +0.000 A 
ATOM     18  C   UNL     1       6.644   4.658  15.304  0.00  0.00    +0.000 A 
ATOM     19  C   UNL     1       7.411   4.818  16.457  0.00  0.00    +0.000 A 
ATOM     20  C   UNL     1       6.835   4.621  17.714  0.00  0.00    +0.000 A 
ENDBRANCH  14  15
ENDBRANCH  13  14
ENDBRANCH  12  13
ENDBRANCH   8  12
TORSDOF 4
ENDMDL
