MODEL 1
REMARK VINA RESULT:      -7.2      0.000      0.000
REMARK  Name = 
REMARK  7 active torsions:
REMARK  status: ('A' for Active; 'I' for Inactive)
REMARK    1  A    between atoms: C_1  and  C_2
REMARK    2  A    between atoms: N_5  and  C_6
REMARK    3  A    between atoms: C_6  and  C_7
REMARK    4  A    between atoms: C_7  and  N_8
REMARK    5  A    between atoms: N_8  and  C_9
REMARK    6  A    between atoms: C_9  and  C_10
REMARK    7  A    between atoms: C_11  and  C_12
REMARK                            x       y       z     vdW  Elec       q    Type
REMARK                         _______ _______ _______ _____ _____    ______ ____
ROOT
ATOM      1  N   UNL     1       6.215   6.835  16.832  0.00  0.00    +0.000 NA
ATOM      2  H   UNL     1       6.694   6.745  15.937  0.00  0.00    +0.000 HD
ENDROOT
BRANCH   1   3
ATOM      3  C   UNL     1       6.662   5.781  17.755  0.00  0.00    +0.000 C 
BRANCH   3   4
ATOM      4  C   UNL     1       7.356   4.600  17.073  0.00  0.00    +0.000 C 
BRANCH   4   9
ATOM      5  C   UNL     1       5.488   3.384  12.594  0.00  0.00    +0.000 C 
ATOM      6  C   UNL     1       6.252   4.006  13.697  0.00  0.00    +0.000 A 
ATOM      7  C   UNL     1       7.237   5.017  13.614  0.00  0.00    +0.000 A 
ATOM      8  N   UNL     1       7.728   5.350  14.809  0.00  0.00    +0.000 NA
ATOM      9  N   UNL     1       7.058   4.549  15.657  0.00  0.00    +0.000 N 
ATOM     10  C   UNL     1       6.165   3.725  15.042  0.00  0.00    +0.000 A 
ENDBRANCH   4   9
ENDBRANCH   3   4
ENDBRANCH   1   3
BRANCH   1  11
ATOM     11  C   UNL     1       4.772   6.779  16.611  0.00  0.00    +0.000 C 
BRANCH  11  12
ATOM     12  C   UNL     1       4.127   6.105  17.773  0.00  0.00    +0.000 C 
ATOM     13  C   UNL     1       3.094   5.256  17.659  0.00  0.00    +0.000 C 
BRANCH  13  14
ATOM     14  C   UNL     1       2.464   4.598  18.807  0.00  0.00    +0.000 A 
ATOM     15  C   UNL     1       2.779   4.959  20.125  0.00  0.00    +0.000 A 
ATOM     16  C   UNL     1       2.169   4.314  21.199  0.00  0.00    +0.000 A 
ATOM     17  C   UNL     1       1.223   3.319  20.969  0.00  0.00    +0.000 A 
ATOM     18  C   UNL     1       0.879   2.973  19.663  0.00  0.00    +0.000 A 
ATOM     19  C   UNL     1       1.493   3.615  18.585  0.00  0.00    +0.000 A 
ENDBRANCH  13  14
ENDBRANCH  11  12
ENDBRANCH   1  11
TORSDOF 6
ENDMDL
MODEL 2
REMARK VINA RESULT:      -6.5      4.675      7.810
REMARK  Name = 
REMARK  7 active torsions:
REMARK  status: ('A' for Active; 'I' for Inactive)
REMARK    1  A    between atoms: C_1  and  C_2
REMARK    2  A    between atoms: N_5  and  C_6
REMARK    3  A    between atoms: C_6  and  C_7
REMARK    4  A    between atoms: C_7  and  N_8
REMARK    5  A    between atoms: N_8  and  C_9
REMARK    6  A    between atoms: C_9  and  C_10
REMARK    7  A    between atoms: C_11  and  C_12
REMARK                            x       y       z     vdW  Elec       q    Type
REMARK                         _______ _______ _______ _____ _____    ______ ____
ROOT
ATOM      1  N   UNL     1       7.761   6.608  17.583  0.00  0.00    +0.000 NA
ATOM      2  H   UNL     1       8.758   6.568  17.376  0.00  0.00    +0.000 HD
ENDROOT
BRANCH   1   3
ATOM      3  C   UNL     1       7.009   5.790  16.620  0.00  0.00    +0.000 C 
BRANCH   3   4
ATOM      4  C   UNL     1       6.505   4.459  17.183  0.00  0.00    +0.000 C 
BRANCH   4   9
ATOM      5  C   UNL     1       1.561   4.232  17.915  0.00  0.00    +0.000 C 
ATOM      6  C   UNL     1       3.010   4.495  18.050  0.00  0.00    +0.000 A 
ATOM      7  C   UNL     1       3.676   5.198  19.081  0.00  0.00    +0.000 A 
ATOM      8  N   UNL     1       4.996   5.249  18.892  0.00  0.00    +0.000 NA
ATOM      9  N   UNL     1       5.174   4.581  17.739  0.00  0.00    +0.000 N 
ATOM     10  C   UNL     1       4.018   4.112  17.194  0.00  0.00    +0.000 A 
ENDBRANCH   4   9
ENDBRANCH   3   4
ENDBRANCH   1   3
BRANCH   1  11
ATOM     11  C   UNL     1       7.323   8.001  17.561  0.00  0.00    +0.000 C 
BRANCH  11  12
ATOM     12  C   UNL     1       8.318   8.837  18.291  0.00  0.00    +0.000 C 
ATOM     13  C   UNL     1       8.709  10.053  17.880  0.00  0.00    +0.000 C 
BRANCH  13  14
ATOM     14  C   UNL     1       9.690  10.869  18.604  0.00  0.00    +0.000 A 
ATOM     15  C   UNL     1      10.711  11.556  17.935  0.00  0.00    +0.000 A 
ATOM     16  C   UNL     1      11.633  12.320  18.647  0.00  0.00    +0.000 A 
ATOM     17  C   UNL     1      11.530  12.425  20.032  0.00  0.00    +0.000 A 
ATOM     18  C   UNL     1      10.499  11.770  20.705  0.00  0.00    +0.000 A 
ATOM     19  C   UNL     1       9.578  11.000  19.993  0.00  0.00    +0.000 A 
ENDBRANCH  13  14
ENDBRANCH  11  12
ENDBRANCH   1  11
TORSDOF 6
ENDMDL
MODEL 3
REMARK VINA RESULT:      -6.5      4.883      8.000
REMARK  Name = 
REMARK  7 active torsions:
REMARK  status: ('A' for Active; 'I' for Inactive)
REMARK    1  A    between atoms: C_1  and  C_2
REMARK    2  A    between atoms: N_5  and  C_6
REMARK    3  A    between atoms: C_6  and  C_7
REMARK    4  A    between atoms: C_7  and  N_8
REMARK    5  A    between atoms: N_8  and  C_9
REMARK    6  A    between atoms: C_9  and  C_10
REMARK    7  A    between atoms: C_11  and  C_12
REMARK                            x       y       z     vdW  Elec       q    Type
REMARK                         _______ _______ _______ _____ _____    ______ ____
ROOT
ATOM      1  N   UNL     1       7.661   7.264  16.736  0.00  0.00    +0.000 NA
ATOM      2  H   UNL     1       7.105   7.822  16.089  0.00  0.00    +0.000 HD
ENDROOT
BRANCH   1   3
ATOM      3  C   UNL     1       7.139   5.890  16.799  0.00  0.00    +0.000 C 
BRANCH   3   4
ATOM      4  C   UNL     1       6.890   5.377  18.219  0.00  0.00    +0.000 C 
BRANCH   4   9
ATOM      5  C   UNL     1       1.998   4.420  17.794  0.00  0.00    +0.000 C 
ATOM      6  C   UNL     1       3.424   4.398  18.182  0.00  0.00    +0.000 A 
ATOM      7  C   UNL     1       4.058   3.558  19.126  0.00  0.00    +0.000 A 
ATOM      8  N   UNL     1       5.365   3.804  19.233  0.00  0.00    +0.000 NA
ATOM      9  N   UNL     1       5.567   4.805  18.357  0.00  0.00    +0.000 N 
ATOM     10  C   UNL     1       4.438   5.197  17.705  0.00  0.00    +0.000 A 
ENDBRANCH   4   9
ENDBRANCH   3   4
ENDBRANCH   1   3
BRANCH   1  11
ATOM     11  C   UNL     1       7.652   7.902  18.049  0.00  0.00    +0.000 C 
BRANCH  11  12
ATOM     12  C   UNL     1       8.553   9.089  18.021  0.00  0.00    +0.000 C 
ATOM     13  C   UNL     1       8.950   9.747  19.122  0.00  0.00    +0.000 C 
BRANCH  13  14
ATOM     14  C   UNL     1       9.836  10.914  19.084  0.00  0.00    +0.000 A 
ATOM     15  C   UNL     1      10.324  11.504  20.258  0.00  0.00    +0.000 A 
ATOM     16  C   UNL     1      11.162  12.616  20.195  0.00  0.00    +0.000 A 
ATOM     17  C   UNL     1      11.539  13.136  18.959  0.00  0.00    +0.000 A 
ATOM     18  C   UNL     1      11.084  12.537  17.784  0.00  0.00    +0.000 A 
ATOM     19  C   UNL     1      10.241  11.427  17.846  0.00  0.00    +0.000 A 
ENDBRANCH  13  14
ENDBRANCH  11  12
ENDBRANCH   1  11
TORSDOF 6
ENDMDL
MODEL 4
REMARK VINA RESULT:      -6.4      4.601      7.300
REMARK  Name = 
REMARK  7 active torsions:
REMARK  status: ('A' for Active; 'I' for Inactive)
REMARK    1  A    between atoms: C_1  and  C_2
REMARK    2  A    between atoms: N_5  and  C_6
REMARK    3  A    between atoms: C_6  and  C_7
REMARK    4  A    between atoms: C_7  and  N_8
REMARK    5  A    between atoms: N_8  and  C_9
REMARK    6  A    between atoms: C_9  and  C_10
REMARK    7  A    between atoms: C_11  and  C_12
REMARK                            x       y       z     vdW  Elec       q    Type
REMARK                         _______ _______ _______ _____ _____    ______ ____
ROOT
ATOM      1  N   UNL     1       7.747   6.942  16.777  0.00  0.00    +0.000 NA
ATOM      2  H   UNL     1       7.611   7.417  15.886  0.00  0.00    +0.000 HD
ENDROOT
BRANCH   1   3
ATOM      3  C   UNL     1       6.951   5.706  16.821  0.00  0.00    +0.000 C 
BRANCH   3   4
ATOM      4  C   UNL     1       5.782   5.675  15.833  0.00  0.00    +0.000 C 
BRANCH   4   9
ATOM      5  C   UNL     1       5.878   2.661  11.842  0.00  0.00    +0.000 C 
ATOM      6  C   UNL     1       6.192   3.686  12.859  0.00  0.00    +0.000 A 
ATOM      7  C   UNL     1       7.318   4.540  12.917  0.00  0.00    +0.000 A 
ATOM      8  N   UNL     1       7.288   5.352  13.976  0.00  0.00    +0.000 NA
ATOM      9  N   UNL     1       6.144   5.016  14.596  0.00  0.00    +0.000 N 
ATOM     10  C   UNL     1       5.452   4.024  13.969  0.00  0.00    +0.000 A 
ENDBRANCH   4   9
ENDBRANCH   3   4
ENDBRANCH   1   3
BRANCH   1  11
ATOM     11  C   UNL     1       7.388   7.850  17.863  0.00  0.00    +0.000 C 
BRANCH  11  12
ATOM     12  C   UNL     1       8.377   8.964  17.914  0.00  0.00    +0.000 C 
ATOM     13  C   UNL     1       8.726   9.596  19.046  0.00  0.00    +0.000 C 
BRANCH  13  14
ATOM     14  C   UNL     1       9.699  10.691  19.087  0.00  0.00    +0.000 A 
ATOM     15  C   UNL     1      10.210  11.176  20.299  0.00  0.00    +0.000 A 
ATOM     16  C   UNL     1      11.131  12.221  20.310  0.00  0.00    +0.000 A 
ATOM     17  C   UNL     1      11.569  12.778  19.111  0.00  0.00    +0.000 A 
ATOM     18  C   UNL     1      11.091  12.282  17.898  0.00  0.00    +0.000 A 
ATOM     19  C   UNL     1      10.165  11.239  17.886  0.00  0.00    +0.000 A 
ENDBRANCH  13  14
ENDBRANCH  11  12
ENDBRANCH   1  11
TORSDOF 6
ENDMDL
MODEL 5
REMARK VINA RESULT:      -6.4      1.183      1.655
REMARK  Name = 
REMARK  7 active torsions:
REMARK  status: ('A' for Active; 'I' for Inactive)
REMARK    1  A    between atoms: C_1  and  C_2
REMARK    2  A    between atoms: N_5  and  C_6
REMARK    3  A    between atoms: C_6  and  C_7
REMARK    4  A    between atoms: C_7  and  N_8
REMARK    5  A    between atoms: N_8  and  C_9
REMARK    6  A    between atoms: C_9  and  C_10
REMARK    7  A    between atoms: C_11  and  C_12
REMARK                            x       y       z     vdW  Elec       q    Type
REMARK                         _______ _______ _______ _____ _____    ______ ____
ROOT
ATOM      1  N   UNL     1       7.363   6.589  18.303  0.00  0.00    +0.000 NA
ATOM      2  H   UNL     1       6.947   7.470  18.603  0.00  0.00    +0.000 HD
ENDROOT
BRANCH   1   3
ATOM      3  C   UNL     1       6.900   6.243  16.951  0.00  0.00    +0.000 C 
BRANCH   3   4
ATOM      4  C   UNL     1       7.277   4.830  16.499  0.00  0.00    +0.000 C 
BRANCH   4   9
ATOM      5  C   UNL     1       5.606   3.179  12.082  0.00  0.00    +0.000 C 
ATOM      6  C   UNL     1       6.322   3.906  13.152  0.00  0.00    +0.000 A 
ATOM      7  C   UNL     1       7.313   4.905  13.014  0.00  0.00    +0.000 A 
ATOM      8  N   UNL     1       7.752   5.354  14.192  0.00  0.00    +0.000 NA
ATOM      9  N   UNL     1       7.043   4.640  15.084  0.00  0.00    +0.000 N 
ATOM     10  C   UNL     1       6.175   3.759  14.513  0.00  0.00    +0.000 A 
ENDBRANCH   4   9
ENDBRANCH   3   4
ENDBRANCH   1   3
BRANCH   1  11
ATOM     11  C   UNL     1       7.026   5.547  19.269  0.00  0.00    +0.000 C 
BRANCH  11  12
ATOM     12  C   UNL     1       5.556   5.304  19.232  0.00  0.00    +0.000 C 
ATOM     13  C   UNL     1       5.002   4.086  19.333  0.00  0.00    +0.000 C 
BRANCH  13  14
ATOM     14  C   UNL     1       3.555   3.856  19.294  0.00  0.00    +0.000 A 
ATOM     15  C   UNL     1       2.842   3.469  20.438  0.00  0.00    +0.000 A 
ATOM     16  C   UNL     1       1.467   3.253  20.373  0.00  0.00    +0.000 A 
ATOM     17  C   UNL     1       0.787   3.441  19.172  0.00  0.00    +0.000 A 
ATOM     18  C   UNL     1       1.482   3.856  18.036  0.00  0.00    +0.000 A 
ATOM     19  C   UNL     1       2.860   4.068  18.098  0.00  0.00    +0.000 A 
ENDBRANCH  13  14
ENDBRANCH  11  12
ENDBRANCH   1  11
TORSDOF 6
ENDMDL
MODEL 6
REMARK VINA RESULT:      -6.4      4.840      7.550
REMARK  Name = 
REMARK  7 active torsions:
REMARK  status: ('A' for Active; 'I' for Inactive)
REMARK    1  A    between atoms: C_1  and  C_2
REMARK    2  A    between atoms: N_5  and  C_6
REMARK    3  A    between atoms: C_6  and  C_7
REMARK    4  A    between atoms: C_7  and  N_8
REMARK    5  A    between atoms: N_8  and  C_9
REMARK    6  A    between atoms: C_9  and  C_10
REMARK    7  A    between atoms: C_11  and  C_12
REMARK                            x       y       z     vdW  Elec       q    Type
REMARK                         _______ _______ _______ _____ _____    ______ ____
ROOT
ATOM      1  N   UNL     1       7.315   7.359  17.076  0.00  0.00    +0.000 NA
ATOM      2  H   UNL     1       6.502   7.954  16.918  0.00  0.00    +0.000 HD
ENDROOT
BRANCH   1   3
ATOM      3  C   UNL     1       6.899   5.956  17.220  0.00  0.00    +0.000 C 
BRANCH   3   4
ATOM      4  C   UNL     1       5.700   5.564  16.353  0.00  0.00    +0.000 C 
BRANCH   4   9
ATOM      5  C   UNL     1       5.929   3.048  12.035  0.00  0.00    +0.000 C 
ATOM      6  C   UNL     1       6.222   3.925  13.189  0.00  0.00    +0.000 A 
ATOM      7  C   UNL     1       7.382   4.698  13.425  0.00  0.00    +0.000 A 
ATOM      8  N   UNL     1       7.317   5.378  14.571  0.00  0.00    +0.000 NA
ATOM      9  N   UNL     1       6.115   5.037  15.070  0.00  0.00    +0.000 N 
ATOM     10  C   UNL     1       5.422   4.170  14.283  0.00  0.00    +0.000 A 
ENDBRANCH   4   9
ENDBRANCH   3   4
ENDBRANCH   1   3
BRANCH   1  11
ATOM     11  C   UNL     1       8.029   7.831  18.260  0.00  0.00    +0.000 C 
BRANCH  11  12
ATOM     12  C   UNL     1       8.524   9.215  18.012  0.00  0.00    +0.000 C 
ATOM     13  C   UNL     1       9.150   9.957  18.939  0.00  0.00    +0.000 C 
BRANCH  13  14
ATOM     14  C   UNL     1       9.633  11.318  18.686  0.00  0.00    +0.000 A 
ATOM     15  C   UNL     1       8.847  12.264  18.014  0.00  0.00    +0.000 A 
ATOM     16  C   UNL     1       9.332  13.550  17.783  0.00  0.00    +0.000 A 
ATOM     17  C   UNL     1      10.597  13.911  18.239  0.00  0.00    +0.000 A 
ATOM     18  C   UNL     1      11.375  12.987  18.936  0.00  0.00    +0.000 A 
ATOM     19  C   UNL     1      10.893  11.697  19.164  0.00  0.00    +0.000 A 
ENDBRANCH  13  14
ENDBRANCH  11  12
ENDBRANCH   1  11
TORSDOF 6
ENDMDL
MODEL 7
REMARK VINA RESULT:      -6.3      4.510      7.857
REMARK  Name = 
REMARK  7 active torsions:
REMARK  status: ('A' for Active; 'I' for Inactive)
REMARK    1  A    between atoms: C_1  and  C_2
REMARK    2  A    between atoms: N_5  and  C_6
REMARK    3  A    between atoms: C_6  and  C_7
REMARK    4  A    between atoms: C_7  and  N_8
REMARK    5  A    between atoms: N_8  and  C_9
REMARK    6  A    between atoms: C_9  and  C_10
REMARK    7  A    between atoms: C_11  and  C_12
REMARK                            x       y       z     vdW  Elec       q    Type
REMARK                         _______ _______ _______ _____ _____    ______ ____
ROOT
ATOM      1  N   UNL     1       7.249   6.197  18.156  0.00  0.00    +0.000 NA
ATOM      2  H   UNL     1       7.752   5.480  17.635  0.00  0.00    +0.000 HD
ENDROOT
BRANCH   1   3
ATOM      3  C   UNL     1       5.850   5.792  18.356  0.00  0.00    +0.000 C 
BRANCH   3   4
ATOM      4  C   UNL     1       5.642   4.280  18.466  0.00  0.00    +0.000 C 
BRANCH   4   9
ATOM      5  C   UNL     1       1.054   3.206  20.148  0.00  0.00    +0.000 C 
ATOM      6  C   UNL     1       2.236   3.453  19.295  0.00  0.00    +0.000 A 
ATOM      7  C   UNL     1       2.333   3.347  17.888  0.00  0.00    +0.000 A 
ATOM      8  N   UNL     1       3.553   3.644  17.437  0.00  0.00    +0.000 NA
ATOM      9  N   UNL     1       4.238   3.938  18.557  0.00  0.00    +0.000 N 
ATOM     10  C   UNL     1       3.496   3.837  19.694  0.00  0.00    +0.000 A 
ENDBRANCH   4   9
ENDBRANCH   3   4
ENDBRANCH   1   3
BRANCH   1  11
ATOM     11  C   UNL     1       7.344   7.466  17.438  0.00  0.00    +0.000 C 
BRANCH  11  12
ATOM     12  C   UNL     1       8.339   8.340  18.121  0.00  0.00    +0.000 C 
ATOM     13  C   UNL     1       8.352   9.677  18.011  0.00  0.00    +0.000 C 
BRANCH  13  14
ATOM     14  C   UNL     1       9.336  10.530  18.686  0.00  0.00    +0.000 A 
ATOM     15  C   UNL     1       9.329  10.699  20.077  0.00  0.00    +0.000 A 
ATOM     16  C   UNL     1      10.272  11.519  20.693  0.00  0.00    +0.000 A 
ATOM     17  C   UNL     1      11.246  12.159  19.930  0.00  0.00    +0.000 A 
ATOM     18  C   UNL     1      11.281  11.972  18.548  0.00  0.00    +0.000 A 
ATOM     19  C   UNL     1      10.333  11.155  17.929  0.00  0.00    +0.000 A 
ENDBRANCH  13  14
ENDBRANCH  11  12
ENDBRANCH   1  11
TORSDOF 6
ENDMDL
MODEL 8
REMARK VINA RESULT:      -6.3      4.657      7.716
REMARK  Name = 
REMARK  7 active torsions:
REMARK  status: ('A' for Active; 'I' for Inactive)
REMARK    1  A    between atoms: C_1  and  C_2
REMARK    2  A    between atoms: N_5  and  C_6
REMARK    3  A    between atoms: C_6  and  C_7
REMARK    4  A    between atoms: C_7  and  N_8
REMARK    5  A    between atoms: N_8  and  C_9
REMARK    6  A    between atoms: C_9  and  C_10
REMARK    7  A    between atoms: C_11  and  C_12
REMARK                            x       y       z     vdW  Elec       q    Type
REMARK                         _______ _______ _______ _____ _____    ______ ____
ROOT
ATOM      1  N   UNL     1       7.976   6.704  18.265  0.00  0.00    +0.000 NA
ATOM      2  H   UNL     1       8.913   6.558  17.892  0.00  0.00    +0.000 HD
ENDROOT
BRANCH   1   3
ATOM      3  C   UNL     1       7.192   5.464  18.170  0.00  0.00    +0.000 C 
BRANCH   3   4
ATOM      4  C   UNL     1       6.148   5.294  19.276  0.00  0.00    +0.000 C 
BRANCH   4   9
ATOM      5  C   UNL     1       2.405   2.366  17.711  0.00  0.00    +0.000 C 
ATOM      6  C   UNL     1       3.259   3.522  18.056  0.00  0.00    +0.000 A 
ATOM      7  C   UNL     1       2.984   4.896  17.866  0.00  0.00    +0.000 A 
ATOM      8  N   UNL     1       3.977   5.679  18.293  0.00  0.00    +0.000 NA
ATOM      9  N   UNL     1       4.889   4.804  18.754  0.00  0.00    +0.000 N 
ATOM     10  C   UNL     1       4.508   3.503  18.634  0.00  0.00    +0.000 A 
ENDBRANCH   4   9
ENDBRANCH   3   4
ENDBRANCH   1   3
BRANCH   1  11
ATOM     11  C   UNL     1       7.338   7.800  17.539  0.00  0.00    +0.000 C 
BRANCH  11  12
ATOM     12  C   UNL     1       8.117   9.051  17.761  0.00  0.00    +0.000 C 
ATOM     13  C   UNL     1       8.805   9.308  18.885  0.00  0.00    +0.000 C 
BRANCH  13  14
ATOM     14  C   UNL     1       9.568  10.542  19.095  0.00  0.00    +0.000 A 
ATOM     15  C   UNL     1       9.896  10.993  20.381  0.00  0.00    +0.000 A 
ATOM     16  C   UNL     1      10.618  12.172  20.553  0.00  0.00    +0.000 A 
ATOM     17  C   UNL     1      11.041  12.900  19.444  0.00  0.00    +0.000 A 
ATOM     18  C   UNL     1      10.747  12.443  18.159  0.00  0.00    +0.000 A 
ATOM     19  C   UNL     1      10.018  11.265  17.985  0.00  0.00    +0.000 A 
ENDBRANCH  13  14
ENDBRANCH  11  12
ENDBRANCH   1  11
TORSDOF 6
ENDMDL
MODEL 9
REMARK VINA RESULT:      -6.3      2.352      3.180
REMARK  Name = 
REMARK  7 active torsions:
REMARK  status: ('A' for Active; 'I' for Inactive)
REMARK    1  A    between atoms: C_1  and  C_2
REMARK    2  A    between atoms: N_5  and  C_6
REMARK    3  A    between atoms: C_6  and  C_7
REMARK    4  A    between atoms: C_7  and  N_8
REMARK    5  A    between atoms: N_8  and  C_9
REMARK    6  A    between atoms: C_9  and  C_10
REMARK    7  A    between atoms: C_11  and  C_12
REMARK                            x       y       z     vdW  Elec       q    Type
REMARK                         _______ _______ _______ _____ _____    ______ ____
ROOT
ATOM      1  N   UNL     1       6.417   4.592  18.748  0.00  0.00    +0.000 NA
ATOM      2  H   UNL     1       6.599   5.501  19.172  0.00  0.00    +0.000 HD
ENDROOT
BRANCH   1   3
ATOM      3  C   UNL     1       7.210   4.438  17.519  0.00  0.00    +0.000 C 
BRANCH   3   4
ATOM      4  C   UNL     1       7.052   5.586  16.519  0.00  0.00    +0.000 C 
BRANCH   4   9
ATOM      5  C   UNL     1       5.683   3.154  12.368  0.00  0.00    +0.000 C 
ATOM      6  C   UNL     1       6.366   4.026  13.347  0.00  0.00    +0.000 A 
ATOM      7  C   UNL     1       7.492   4.856  13.139  0.00  0.00    +0.000 A 
ATOM      8  N   UNL     1       7.851   5.514  14.243  0.00  0.00    +0.000 NA
ATOM      9  N   UNL     1       6.956   5.102  15.158  0.00  0.00    +0.000 N 
ATOM     10  C   UNL     1       6.047   4.212  14.673  0.00  0.00    +0.000 A 
ENDBRANCH   4   9
ENDBRANCH   3   4
ENDBRANCH   1   3
BRANCH   1  11
ATOM     11  C   UNL     1       4.986   4.466  18.482  0.00  0.00    +0.000 C 
BRANCH  11  12
ATOM     12  C   UNL     1       4.328   5.781  18.725  0.00  0.00    +0.000 C 
ATOM     13  C   UNL     1       3.007   5.984  18.599  0.00  0.00    +0.000 C 
BRANCH  13  14
ATOM     14  C   UNL     1       2.367   7.281  18.839  0.00  0.00    +0.000 A 
ATOM     15  C   UNL     1       2.225   8.231  17.817  0.00  0.00    +0.000 A 
ATOM     16  C   UNL     1       1.617   9.458  18.073  0.00  0.00    +0.000 A 
ATOM     17  C   UNL     1       1.125   9.741  19.345  0.00  0.00    +0.000 A 
ATOM     18  C   UNL     1       1.234   8.792  20.361  0.00  0.00    +0.000 A 
ATOM     19  C   UNL     1       1.847   7.564  20.107  0.00  0.00    +0.000 A 
ENDBRANCH  13  14
ENDBRANCH  11  12
ENDBRANCH   1  11
TORSDOF 6
ENDMDL
