MODEL 1
REMARK VINA RESULT:      -7.0      0.000      0.000
REMARK  Name = 
REMARK  12 active torsions:
REMARK  status: ('A' for Active; 'I' for Inactive)
REMARK    1  A    between atoms: C_1  and  C_2
REMARK    2  A    between atoms: C_2  and  C_3
REMARK    3  A    between atoms: C_3  and  C_4
REMARK    4  A    between atoms: C_4  and  C_5
REMARK    5  A    between atoms: C_5  and  N_6
REMARK    6  A    between atoms: N_9  and  C_10
REMARK    7  A    between atoms: C_10  and  C_11
REMARK    8  A    between atoms: C_11  and  C_12
REMARK    9  A    between atoms: C_12  and  C_13
REMARK   10  A    between atoms: C_13  and  O_15
REMARK   11  A    between atoms: O_15  and  C_16
REMARK   12  A    between atoms: C_16  and  C_17
REMARK                            x       y       z     vdW  Elec       q    Type
REMARK                         _______ _______ _______ _____ _____    ______ ____
ROOT
ATOM      1  N   UNL     1       2.894   6.099  18.639  0.00  0.00    +0.000 N 
ATOM      2  C   UNL     1       3.884   6.042  17.670  0.00  0.00    +0.000 A 
ATOM      3  O   UNL     1       4.424   7.058  17.233  0.00  0.00    +0.000 OA
ATOM      4  N   UNL     1       4.226   4.777  17.203  0.00  0.00    +0.000 N 
ATOM      5  C   UNL     1       3.803   3.578  17.766  0.00  0.00    +0.000 A 
ATOM      6  O   UNL     1       4.164   2.477  17.360  0.00  0.00    +0.000 OA
ATOM      7  C   UNL     1       2.890   3.681  18.918  0.00  0.00    +0.000 A 
ATOM      8  N   UNL     1       2.532   2.522  19.544  0.00  0.00    +0.000 NA
ATOM      9  C   UNL     1       1.689   2.665  20.584  0.00  0.00    +0.000 A 
ATOM     10  C   UNL     1       1.218   3.904  20.974  0.00  0.00    +0.000 A 
ATOM     11  N   UNL     1       1.575   5.051  20.346  0.00  0.00    +0.000 NA
ATOM     12  C   UNL     1       2.437   4.935  19.302  0.00  0.00    +0.000 A 
ENDROOT
BRANCH   1  13
ATOM     13  C   UNL     1       2.400   7.408  19.078  0.00  0.00    +0.000 C 
BRANCH  13  14
ATOM     14  C   UNL     1       1.811   8.269  17.947  0.00  0.00    +0.000 C 
BRANCH  14  15
ATOM     15  C   UNL     1       1.507   9.708  18.372  0.00  0.00    +0.000 C 
BRANCH  15  17
ATOM     16  C   UNL     1      -0.623  10.407  19.530  0.00  0.00    +0.000 C 
ATOM     17  C   UNL     1       0.019  10.020  18.207  0.00  0.00    +0.000 C 
ENDBRANCH  15  17
ENDBRANCH  14  15
ENDBRANCH  13  14
ENDBRANCH   1  13
BRANCH   4  18
ATOM     18  C   UNL     1       5.132   4.703  16.060  0.00  0.00    +0.000 C 
BRANCH  18  19
ATOM     19  C   UNL     1       6.586   4.437  16.445  0.00  0.00    +0.000 C 
BRANCH  19  20
ATOM     20  C   UNL     1       7.384   5.696  16.779  0.00  0.00    +0.000 C 
BRANCH  20  21
ATOM     21  C   UNL     1       7.542   5.830  18.270  0.00  0.00    +0.000 C 
ATOM     22  O   UNL     1       7.125   5.028  19.096  0.00  0.00    +0.000 OA
BRANCH  21  23
ATOM     23  O   UNL     1       8.148   7.013  18.568  0.00  0.00    +0.000 OA
BRANCH  23  24
ATOM     24  C   UNL     1       7.828   8.085  17.671  0.00  0.00    +0.000 C 
ATOM     25  C   UNL     1       8.451   9.355  18.223  0.00  0.00    +0.000 C 
ENDBRANCH  23  24
ENDBRANCH  21  23
ENDBRANCH  20  21
ENDBRANCH  19  20
ENDBRANCH  18  19
ENDBRANCH   4  18
TORSDOF 10
ENDMDL
MODEL 2
REMARK VINA RESULT:      -6.6      2.459      3.777
REMARK  Name = 
REMARK  12 active torsions:
REMARK  status: ('A' for Active; 'I' for Inactive)
REMARK    1  A    between atoms: C_1  and  C_2
REMARK    2  A    between atoms: C_2  and  C_3
REMARK    3  A    between atoms: C_3  and  C_4
REMARK    4  A    between atoms: C_4  and  C_5
REMARK    5  A    between atoms: C_5  and  N_6
REMARK    6  A    between atoms: N_9  and  C_10
REMARK    7  A    between atoms: C_10  and  C_11
REMARK    8  A    between atoms: C_11  and  C_12
REMARK    9  A    between atoms: C_12  and  C_13
REMARK   10  A    between atoms: C_13  and  O_15
REMARK   11  A    between atoms: O_15  and  C_16
REMARK   12  A    between atoms: C_16  and  C_17
REMARK                            x       y       z     vdW  Elec       q    Type
REMARK                         _______ _______ _______ _____ _____    ______ ____
ROOT
ATOM      1  N   UNL     1       3.352   5.914  18.483  0.00  0.00    +0.000 N 
ATOM      2  C   UNL     1       4.489   5.634  17.742  0.00  0.00    +0.000 A 
ATOM      3  O   UNL     1       5.268   6.519  17.388  0.00  0.00    +0.000 OA
ATOM      4  N   UNL     1       4.699   4.301  17.402  0.00  0.00    +0.000 N 
ATOM      5  C   UNL     1       3.979   3.226  17.910  0.00  0.00    +0.000 A 
ATOM      6  O   UNL     1       4.222   2.056  17.628  0.00  0.00    +0.000 OA
ATOM      7  C   UNL     1       2.887   3.552  18.846  0.00  0.00    +0.000 A 
ATOM      8  N   UNL     1       2.224   2.510  19.427  0.00  0.00    +0.000 NA
ATOM      9  C   UNL     1       1.229   2.857  20.265  0.00  0.00    +0.000 A 
ATOM     10  C   UNL     1       0.905   4.178  20.504  0.00  0.00    +0.000 A 
ATOM     11  N   UNL     1       1.566   5.208  19.920  0.00  0.00    +0.000 NA
ATOM     12  C   UNL     1       2.585   4.885  19.081  0.00  0.00    +0.000 A 
ENDROOT
BRANCH   1  13
ATOM     13  C   UNL     1       3.008   7.311  18.763  0.00  0.00    +0.000 C 
BRANCH  13  14
ATOM     14  C   UNL     1       2.146   7.976  17.676  0.00  0.00    +0.000 C 
BRANCH  14  15
ATOM     15  C   UNL     1       1.598   9.345  18.086  0.00  0.00    +0.000 C 
BRANCH  15  17
ATOM     16  C   UNL     1       0.202  10.516  19.831  0.00  0.00    +0.000 C 
ATOM     17  C   UNL     1       1.082   9.315  19.525  0.00  0.00    +0.000 C 
ENDBRANCH  15  17
ENDBRANCH  14  15
ENDBRANCH  13  14
ENDBRANCH   1  13
BRANCH   4  18
ATOM     18  C   UNL     1       5.787   4.006  16.474  0.00  0.00    +0.000 C 
BRANCH  18  19
ATOM     19  C   UNL     1       5.450   4.308  15.015  0.00  0.00    +0.000 C 
BRANCH  19  20
ATOM     20  C   UNL     1       6.672   4.533  14.126  0.00  0.00    +0.000 C 
BRANCH  20  21
ATOM     21  C   UNL     1       6.412   4.000  12.743  0.00  0.00    +0.000 C 
ATOM     22  O   UNL     1       7.220   4.009  11.823  0.00  0.00    +0.000 OA
BRANCH  21  23
ATOM     23  O   UNL     1       5.121   3.577  12.644  0.00  0.00    +0.000 OA
BRANCH  23  24
ATOM     24  C   UNL     1       4.838   2.805  11.468  0.00  0.00    +0.000 C 
ATOM     25  C   UNL     1       3.610   3.403  10.804  0.00  0.00    +0.000 C 
ENDBRANCH  23  24
ENDBRANCH  21  23
ENDBRANCH  20  21
ENDBRANCH  19  20
ENDBRANCH  18  19
ENDBRANCH   4  18
TORSDOF 10
ENDMDL
MODEL 3
REMARK VINA RESULT:      -6.5      1.296      1.578
REMARK  Name = 
REMARK  12 active torsions:
REMARK  status: ('A' for Active; 'I' for Inactive)
REMARK    1  A    between atoms: C_1  and  C_2
REMARK    2  A    between atoms: C_2  and  C_3
REMARK    3  A    between atoms: C_3  and  C_4
REMARK    4  A    between atoms: C_4  and  C_5
REMARK    5  A    between atoms: C_5  and  N_6
REMARK    6  A    between atoms: N_9  and  C_10
REMARK    7  A    between atoms: C_10  and  C_11
REMARK    8  A    between atoms: C_11  and  C_12
REMARK    9  A    between atoms: C_12  and  C_13
REMARK   10  A    between atoms: C_13  and  O_15
REMARK   11  A    between atoms: O_15  and  C_16
REMARK   12  A    between atoms: C_16  and  C_17
REMARK                            x       y       z     vdW  Elec       q    Type
REMARK                         _______ _______ _______ _____ _____    ______ ____
ROOT
ATOM      1  N   UNL     1       3.124   5.878  18.741  0.00  0.00    +0.000 N 
ATOM      2  C   UNL     1       3.804   5.699  17.546  0.00  0.00    +0.000 A 
ATOM      3  O   UNL     1       4.224   6.653  16.890  0.00  0.00    +0.000 OA
ATOM      4  N   UNL     1       3.974   4.388  17.115  0.00  0.00    +0.000 N 
ATOM      5  C   UNL     1       3.698   3.257  17.876  0.00  0.00    +0.000 A 
ATOM      6  O   UNL     1       3.906   2.112  17.484  0.00  0.00    +0.000 OA
ATOM      7  C   UNL     1       3.145   3.492  19.222  0.00  0.00    +0.000 A 
ATOM      8  N   UNL     1       2.949   2.403  20.021  0.00  0.00    +0.000 NA
ATOM      9  C   UNL     1       2.433   2.665  21.237  0.00  0.00    +0.000 A 
ATOM     10  C   UNL     1       2.117   3.950  21.631  0.00  0.00    +0.000 A 
ATOM     11  N   UNL     1       2.310   5.027  20.831  0.00  0.00    +0.000 NA
ATOM     12  C   UNL     1       2.844   4.791  19.604  0.00  0.00    +0.000 A 
ENDROOT
BRANCH   1  13
ATOM     13  C   UNL     1       2.802   7.238  19.183  0.00  0.00    +0.000 C 
BRANCH  13  14
ATOM     14  C   UNL     1       1.668   7.905  18.386  0.00  0.00    +0.000 C 
BRANCH  14  15
ATOM     15  C   UNL     1       1.964   9.358  18.004  0.00  0.00    +0.000 C 
BRANCH  15  17
ATOM     16  C   UNL     1       0.236   9.956  19.742  0.00  0.00    +0.000 C 
ATOM     17  C   UNL     1       0.783  10.264  18.358  0.00  0.00    +0.000 C 
ENDBRANCH  15  17
ENDBRANCH  14  15
ENDBRANCH  13  14
ENDBRANCH   1  13
BRANCH   4  18
ATOM     18  C   UNL     1       4.524   4.184  15.779  0.00  0.00    +0.000 C 
BRANCH  18  19
ATOM     19  C   UNL     1       5.970   3.692  15.777  0.00  0.00    +0.000 C 
BRANCH  19  20
ATOM     20  C   UNL     1       6.982   4.729  15.292  0.00  0.00    +0.000 C 
BRANCH  20  21
ATOM     21  C   UNL     1       7.437   5.587  16.442  0.00  0.00    +0.000 C 
ATOM     22  O   UNL     1       7.528   6.807  16.415  0.00  0.00    +0.000 OA
BRANCH  21  23
ATOM     23  O   UNL     1       7.808   4.800  17.490  0.00  0.00    +0.000 OA
BRANCH  23  24
ATOM     24  C   UNL     1       7.906   5.489  18.744  0.00  0.00    +0.000 C 
ATOM     25  C   UNL     1       6.576   5.340  19.462  0.00  0.00    +0.000 C 
ENDBRANCH  23  24
ENDBRANCH  21  23
ENDBRANCH  20  21
ENDBRANCH  19  20
ENDBRANCH  18  19
ENDBRANCH   4  18
TORSDOF 10
ENDMDL
MODEL 4
REMARK VINA RESULT:      -6.5      2.724      6.627
REMARK  Name = 
REMARK  12 active torsions:
REMARK  status: ('A' for Active; 'I' for Inactive)
REMARK    1  A    between atoms: C_1  and  C_2
REMARK    2  A    between atoms: C_2  and  C_3
REMARK    3  A    between atoms: C_3  and  C_4
REMARK    4  A    between atoms: C_4  and  C_5
REMARK    5  A    between atoms: C_5  and  N_6
REMARK    6  A    between atoms: N_9  and  C_10
REMARK    7  A    between atoms: C_10  and  C_11
REMARK    8  A    between atoms: C_11  and  C_12
REMARK    9  A    between atoms: C_12  and  C_13
REMARK   10  A    between atoms: C_13  and  O_15
REMARK   11  A    between atoms: O_15  and  C_16
REMARK   12  A    between atoms: C_16  and  C_17
REMARK                            x       y       z     vdW  Elec       q    Type
REMARK                         _______ _______ _______ _____ _____    ______ ____
ROOT
ATOM      1  N   UNL     1       5.209   4.567  16.571  0.00  0.00    +0.000 N 
ATOM      2  C   UNL     1       4.327   3.539  16.865  0.00  0.00    +0.000 A 
ATOM      3  O   UNL     1       3.706   2.945  15.984  0.00  0.00    +0.000 OA
ATOM      4  N   UNL     1       4.164   3.223  18.210  0.00  0.00    +0.000 N 
ATOM      5  C   UNL     1       4.953   3.712  19.245  0.00  0.00    +0.000 A 
ATOM      6  O   UNL     1       4.815   3.375  20.417  0.00  0.00    +0.000 OA
ATOM      7  C   UNL     1       6.008   4.670  18.868  0.00  0.00    +0.000 A 
ATOM      8  N   UNL     1       6.853   5.095  19.851  0.00  0.00    +0.000 NA
ATOM      9  C   UNL     1       7.794   5.977  19.462  0.00  0.00    +0.000 A 
ATOM     10  C   UNL     1       7.881   6.419  18.157  0.00  0.00    +0.000 A 
ATOM     11  N   UNL     1       7.036   5.995  17.185  0.00  0.00    +0.000 NA
ATOM     12  C   UNL     1       6.087   5.094  17.549  0.00  0.00    +0.000 A 
ENDROOT
BRANCH   1  13
ATOM     13  C   UNL     1       5.328   5.032  15.186  0.00  0.00    +0.000 C 
BRANCH  13  14
ATOM     14  C   UNL     1       6.238   4.158  14.305  0.00  0.00    +0.000 C 
BRANCH  14  15
ATOM     15  C   UNL     1       5.626   3.822  12.942  0.00  0.00    +0.000 C 
BRANCH  15  17
ATOM     16  C   UNL     1       6.828   2.178  11.452  0.00  0.00    +0.000 C 
ATOM     17  C   UNL     1       6.720   3.629  11.890  0.00  0.00    +0.000 C 
ENDBRANCH  15  17
ENDBRANCH  14  15
ENDBRANCH  13  14
ENDBRANCH   1  13
BRANCH   4  18
ATOM     18  C   UNL     1       3.112   2.272  18.555  0.00  0.00    +0.000 C 
BRANCH  18  19
ATOM     19  C   UNL     1       1.711   2.881  18.566  0.00  0.00    +0.000 C 
BRANCH  19  20
ATOM     20  C   UNL     1       0.909   2.577  19.830  0.00  0.00    +0.000 C 
BRANCH  20  21
ATOM     21  C   UNL     1       1.332   3.493  20.947  0.00  0.00    +0.000 C 
ATOM     22  O   UNL     1       1.847   3.129  21.997  0.00  0.00    +0.000 OA
BRANCH  21  23
ATOM     23  O   UNL     1       0.987   4.777  20.651  0.00  0.00    +0.000 OA
BRANCH  23  24
ATOM     24  C   UNL     1       2.085   5.699  20.642  0.00  0.00    +0.000 C 
ATOM     25  C   UNL     1       1.513   7.104  20.706  0.00  0.00    +0.000 C 
ENDBRANCH  23  24
ENDBRANCH  21  23
ENDBRANCH  20  21
ENDBRANCH  19  20
ENDBRANCH  18  19
ENDBRANCH   4  18
TORSDOF 10
ENDMDL
MODEL 5
REMARK VINA RESULT:      -6.5      2.243      5.932
REMARK  Name = 
REMARK  12 active torsions:
REMARK  status: ('A' for Active; 'I' for Inactive)
REMARK    1  A    between atoms: C_1  and  C_2
REMARK    2  A    between atoms: C_2  and  C_3
REMARK    3  A    between atoms: C_3  and  C_4
REMARK    4  A    between atoms: C_4  and  C_5
REMARK    5  A    between atoms: C_5  and  N_6
REMARK    6  A    between atoms: N_9  and  C_10
REMARK    7  A    between atoms: C_10  and  C_11
REMARK    8  A    between atoms: C_11  and  C_12
REMARK    9  A    between atoms: C_12  and  C_13
REMARK   10  A    between atoms: C_13  and  O_15
REMARK   11  A    between atoms: O_15  and  C_16
REMARK   12  A    between atoms: C_16  and  C_17
REMARK                            x       y       z     vdW  Elec       q    Type
REMARK                         _______ _______ _______ _____ _____    ______ ____
ROOT
ATOM      1  N   UNL     1       4.124   4.899  17.434  0.00  0.00    +0.000 N 
ATOM      2  C   UNL     1       3.720   6.211  17.628  0.00  0.00    +0.000 A 
ATOM      3  O   UNL     1       4.111   7.124  16.901  0.00  0.00    +0.000 OA
ATOM      4  N   UNL     1       2.862   6.448  18.697  0.00  0.00    +0.000 N 
ATOM      5  C   UNL     1       2.232   5.461  19.447  0.00  0.00    +0.000 A 
ATOM      6  O   UNL     1       1.441   5.704  20.354  0.00  0.00    +0.000 OA
ATOM      7  C   UNL     1       2.547   4.066  19.090  0.00  0.00    +0.000 A 
ATOM      8  N   UNL     1       1.873   3.080  19.751  0.00  0.00    +0.000 NA
ATOM      9  C   UNL     1       2.201   1.822  19.400  0.00  0.00    +0.000 A 
ATOM     10  C   UNL     1       3.161   1.561  18.441  0.00  0.00    +0.000 A 
ATOM     11  N   UNL     1       3.829   2.546  17.791  0.00  0.00    +0.000 NA
ATOM     12  C   UNL     1       3.506   3.825  18.117  0.00  0.00    +0.000 A 
ENDROOT
BRANCH   1  13
ATOM     13  C   UNL     1       5.126   4.605  16.406  0.00  0.00    +0.000 C 
BRANCH  13  14
ATOM     14  C   UNL     1       6.575   4.592  16.925  0.00  0.00    +0.000 C 
BRANCH  14  15
ATOM     15  C   UNL     1       7.330   5.897  16.657  0.00  0.00    +0.000 C 
BRANCH  15  17
ATOM     16  C   UNL     1       7.810   8.156  17.672  0.00  0.00    +0.000 C 
ATOM     17  C   UNL     1       7.516   6.692  17.951  0.00  0.00    +0.000 C 
ENDBRANCH  15  17
ENDBRANCH  14  15
ENDBRANCH  13  14
ENDBRANCH   1  13
BRANCH   4  18
ATOM     18  C   UNL     1       2.568   7.839  19.028  0.00  0.00    +0.000 C 
BRANCH  18  19
ATOM     19  C   UNL     1       1.611   8.516  18.049  0.00  0.00    +0.000 C 
BRANCH  19  20
ATOM     20  C   UNL     1       1.494  10.028  18.235  0.00  0.00    +0.000 C 
BRANCH  20  21
ATOM     21  C   UNL     1       0.239  10.361  18.997  0.00  0.00    +0.000 C 
ATOM     22  O   UNL     1      -0.890  10.366  18.525  0.00  0.00    +0.000 OA
BRANCH  21  23
ATOM     23  O   UNL     1       0.555  10.734  20.269  0.00  0.00    +0.000 OA
BRANCH  23  24
ATOM     24  C   UNL     1      -0.345  10.242  21.272  0.00  0.00    +0.000 C 
ATOM     25  C   UNL     1      -0.004   8.785  21.529  0.00  0.00    +0.000 C 
ENDBRANCH  23  24
ENDBRANCH  21  23
ENDBRANCH  20  21
ENDBRANCH  19  20
ENDBRANCH  18  19
ENDBRANCH   4  18
TORSDOF 10
ENDMDL
MODEL 6
REMARK VINA RESULT:      -6.5      2.117      3.232
REMARK  Name = 
REMARK  12 active torsions:
REMARK  status: ('A' for Active; 'I' for Inactive)
REMARK    1  A    between atoms: C_1  and  C_2
REMARK    2  A    between atoms: C_2  and  C_3
REMARK    3  A    between atoms: C_3  and  C_4
REMARK    4  A    between atoms: C_4  and  C_5
REMARK    5  A    between atoms: C_5  and  N_6
REMARK    6  A    between atoms: N_9  and  C_10
REMARK    7  A    between atoms: C_10  and  C_11
REMARK    8  A    between atoms: C_11  and  C_12
REMARK    9  A    between atoms: C_12  and  C_13
REMARK   10  A    between atoms: C_13  and  O_15
REMARK   11  A    between atoms: O_15  and  C_16
REMARK   12  A    between atoms: C_16  and  C_17
REMARK                            x       y       z     vdW  Elec       q    Type
REMARK                         _______ _______ _______ _____ _____    ______ ____
ROOT
ATOM      1  N   UNL     1       2.943   5.938  18.354  0.00  0.00    +0.000 N 
ATOM      2  C   UNL     1       4.260   6.072  17.942  0.00  0.00    +0.000 A 
ATOM      3  O   UNL     1       4.657   7.076  17.351  0.00  0.00    +0.000 OA
ATOM      4  N   UNL     1       5.110   5.004  18.214  0.00  0.00    +0.000 N 
ATOM      5  C   UNL     1       4.794   3.923  19.029  0.00  0.00    +0.000 A 
ATOM      6  O   UNL     1       5.585   3.020  19.289  0.00  0.00    +0.000 OA
ATOM      7  C   UNL     1       3.436   3.908  19.602  0.00  0.00    +0.000 A 
ATOM      8  N   UNL     1       3.133   2.905  20.477  0.00  0.00    +0.000 NA
ATOM      9  C   UNL     1       1.879   2.927  20.966  0.00  0.00    +0.000 A 
ATOM     10  C   UNL     1       0.969   3.897  20.594  0.00  0.00    +0.000 A 
ATOM     11  N   UNL     1       1.276   4.888  19.721  0.00  0.00    +0.000 NA
ATOM     12  C   UNL     1       2.540   4.897  19.224  0.00  0.00    +0.000 A 
ENDROOT
BRANCH   1  13
ATOM     13  C   UNL     1       1.971   6.972  17.984  0.00  0.00    +0.000 C 
BRANCH  13  14
ATOM     14  C   UNL     1       2.061   8.251  18.834  0.00  0.00    +0.000 C 
BRANCH  14  15
ATOM     15  C   UNL     1       1.733   9.526  18.052  0.00  0.00    +0.000 C 
BRANCH  15  17
ATOM     16  C   UNL     1       0.177  11.343  18.853  0.00  0.00    +0.000 C 
ATOM     17  C   UNL     1       0.277   9.941  18.276  0.00  0.00    +0.000 C 
ENDBRANCH  15  17
ENDBRANCH  14  15
ENDBRANCH  13  14
ENDBRANCH   1  13
BRANCH   4  18
ATOM     18  C   UNL     1       6.448   5.044  17.634  0.00  0.00    +0.000 C 
BRANCH  18  19
ATOM     19  C   UNL     1       6.582   4.246  16.339  0.00  0.00    +0.000 C 
BRANCH  19  20
ATOM     20  C   UNL     1       6.065   4.976  15.100  0.00  0.00    +0.000 C 
BRANCH  20  21
ATOM     21  C   UNL     1       7.051   4.843  13.970  0.00  0.00    +0.000 C 
ATOM     22  O   UNL     1       8.050   5.534  13.824  0.00  0.00    +0.000 OA
BRANCH  21  23
ATOM     23  O   UNL     1       6.624   3.892  13.092  0.00  0.00    +0.000 OA
BRANCH  23  24
ATOM     24  C   UNL     1       5.198   3.762  13.006  0.00  0.00    +0.000 C 
ATOM     25  C   UNL     1       4.871   3.086  11.687  0.00  0.00    +0.000 C 
ENDBRANCH  23  24
ENDBRANCH  21  23
ENDBRANCH  20  21
ENDBRANCH  19  20
ENDBRANCH  18  19
ENDBRANCH   4  18
TORSDOF 10
ENDMDL
MODEL 7
REMARK VINA RESULT:      -6.4      2.031      5.971
REMARK  Name = 
REMARK  12 active torsions:
REMARK  status: ('A' for Active; 'I' for Inactive)
REMARK    1  A    between atoms: C_1  and  C_2
REMARK    2  A    between atoms: C_2  and  C_3
REMARK    3  A    between atoms: C_3  and  C_4
REMARK    4  A    between atoms: C_4  and  C_5
REMARK    5  A    between atoms: C_5  and  N_6
REMARK    6  A    between atoms: N_9  and  C_10
REMARK    7  A    between atoms: C_10  and  C_11
REMARK    8  A    between atoms: C_11  and  C_12
REMARK    9  A    between atoms: C_12  and  C_13
REMARK   10  A    between atoms: C_13  and  O_15
REMARK   11  A    between atoms: O_15  and  C_16
REMARK   12  A    between atoms: C_16  and  C_17
REMARK                            x       y       z     vdW  Elec       q    Type
REMARK                         _______ _______ _______ _____ _____    ______ ____
ROOT
ATOM      1  N   UNL     1       6.408   5.329  17.824  0.00  0.00    +0.000 N 
ATOM      2  C   UNL     1       5.350   5.109  18.690  0.00  0.00    +0.000 A 
ATOM      3  O   UNL     1       5.312   5.615  19.812  0.00  0.00    +0.000 OA
ATOM      4  N   UNL     1       4.336   4.272  18.236  0.00  0.00    +0.000 N 
ATOM      5  C   UNL     1       4.208   3.811  16.930  0.00  0.00    +0.000 A 
ATOM      6  O   UNL     1       3.273   3.113  16.548  0.00  0.00    +0.000 OA
ATOM      7  C   UNL     1       5.263   4.220  15.985  0.00  0.00    +0.000 A 
ATOM      8  N   UNL     1       5.113   3.856  14.678  0.00  0.00    +0.000 NA
ATOM      9  C   UNL     1       6.105   4.243  13.854  0.00  0.00    +0.000 A 
ATOM     10  C   UNL     1       7.198   4.951  14.314  0.00  0.00    +0.000 A 
ATOM     11  N   UNL     1       7.343   5.306  15.615  0.00  0.00    +0.000 NA
ATOM     12  C   UNL     1       6.347   4.940  16.464  0.00  0.00    +0.000 A 
ENDROOT
BRANCH   1  13
ATOM     13  C   UNL     1       7.566   6.098  18.292  0.00  0.00    +0.000 C 
BRANCH  13  14
ATOM     14  C   UNL     1       7.690   7.495  17.660  0.00  0.00    +0.000 C 
BRANCH  14  15
ATOM     15  C   UNL     1       8.501   8.478  18.508  0.00  0.00    +0.000 C 
BRANCH  15  17
ATOM     16  C   UNL     1       9.443  10.818  18.486  0.00  0.00    +0.000 C 
ATOM     17  C   UNL     1       8.329   9.909  17.994  0.00  0.00    +0.000 C 
ENDBRANCH  15  17
ENDBRANCH  14  15
ENDBRANCH  13  14
ENDBRANCH   1  13
BRANCH   4  18
ATOM     18  C   UNL     1       3.304   3.882  19.193  0.00  0.00    +0.000 C 
BRANCH  18  19
ATOM     19  C   UNL     1       2.138   4.864  19.274  0.00  0.00    +0.000 C 
BRANCH  19  20
ATOM     20  C   UNL     1       1.881   5.413  20.676  0.00  0.00    +0.000 C 
BRANCH  20  21
ATOM     21  C   UNL     1       1.608   6.892  20.613  0.00  0.00    +0.000 C 
ATOM     22  O   UNL     1       0.837   7.497  21.346  0.00  0.00    +0.000 OA
BRANCH  21  23
ATOM     23  O   UNL     1       2.285   7.444  19.567  0.00  0.00    +0.000 OA
BRANCH  23  24
ATOM     24  C   UNL     1       1.822   8.745  19.181  0.00  0.00    +0.000 C 
ATOM     25  C   UNL     1       1.770   8.790  17.664  0.00  0.00    +0.000 C 
ENDBRANCH  23  24
ENDBRANCH  21  23
ENDBRANCH  20  21
ENDBRANCH  19  20
ENDBRANCH  18  19
ENDBRANCH   4  18
TORSDOF 10
ENDMDL
MODEL 8
REMARK VINA RESULT:      -6.4      3.039      6.599
REMARK  Name = 
REMARK  12 active torsions:
REMARK  status: ('A' for Active; 'I' for Inactive)
REMARK    1  A    between atoms: C_1  and  C_2
REMARK    2  A    between atoms: C_2  and  C_3
REMARK    3  A    between atoms: C_3  and  C_4
REMARK    4  A    between atoms: C_4  and  C_5
REMARK    5  A    between atoms: C_5  and  N_6
REMARK    6  A    between atoms: N_9  and  C_10
REMARK    7  A    between atoms: C_10  and  C_11
REMARK    8  A    between atoms: C_11  and  C_12
REMARK    9  A    between atoms: C_12  and  C_13
REMARK   10  A    between atoms: C_13  and  O_15
REMARK   11  A    between atoms: O_15  and  C_16
REMARK   12  A    between atoms: C_16  and  C_17
REMARK                            x       y       z     vdW  Elec       q    Type
REMARK                         _______ _______ _______ _____ _____    ______ ____
ROOT
ATOM      1  N   UNL     1       4.961   3.974  16.580  0.00  0.00    +0.000 N 
ATOM      2  C   UNL     1       3.602   3.899  16.845  0.00  0.00    +0.000 A 
ATOM      3  O   UNL     1       2.840   3.233  16.144  0.00  0.00    +0.000 OA
ATOM      4  N   UNL     1       3.138   4.629  17.934  0.00  0.00    +0.000 N 
ATOM      5  C   UNL     1       3.947   5.253  18.878  0.00  0.00    +0.000 A 
ATOM      6  O   UNL     1       3.506   5.849  19.856  0.00  0.00    +0.000 OA
ATOM      7  C   UNL     1       5.402   5.154  18.662  0.00  0.00    +0.000 A 
ATOM      8  N   UNL     1       6.217   5.681  19.621  0.00  0.00    +0.000 NA
ATOM      9  C   UNL     1       7.537   5.576  19.376  0.00  0.00    +0.000 A 
ATOM     10  C   UNL     1       8.019   4.984  18.225  0.00  0.00    +0.000 A 
ATOM     11  N   UNL     1       7.203   4.467  17.275  0.00  0.00    +0.000 NA
ATOM     12  C   UNL     1       5.866   4.546  17.505  0.00  0.00    +0.000 A 
ENDROOT
BRANCH   1  13
ATOM     13  C   UNL     1       5.489   3.331  15.373  0.00  0.00    +0.000 C 
BRANCH  13  14
ATOM     14  C   UNL     1       5.455   4.223  14.119  0.00  0.00    +0.000 C 
BRANCH  14  15
ATOM     15  C   UNL     1       6.436   3.781  13.030  0.00  0.00    +0.000 C 
BRANCH  15  17
ATOM     16  C   UNL     1       4.382   3.388  11.619  0.00  0.00    +0.000 C 
ATOM     17  C   UNL     1       5.748   2.858  12.022  0.00  0.00    +0.000 C 
ENDBRANCH  15  17
ENDBRANCH  14  15
ENDBRANCH  13  14
ENDBRANCH   1  13
BRANCH   4  18
ATOM     18  C   UNL     1       1.693   4.711  18.124  0.00  0.00    +0.000 C 
BRANCH  18  19
ATOM     19  C   UNL     1       1.088   3.470  18.778  0.00  0.00    +0.000 C 
BRANCH  19  20
ATOM     20  C   UNL     1       0.696   3.665  20.242  0.00  0.00    +0.000 C 
BRANCH  20  21
ATOM     21  C   UNL     1       1.618   2.879  21.134  0.00  0.00    +0.000 C 
ATOM     22  O   UNL     1       1.374   2.559  22.290  0.00  0.00    +0.000 OA
BRANCH  21  23
ATOM     23  O   UNL     1       2.797   2.645  20.492  0.00  0.00    +0.000 OA
BRANCH  23  24
ATOM     24  C   UNL     1       3.749   1.891  21.256  0.00  0.00    +0.000 C 
ATOM     25  C   UNL     1       5.004   1.739  20.415  0.00  0.00    +0.000 C 
ENDBRANCH  23  24
ENDBRANCH  21  23
ENDBRANCH  20  21
ENDBRANCH  19  20
ENDBRANCH  18  19
ENDBRANCH   4  18
TORSDOF 10
ENDMDL
MODEL 9
REMARK VINA RESULT:      -6.3      2.265      6.145
REMARK  Name = 
REMARK  12 active torsions:
REMARK  status: ('A' for Active; 'I' for Inactive)
REMARK    1  A    between atoms: C_1  and  C_2
REMARK    2  A    between atoms: C_2  and  C_3
REMARK    3  A    between atoms: C_3  and  C_4
REMARK    4  A    between atoms: C_4  and  C_5
REMARK    5  A    between atoms: C_5  and  N_6
REMARK    6  A    between atoms: N_9  and  C_10
REMARK    7  A    between atoms: C_10  and  C_11
REMARK    8  A    between atoms: C_11  and  C_12
REMARK    9  A    between atoms: C_12  and  C_13
REMARK   10  A    between atoms: C_13  and  O_15
REMARK   11  A    between atoms: O_15  and  C_16
REMARK   12  A    between atoms: C_16  and  C_17
REMARK                            x       y       z     vdW  Elec       q    Type
REMARK                         _______ _______ _______ _____ _____    ______ ____
ROOT
ATOM      1  N   UNL     1       4.862   5.989  17.428  0.00  0.00    +0.000 N 
ATOM      2  C   UNL     1       5.345   4.902  18.139  0.00  0.00    +0.000 A 
ATOM      3  O   UNL     1       6.386   4.327  17.819  0.00  0.00    +0.000 OA
ATOM      4  N   UNL     1       4.586   4.480  19.225  0.00  0.00    +0.000 N 
ATOM      5  C   UNL     1       3.508   5.176  19.762  0.00  0.00    +0.000 A 
ATOM      6  O   UNL     1       2.888   4.800  20.753  0.00  0.00    +0.000 OA
ATOM      7  C   UNL     1       3.135   6.431  19.085  0.00  0.00    +0.000 A 
ATOM      8  N   UNL     1       2.139   7.177  19.646  0.00  0.00    +0.000 NA
ATOM      9  C   UNL     1       1.827   8.309  18.987  0.00  0.00    +0.000 A 
ATOM     10  C   UNL     1       2.471   8.674  17.821  0.00  0.00    +0.000 A 
ATOM     11  N   UNL     1       3.457   7.926  17.268  0.00  0.00    +0.000 NA
ATOM     12  C   UNL     1       3.802   6.786  17.921  0.00  0.00    +0.000 A 
ENDROOT
BRANCH   1  13
ATOM     13  C   UNL     1       5.549   6.401  16.200  0.00  0.00    +0.000 C 
BRANCH  13  14
ATOM     14  C   UNL     1       5.245   5.513  14.981  0.00  0.00    +0.000 C 
BRANCH  14  15
ATOM     15  C   UNL     1       6.484   4.824  14.404  0.00  0.00    +0.000 C 
BRANCH  15  17
ATOM     16  C   UNL     1       6.817   3.820  12.114  0.00  0.00    +0.000 C 
ATOM     17  C   UNL     1       6.084   3.705  13.440  0.00  0.00    +0.000 C 
ENDBRANCH  15  17
ENDBRANCH  14  15
ENDBRANCH  13  14
ENDBRANCH   1  13
BRANCH   4  18
ATOM     18  C   UNL     1       4.976   3.233  19.877  0.00  0.00    +0.000 C 
BRANCH  18  19
ATOM     19  C   UNL     1       3.999   2.083  19.640  0.00  0.00    +0.000 C 
BRANCH  19  20
ATOM     20  C   UNL     1       3.755   1.766  18.166  0.00  0.00    +0.000 C 
BRANCH  20  21
ATOM     21  C   UNL     1       2.438   2.344  17.722  0.00  0.00    +0.000 C 
ATOM     22  O   UNL     1       2.300   3.186  16.845  0.00  0.00    +0.000 OA
BRANCH  21  23
ATOM     23  O   UNL     1       1.430   1.849  18.495  0.00  0.00    +0.000 OA
BRANCH  23  24
ATOM     24  C   UNL     1       0.470   2.829  18.914  0.00  0.00    +0.000 C 
ATOM     25  C   UNL     1       0.587   2.979  20.421  0.00  0.00    +0.000 C 
ENDBRANCH  23  24
ENDBRANCH  21  23
ENDBRANCH  20  21
ENDBRANCH  19  20
ENDBRANCH  18  19
ENDBRANCH   4  18
TORSDOF 10
ENDMDL
