MODEL 1
REMARK VINA RESULT:      -7.3      0.000      0.000
REMARK  Name = 
REMARK  17 active torsions:
REMARK  status: ('A' for Active; 'I' for Inactive)
REMARK    1  A    between atoms: C_1  and  C_2
REMARK    2  A    between atoms: C_2  and  C_3
REMARK    3  A    between atoms: N_4  and  O_5
REMARK    4  A    between atoms: C_6  and  C_7
REMARK    5  A    between atoms: C_10  and  O_11
REMARK    6  A    between atoms: O_11  and  C_12
REMARK    7  A    between atoms: C_12  and  C_13
REMARK    8  A    between atoms: N_15  and  CA_16
REMARK    9  A    between atoms: CA_16  and  CB_17
REMARK   10  A    between atoms: CA_16  and  C_22
REMARK   11  A    between atoms: CB_17  and  CG_18
REMARK   12  A    between atoms: CG_18  and  CD_19
REMARK   13  A    between atoms: CD_19  and  CE_20
REMARK   14  A    between atoms: CE_20  and  NZ_21
REMARK   15  A    between atoms: C_22  and  OXT_24
REMARK   16  A    between atoms: C_29  and  C_30
REMARK   17  A    between atoms: C_29  and  C_31
REMARK                            x       y       z     vdW  Elec       q    Type
REMARK                         _______ _______ _______ _____ _____    ______ ____
ROOT
ATOM      1  C   UNK A   0       1.213   9.666  19.263  0.00  0.00    +0.000 A 
ATOM      2  C   UNK A   0       1.874   9.659  18.026  0.00  0.00    +0.000 A 
ATOM      3  C   UNK A   0       2.591   8.541  17.578  0.00  0.00    +0.000 A 
ATOM      4  C   UNK A   0       2.717   7.408  18.377  0.00  0.00    +0.000 A 
ATOM      5  C   UNK A   0       2.088   7.388  19.616  0.00  0.00    +0.000 A 
ATOM      6  C   UNK A   0       1.334   8.495  20.041  0.00  0.00    +0.000 A 
ENDROOT
BRANCH   1  11
ATOM      7  C   UNK A   0      -0.786  13.916  18.947  0.00  0.00    +0.000 C 
ATOM      8  C   UNK A   0      -1.100  12.631  19.721  0.00  0.00    +0.000 C 
ATOM      9  C   UNK A   0      -2.619  12.410  19.740  0.00  0.00    +0.000 C 
ATOM     10  N   UNK A   0      -0.494  11.501  18.981  0.00  0.00    +0.000 N 
ATOM     11  C   UNK A   0       0.422  10.842  19.718  0.00  0.00    +0.000 C 
ATOM     12  N   UNK A   0       0.530  11.368  20.868  0.00  0.00    +0.000 N 
ATOM     13  O   UNK A   0       1.361  11.004  21.765  0.00  0.00    +0.000 OA
ATOM     14  C   UNK A   0      -0.401  12.519  21.121  0.00  0.00    +0.000 C 
ATOM     15  C   UNK A   0       0.477  13.708  21.528  0.00  0.00    +0.000 C 
ATOM     16  C   UNK A   0      -1.304  12.095  22.283  0.00  0.00    +0.000 C 
BRANCH  10  17
ATOM     17  O   UNK A   0      -0.833  11.027  17.720  0.00  0.00    +0.000 OA
ATOM     18  H   UNK A   0      -1.609  10.454  17.853  0.00  0.00    +0.000 HD
ENDBRANCH  10  17
ENDBRANCH   1  11
BRANCH   4  19
ATOM     19  O   UNK A   0       3.414   6.373  17.821  0.00  0.00    +0.000 OA
BRANCH  19  20
ATOM     20  C   UNK A   0       4.802   6.299  18.144  0.00  0.00    +0.000 C 
BRANCH  20  21
ATOM     21  C   UNK A   0       5.113   4.978  18.858  0.00  0.00    +0.000 C 
ATOM     22  O   UNK A   0       6.153   4.790  19.482  0.00  0.00    +0.000 OA
ATOM     23  N   LYS A   1       4.092   4.059  18.822  0.00  0.00    +0.000 N 
ATOM     24  H   LYS A   1       3.331   4.221  18.164  0.00  0.00    +0.000 HD
BRANCH  23  25
ATOM     25  CA  LYS A   1       4.139   2.767  19.504  0.00  0.00    +0.000 C 
BRANCH  25  26
ATOM     26  C   LYS A   1       3.792   1.665  18.490  0.00  0.00    +0.000 C 
ATOM     27  O   LYS A   1       2.955   1.802  17.601  0.00  0.00    +0.000 OA
BRANCH  26  28
ATOM     28  OXT LYS A   1       4.472   0.509  18.655  0.00  0.00    +0.000 OA
ATOM     29  HXT LYS A   1       4.060  -0.275  18.239  0.00  0.00    +0.000 HD
ENDBRANCH  26  28
ENDBRANCH  25  26
BRANCH  25  30
ATOM     30  CB  LYS A   1       3.181   2.745  20.713  0.00  0.00    +0.000 C 
BRANCH  30  31
ATOM     31  CG  LYS A   1       2.457   4.084  20.897  0.00  0.00    +0.000 C 
BRANCH  31  32
ATOM     32  CD  LYS A   1       1.073   4.118  20.250  0.00  0.00    +0.000 C 
BRANCH  32  33
ATOM     33  CE  LYS A   1       0.609   2.681  19.986  0.00  0.00    +0.000 C 
BRANCH  33  34
ATOM     34  NZ  LYS A   1       0.303   2.473  18.583  0.00  0.00    +0.000 NA
ATOM     35  HZ1 LYS A   1       0.886   3.082  18.007  0.00  0.00    +0.000 HD
ATOM     36  HZ2 LYS A   1      -0.658   2.763  18.406  0.00  0.00    +0.000 HD
ENDBRANCH  33  34
ENDBRANCH  32  33
ENDBRANCH  31  32
ENDBRANCH  30  31
ENDBRANCH  25  30
ENDBRANCH  23  25
ENDBRANCH  20  21
ENDBRANCH  19  20
ENDBRANCH   4  19
TORSDOF 13
ENDMDL
MODEL 2
REMARK VINA RESULT:      -7.3      2.787      4.071
REMARK  Name = 
REMARK  17 active torsions:
REMARK  status: ('A' for Active; 'I' for Inactive)
REMARK    1  A    between atoms: C_1  and  C_2
REMARK    2  A    between atoms: C_2  and  C_3
REMARK    3  A    between atoms: N_4  and  O_5
REMARK    4  A    between atoms: C_6  and  C_7
REMARK    5  A    between atoms: C_10  and  O_11
REMARK    6  A    between atoms: O_11  and  C_12
REMARK    7  A    between atoms: C_12  and  C_13
REMARK    8  A    between atoms: N_15  and  CA_16
REMARK    9  A    between atoms: CA_16  and  CB_17
REMARK   10  A    between atoms: CA_16  and  C_22
REMARK   11  A    between atoms: CB_17  and  CG_18
REMARK   12  A    between atoms: CG_18  and  CD_19
REMARK   13  A    between atoms: CD_19  and  CE_20
REMARK   14  A    between atoms: CE_20  and  NZ_21
REMARK   15  A    between atoms: C_22  and  OXT_24
REMARK   16  A    between atoms: C_29  and  C_30
REMARK   17  A    between atoms: C_29  and  C_31
REMARK                            x       y       z     vdW  Elec       q    Type
REMARK                         _______ _______ _______ _____ _____    ______ ____
ROOT
ATOM      1  C   UNK A   0       1.089   9.221  19.565  0.00  0.00    +0.000 A 
ATOM      2  C   UNK A   0       0.986   8.228  20.551  0.00  0.00    +0.000 A 
ATOM      3  C   UNK A   0       1.593   6.973  20.402  0.00  0.00    +0.000 A 
ATOM      4  C   UNK A   0       2.281   6.649  19.236  0.00  0.00    +0.000 A 
ATOM      5  C   UNK A   0       2.388   7.604  18.232  0.00  0.00    +0.000 A 
ATOM      6  C   UNK A   0       1.814   8.876  18.405  0.00  0.00    +0.000 A 
ENDROOT
BRANCH   1  11
ATOM      7  C   UNK A   0      -0.368  13.513  18.296  0.00  0.00    +0.000 C 
ATOM      8  C   UNK A   0      -0.807  12.493  19.352  0.00  0.00    +0.000 C 
ATOM      9  C   UNK A   0      -2.340  12.487  19.444  0.00  0.00    +0.000 C 
ATOM     10  N   UNK A   0      -0.383  11.153  18.887  0.00  0.00    +0.000 N 
ATOM     11  C   UNK A   0       0.474  10.564  19.745  0.00  0.00    +0.000 C 
ATOM     12  N   UNK A   0       0.700  11.321  20.739  0.00  0.00    +0.000 N 
ATOM     13  O   UNK A   0       1.517  11.064  21.684  0.00  0.00    +0.000 OA
ATOM     14  C   UNK A   0      -0.066  12.613  20.730  0.00  0.00    +0.000 C 
ATOM     15  C   UNK A   0       0.973  13.735  20.836  0.00  0.00    +0.000 C 
ATOM     16  C   UNK A   0      -0.962  12.591  21.971  0.00  0.00    +0.000 C 
BRANCH  10  17
ATOM     17  O   UNK A   0      -0.835  10.453  17.777  0.00  0.00    +0.000 OA
ATOM     18  H   UNK A   0      -1.735  10.784  17.605  0.00  0.00    +0.000 HD
ENDBRANCH  10  17
ENDBRANCH   1  11
BRANCH   4  19
ATOM     19  O   UNK A   0       2.854   5.408  19.219  0.00  0.00    +0.000 OA
BRANCH  19  20
ATOM     20  C   UNK A   0       4.145   5.301  19.817  0.00  0.00    +0.000 C 
BRANCH  20  21
ATOM     21  C   UNK A   0       5.116   4.594  18.863  0.00  0.00    +0.000 C 
ATOM     22  O   UNK A   0       5.783   3.619  19.197  0.00  0.00    +0.000 OA
ATOM     23  N   LYS A   1       5.107   5.083  17.578  0.00  0.00    +0.000 N 
ATOM     24  H   LYS A   1       4.651   5.979  17.415  0.00  0.00    +0.000 HD
BRANCH  23  25
ATOM     25  CA  LYS A   1       5.892   4.509  16.487  0.00  0.00    +0.000 C 
BRANCH  25  26
ATOM     26  C   LYS A   1       7.348   4.978  16.631  0.00  0.00    +0.000 C 
ATOM     27  O   LYS A   1       7.754   6.064  16.223  0.00  0.00    +0.000 OA
BRANCH  26  28
ATOM     28  OXT LYS A   1       8.171   4.093  17.237  0.00  0.00    +0.000 OA
ATOM     29  HXT LYS A   1       8.197   4.155  18.212  0.00  0.00    +0.000 HD
ENDBRANCH  26  28
ENDBRANCH  25  26
BRANCH  25  30
ATOM     30  CB  LYS A   1       5.304   4.906  15.116  0.00  0.00    +0.000 C 
BRANCH  30  31
ATOM     31  CG  LYS A   1       6.190   4.444  13.954  0.00  0.00    +0.000 C 
BRANCH  31  32
ATOM     32  CD  LYS A   1       5.455   3.566  12.943  0.00  0.00    +0.000 C 
BRANCH  32  33
ATOM     33  CE  LYS A   1       6.484   2.863  12.052  0.00  0.00    +0.000 C 
BRANCH  33  34
ATOM     34  NZ  LYS A   1       5.937   1.655  11.462  0.00  0.00    +0.000 NA
ATOM     35  HZ1 LYS A   1       5.113   1.885  10.903  0.00  0.00    +0.000 HD
ATOM     36  HZ2 LYS A   1       5.604   1.043  12.205  0.00  0.00    +0.000 HD
ENDBRANCH  33  34
ENDBRANCH  32  33
ENDBRANCH  31  32
ENDBRANCH  30  31
ENDBRANCH  25  30
ENDBRANCH  23  25
ENDBRANCH  20  21
ENDBRANCH  19  20
ENDBRANCH   4  19
TORSDOF 13
ENDMDL
MODEL 3
REMARK VINA RESULT:      -7.3      2.168      3.893
REMARK  Name = 
REMARK  17 active torsions:
REMARK  status: ('A' for Active; 'I' for Inactive)
REMARK    1  A    between atoms: C_1  and  C_2
REMARK    2  A    between atoms: C_2  and  C_3
REMARK    3  A    between atoms: N_4  and  O_5
REMARK    4  A    between atoms: C_6  and  C_7
REMARK    5  A    between atoms: C_10  and  O_11
REMARK    6  A    between atoms: O_11  and  C_12
REMARK    7  A    between atoms: C_12  and  C_13
REMARK    8  A    between atoms: N_15  and  CA_16
REMARK    9  A    between atoms: CA_16  and  CB_17
REMARK   10  A    between atoms: CA_16  and  C_22
REMARK   11  A    between atoms: CB_17  and  CG_18
REMARK   12  A    between atoms: CG_18  and  CD_19
REMARK   13  A    between atoms: CD_19  and  CE_20
REMARK   14  A    between atoms: CE_20  and  NZ_21
REMARK   15  A    between atoms: C_22  and  OXT_24
REMARK   16  A    between atoms: C_29  and  C_30
REMARK   17  A    between atoms: C_29  and  C_31
REMARK                            x       y       z     vdW  Elec       q    Type
REMARK                         _______ _______ _______ _____ _____    ______ ____
ROOT
ATOM      1  C   UNK A   0       1.160   9.506  19.271  0.00  0.00    +0.000 A 
ATOM      2  C   UNK A   0       1.387   8.399  20.101  0.00  0.00    +0.000 A 
ATOM      3  C   UNK A   0       2.110   7.282  19.661  0.00  0.00    +0.000 A 
ATOM      4  C   UNK A   0       2.586   7.210  18.354  0.00  0.00    +0.000 A 
ATOM      5  C   UNK A   0       2.363   8.284  17.500  0.00  0.00    +0.000 A 
ATOM      6  C   UNK A   0       1.676   9.420  17.961  0.00  0.00    +0.000 A 
ENDROOT
BRANCH   1  11
ATOM      7  C   UNK A   0      -0.649  13.847  19.058  0.00  0.00    +0.000 C 
ATOM      8  C   UNK A   0      -1.016  12.560  19.806  0.00  0.00    +0.000 C 
ATOM      9  C   UNK A   0      -2.544  12.407  19.829  0.00  0.00    +0.000 C 
ATOM     10  N   UNK A   0      -0.465  11.421  19.038  0.00  0.00    +0.000 N 
ATOM     11  C   UNK A   0       0.424  10.706  19.755  0.00  0.00    +0.000 C 
ATOM     12  N   UNK A   0       0.561  11.202  20.916  0.00  0.00    +0.000 N 
ATOM     13  O   UNK A   0       1.380  10.782  21.800  0.00  0.00    +0.000 OA
ATOM     14  C   UNK A   0      -0.316  12.388  21.199  0.00  0.00    +0.000 C 
ATOM     15  C   UNK A   0       0.616  13.527  21.626  0.00  0.00    +0.000 C 
ATOM     16  C   UNK A   0      -1.231  11.979  22.357  0.00  0.00    +0.000 C 
BRANCH  10  17
ATOM     17  O   UNK A   0      -0.831  10.991  17.770  0.00  0.00    +0.000 OA
ATOM     18  H   UNK A   0       0.004  10.794  17.307  0.00  0.00    +0.000 HD
ENDBRANCH  10  17
ENDBRANCH   1  11
BRANCH   4  19
ATOM     19  O   UNK A   0       3.300   6.086  18.051  0.00  0.00    +0.000 OA
BRANCH  19  20
ATOM     20  C   UNK A   0       3.556   5.189  19.130  0.00  0.00    +0.000 C 
BRANCH  20  21
ATOM     21  C   UNK A   0       5.066   5.009  19.327  0.00  0.00    +0.000 C 
ATOM     22  O   UNK A   0       5.540   4.189  20.108  0.00  0.00    +0.000 OA
ATOM     23  N   LYS A   1       5.843   5.772  18.488  0.00  0.00    +0.000 N 
ATOM     24  H   LYS A   1       5.390   6.532  17.983  0.00  0.00    +0.000 HD
BRANCH  23  25
ATOM     25  CA  LYS A   1       7.302   5.701  18.446  0.00  0.00    +0.000 C 
BRANCH  25  26
ATOM     26  C   LYS A   1       7.850   7.092  18.091  0.00  0.00    +0.000 C 
ATOM     27  O   LYS A   1       8.586   7.740  18.832  0.00  0.00    +0.000 OA
BRANCH  26  28
ATOM     28  OXT LYS A   1       7.451   7.569  16.891  0.00  0.00    +0.000 OA
ATOM     29  HXT LYS A   1       7.337   8.539  16.850  0.00  0.00    +0.000 HD
ENDBRANCH  26  28
ENDBRANCH  25  26
BRANCH  25  30
ATOM     30  CB  LYS A   1       7.774   4.633  17.437  0.00  0.00    +0.000 C 
BRANCH  30  31
ATOM     31  CG  LYS A   1       6.638   4.168  16.518  0.00  0.00    +0.000 C 
BRANCH  31  32
ATOM     32  CD  LYS A   1       6.737   4.731  15.102  0.00  0.00    +0.000 C 
BRANCH  32  33
ATOM     33  CE  LYS A   1       5.412   5.413  14.742  0.00  0.00    +0.000 C 
BRANCH  33  34
ATOM     34  NZ  LYS A   1       5.187   6.595  15.553  0.00  0.00    +0.000 NA
ATOM     35  HZ1 LYS A   1       4.475   6.401  16.258  0.00  0.00    +0.000 HD
ATOM     36  HZ2 LYS A   1       4.802   7.333  14.966  0.00  0.00    +0.000 HD
ENDBRANCH  33  34
ENDBRANCH  32  33
ENDBRANCH  31  32
ENDBRANCH  30  31
ENDBRANCH  25  30
ENDBRANCH  23  25
ENDBRANCH  20  21
ENDBRANCH  19  20
ENDBRANCH   4  19
TORSDOF 13
ENDMDL
MODEL 4
REMARK VINA RESULT:      -7.2      7.575      8.604
REMARK  Name = 
REMARK  17 active torsions:
REMARK  status: ('A' for Active; 'I' for Inactive)
REMARK    1  A    between atoms: C_1  and  C_2
REMARK    2  A    between atoms: C_2  and  C_3
REMARK    3  A    between atoms: N_4  and  O_5
REMARK    4  A    between atoms: C_6  and  C_7
REMARK    5  A    between atoms: C_10  and  O_11
REMARK    6  A    between atoms: O_11  and  C_12
REMARK    7  A    between atoms: C_12  and  C_13
REMARK    8  A    between atoms: N_15  and  CA_16
REMARK    9  A    between atoms: CA_16  and  CB_17
REMARK   10  A    between atoms: CA_16  and  C_22
REMARK   11  A    between atoms: CB_17  and  CG_18
REMARK   12  A    between atoms: CG_18  and  CD_19
REMARK   13  A    between atoms: CD_19  and  CE_20
REMARK   14  A    between atoms: CE_20  and  NZ_21
REMARK   15  A    between atoms: C_22  and  OXT_24
REMARK   16  A    between atoms: C_29  and  C_30
REMARK   17  A    between atoms: C_29  and  C_31
REMARK                            x       y       z     vdW  Elec       q    Type
REMARK                         _______ _______ _______ _____ _____    ______ ____
ROOT
ATOM      1  C   UNK A   0       9.827  13.318  19.062  0.00  0.00    +0.000 A 
ATOM      2  C   UNK A   0       9.506  12.634  17.881  0.00  0.00    +0.000 A 
ATOM      3  C   UNK A   0       9.191  11.268  17.880  0.00  0.00    +0.000 A 
ATOM      4  C   UNK A   0       9.240  10.525  19.057  0.00  0.00    +0.000 A 
ATOM      5  C   UNK A   0       9.571  11.168  20.243  0.00  0.00    +0.000 A 
ATOM      6  C   UNK A   0       9.843  12.548  20.244  0.00  0.00    +0.000 A 
ENDROOT
BRANCH   1  11
ATOM      7  C   UNK A   0      12.333  17.220  19.871  0.00  0.00    +0.000 C 
ATOM      8  C   UNK A   0      11.275  16.811  18.839  0.00  0.00    +0.000 C 
ATOM      9  C   UNK A   0      11.657  17.386  17.468  0.00  0.00    +0.000 C 
ATOM     10  N   UNK A   0      11.303  15.335  18.728  0.00  0.00    +0.000 N 
ATOM     11  C   UNK A   0      10.124  14.776  19.063  0.00  0.00    +0.000 C 
ATOM     12  N   UNK A   0       9.285  15.671  19.394  0.00  0.00    +0.000 N 
ATOM     13  O   UNK A   0       8.104  15.446  19.820  0.00  0.00    +0.000 OA
ATOM     14  C   UNK A   0       9.793  17.079  19.276  0.00  0.00    +0.000 C 
ATOM     15  C   UNK A   0       9.607  17.725  20.653  0.00  0.00    +0.000 C 
ATOM     16  C   UNK A   0       8.907  17.770  18.235  0.00  0.00    +0.000 C 
BRANCH  10  17
ATOM     17  O   UNK A   0      12.330  14.536  18.244  0.00  0.00    +0.000 OA
ATOM     18  H   UNK A   0      11.909  13.909  17.629  0.00  0.00    +0.000 HD
ENDBRANCH  10  17
ENDBRANCH   1  11
BRANCH   4  19
ATOM     19  O   UNK A   0       8.885   9.211  18.935  0.00  0.00    +0.000 OA
BRANCH  19  20
ATOM     20  C   UNK A   0       8.065   8.878  17.816  0.00  0.00    +0.000 C 
BRANCH  20  21
ATOM     21  C   UNK A   0       7.726   7.383  17.830  0.00  0.00    +0.000 C 
ATOM     22  O   UNK A   0       8.115   6.622  18.712  0.00  0.00    +0.000 OA
ATOM     23  N   LYS A   1       6.873   6.984  16.828  0.00  0.00    +0.000 N 
ATOM     24  H   LYS A   1       6.719   7.628  16.053  0.00  0.00    +0.000 HD
BRANCH  23  25
ATOM     25  CA  LYS A   1       6.355   5.624  16.698  0.00  0.00    +0.000 C 
BRANCH  25  26
ATOM     26  C   LYS A   1       6.653   5.120  15.277  0.00  0.00    +0.000 C 
ATOM     27  O   LYS A   1       7.758   5.203  14.747  0.00  0.00    +0.000 OA
BRANCH  26  28
ATOM     28  OXT LYS A   1       5.594   4.581  14.633  0.00  0.00    +0.000 OA
ATOM     29  HXT LYS A   1       5.651   4.601  13.657  0.00  0.00    +0.000 HD
ENDBRANCH  26  28
ENDBRANCH  25  26
BRANCH  25  30
ATOM     30  CB  LYS A   1       4.844   5.577  17.008  0.00  0.00    +0.000 C 
BRANCH  30  31
ATOM     31  CG  LYS A   1       4.496   4.468  18.007  0.00  0.00    +0.000 C 
BRANCH  31  32
ATOM     32  CD  LYS A   1       3.675   3.336  17.394  0.00  0.00    +0.000 C 
BRANCH  32  33
ATOM     33  CE  LYS A   1       2.340   3.227  18.138  0.00  0.00    +0.000 C 
BRANCH  33  34
ATOM     34  NZ  LYS A   1       1.302   4.000  17.480  0.00  0.00    +0.000 NA
ATOM     35  HZ1 LYS A   1       0.517   3.393  17.240  0.00  0.00    +0.000 HD
ATOM     36  HZ2 LYS A   1       1.661   4.351  16.593  0.00  0.00    +0.000 HD
ENDBRANCH  33  34
ENDBRANCH  32  33
ENDBRANCH  31  32
ENDBRANCH  30  31
ENDBRANCH  25  30
ENDBRANCH  23  25
ENDBRANCH  20  21
ENDBRANCH  19  20
ENDBRANCH   4  19
TORSDOF 13
ENDMDL
MODEL 5
REMARK VINA RESULT:      -7.2      2.769      4.947
REMARK  Name = 
REMARK  17 active torsions:
REMARK  status: ('A' for Active; 'I' for Inactive)
REMARK    1  A    between atoms: C_1  and  C_2
REMARK    2  A    between atoms: C_2  and  C_3
REMARK    3  A    between atoms: N_4  and  O_5
REMARK    4  A    between atoms: C_6  and  C_7
REMARK    5  A    between atoms: C_10  and  O_11
REMARK    6  A    between atoms: O_11  and  C_12
REMARK    7  A    between atoms: C_12  and  C_13
REMARK    8  A    between atoms: N_15  and  CA_16
REMARK    9  A    between atoms: CA_16  and  CB_17
REMARK   10  A    between atoms: CA_16  and  C_22
REMARK   11  A    between atoms: CB_17  and  CG_18
REMARK   12  A    between atoms: CG_18  and  CD_19
REMARK   13  A    between atoms: CD_19  and  CE_20
REMARK   14  A    between atoms: CE_20  and  NZ_21
REMARK   15  A    between atoms: C_22  and  OXT_24
REMARK   16  A    between atoms: C_29  and  C_30
REMARK   17  A    between atoms: C_29  and  C_31
REMARK                            x       y       z     vdW  Elec       q    Type
REMARK                         _______ _______ _______ _____ _____    ______ ____
ROOT
ATOM      1  C   UNK A   0       1.204   8.926  19.605  0.00  0.00    +0.000 A 
ATOM      2  C   UNK A   0       1.894   8.698  18.405  0.00  0.00    +0.000 A 
ATOM      3  C   UNK A   0       2.540   7.482  18.144  0.00  0.00    +0.000 A 
ATOM      4  C   UNK A   0       2.566   6.469  19.099  0.00  0.00    +0.000 A 
ATOM      5  C   UNK A   0       1.907   6.669  20.306  0.00  0.00    +0.000 A 
ATOM      6  C   UNK A   0       1.223   7.874  20.545  0.00  0.00    +0.000 A 
ENDROOT
BRANCH   1  11
ATOM      7  C   UNK A   0      -1.329  12.046  22.057  0.00  0.00    +0.000 C 
ATOM      8  C   UNK A   0      -0.283  12.144  20.939  0.00  0.00    +0.000 C 
ATOM      9  C   UNK A   0       0.632  13.347  21.207  0.00  0.00    +0.000 C 
ATOM     10  N   UNK A   0       0.554  10.925  20.999  0.00  0.00    +0.000 N 
ATOM     11  C   UNK A   0       0.487  10.205  19.862  0.00  0.00    +0.000 C 
ATOM     12  N   UNK A   0      -0.287  10.764  19.026  0.00  0.00    +0.000 N 
ATOM     13  O   UNK A   0      -0.600  10.287  17.884  0.00  0.00    +0.000 OA
ATOM     14  C   UNK A   0      -0.867  12.071  19.485  0.00  0.00    +0.000 C 
ATOM     15  C   UNK A   0      -2.389  11.932  19.381  0.00  0.00    +0.000 C 
ATOM     16  C   UNK A   0      -0.356  13.135  18.510  0.00  0.00    +0.000 C 
BRANCH  10  17
ATOM     17  O   UNK A   0       1.422  10.535  22.010  0.00  0.00    +0.000 OA
ATOM     18  H   UNK A   0       1.426  11.268  22.652  0.00  0.00    +0.000 HD
ENDBRANCH  10  17
ENDBRANCH   1  11
BRANCH   4  19
ATOM     19  O   UNK A   0       3.202   5.321  18.719  0.00  0.00    +0.000 OA
BRANCH  19  20
ATOM     20  C   UNK A   0       4.221   4.842  19.596  0.00  0.00    +0.000 C 
BRANCH  20  21
ATOM     21  C   UNK A   0       5.601   5.301  19.109  0.00  0.00    +0.000 C 
ATOM     22  O   UNK A   0       6.621   5.158  19.777  0.00  0.00    +0.000 OA
ATOM     23  N   LYS A   1       5.615   5.797  17.827  0.00  0.00    +0.000 N 
ATOM     24  H   LYS A   1       4.720   6.027  17.398  0.00  0.00    +0.000 HD
BRANCH  23  25
ATOM     25  CA  LYS A   1       6.831   6.216  17.134  0.00  0.00    +0.000 C 
BRANCH  25  26
ATOM     26  C   LYS A   1       7.495   4.975  16.516  0.00  0.00    +0.000 C 
ATOM     27  O   LYS A   1       7.473   4.722  15.314  0.00  0.00    +0.000 OA
BRANCH  26  28
ATOM     28  OXT LYS A   1       8.106   4.158  17.403  0.00  0.00    +0.000 OA
ATOM     29  HXT LYS A   1       7.837   4.286  18.334  0.00  0.00    +0.000 HD
ENDBRANCH  26  28
ENDBRANCH  25  26
BRANCH  25  30
ATOM     30  CB  LYS A   1       7.790   6.950  18.095  0.00  0.00    +0.000 C 
BRANCH  30  31
ATOM     31  CG  LYS A   1       7.990   8.417  17.698  0.00  0.00    +0.000 C 
BRANCH  31  32
ATOM     32  CD  LYS A   1       8.760   9.226  18.740  0.00  0.00    +0.000 C 
BRANCH  32  33
ATOM     33  CE  LYS A   1       9.019  10.632  18.188  0.00  0.00    +0.000 C 
BRANCH  33  34
ATOM     34  NZ  LYS A   1      10.241  11.197  18.731  0.00  0.00    +0.000 NA
ATOM     35  HZ1 LYS A   1      10.970  10.482  18.762  0.00  0.00    +0.000 HD
ATOM     36  HZ2 LYS A   1      10.080  11.469  19.699  0.00  0.00    +0.000 HD
ENDBRANCH  33  34
ENDBRANCH  32  33
ENDBRANCH  31  32
ENDBRANCH  30  31
ENDBRANCH  25  30
ENDBRANCH  23  25
ENDBRANCH  20  21
ENDBRANCH  19  20
ENDBRANCH   4  19
TORSDOF 13
ENDMDL
MODEL 6
REMARK VINA RESULT:      -7.2      2.316      4.052
REMARK  Name = 
REMARK  17 active torsions:
REMARK  status: ('A' for Active; 'I' for Inactive)
REMARK    1  A    between atoms: C_1  and  C_2
REMARK    2  A    between atoms: C_2  and  C_3
REMARK    3  A    between atoms: N_4  and  O_5
REMARK    4  A    between atoms: C_6  and  C_7
REMARK    5  A    between atoms: C_10  and  O_11
REMARK    6  A    between atoms: O_11  and  C_12
REMARK    7  A    between atoms: C_12  and  C_13
REMARK    8  A    between atoms: N_15  and  CA_16
REMARK    9  A    between atoms: CA_16  and  CB_17
REMARK   10  A    between atoms: CA_16  and  C_22
REMARK   11  A    between atoms: CB_17  and  CG_18
REMARK   12  A    between atoms: CG_18  and  CD_19
REMARK   13  A    between atoms: CD_19  and  CE_20
REMARK   14  A    between atoms: CE_20  and  NZ_21
REMARK   15  A    between atoms: C_22  and  OXT_24
REMARK   16  A    between atoms: C_29  and  C_30
REMARK   17  A    between atoms: C_29  and  C_31
REMARK                            x       y       z     vdW  Elec       q    Type
REMARK                         _______ _______ _______ _____ _____    ______ ____
ROOT
ATOM      1  C   UNK A   0       1.121   9.491  19.463  0.00  0.00    +0.000 A 
ATOM      2  C   UNK A   0       1.607   9.278  18.164  0.00  0.00    +0.000 A 
ATOM      3  C   UNK A   0       2.253   8.087  17.804  0.00  0.00    +0.000 A 
ATOM      4  C   UNK A   0       2.484   7.088  18.746  0.00  0.00    +0.000 A 
ATOM      5  C   UNK A   0       2.030   7.275  20.046  0.00  0.00    +0.000 A 
ATOM      6  C   UNK A   0       1.344   8.452  20.391  0.00  0.00    +0.000 A 
ENDROOT
BRANCH   1  11
ATOM      7  C   UNK A   0      -0.601  13.829  18.848  0.00  0.00    +0.000 C 
ATOM      8  C   UNK A   0      -1.002  12.619  19.700  0.00  0.00    +0.000 C 
ATOM      9  C   UNK A   0      -2.532  12.496  19.716  0.00  0.00    +0.000 C 
ATOM     10  N   UNK A   0      -0.464  11.408  19.042  0.00  0.00    +0.000 N 
ATOM     11  C   UNK A   0       0.403  10.742  19.831  0.00  0.00    +0.000 C 
ATOM     12  N   UNK A   0       0.536  11.335  20.946  0.00  0.00    +0.000 N 
ATOM     13  O   UNK A   0       1.336  10.979  21.874  0.00  0.00    +0.000 OA
ATOM     14  C   UNK A   0      -0.322  12.557  21.112  0.00  0.00    +0.000 C 
ATOM     15  C   UNK A   0       0.627  13.711  21.451  0.00  0.00    +0.000 C 
ATOM     16  C   UNK A   0      -1.258  12.268  22.289  0.00  0.00    +0.000 C 
BRANCH  10  17
ATOM     17  O   UNK A   0      -0.823  10.874  17.812  0.00  0.00    +0.000 OA
ATOM     18  H   UNK A   0      -1.316  10.058  18.011  0.00  0.00    +0.000 HD
ENDBRANCH  10  17
ENDBRANCH   1  11
BRANCH   4  19
ATOM     19  O   UNK A   0       3.095   5.963  18.269  0.00  0.00    +0.000 OA
BRANCH  19  20
ATOM     20  C   UNK A   0       3.438   4.972  19.236  0.00  0.00    +0.000 C 
BRANCH  20  21
ATOM     21  C   UNK A   0       4.940   4.668  19.178  0.00  0.00    +0.000 C 
ATOM     22  O   UNK A   0       5.427   3.639  19.640  0.00  0.00    +0.000 OA
ATOM     23  N   LYS A   1       5.681   5.594  18.484  0.00  0.00    +0.000 N 
ATOM     24  H   LYS A   1       5.240   6.487  18.267  0.00  0.00    +0.000 HD
BRANCH  23  25
ATOM     25  CA  LYS A   1       7.115   5.464  18.236  0.00  0.00    +0.000 C 
BRANCH  25  26
ATOM     26  C   LYS A   1       7.715   6.871  18.082  0.00  0.00    +0.000 C 
ATOM     27  O   LYS A   1       7.464   7.615  17.137  0.00  0.00    +0.000 OA
BRANCH  26  28
ATOM     28  OXT LYS A   1       8.564   7.236  19.068  0.00  0.00    +0.000 OA
ATOM     29  HXT LYS A   1       9.046   8.071  18.909  0.00  0.00    +0.000 HD
ENDBRANCH  26  28
ENDBRANCH  25  26
BRANCH  25  30
ATOM     30  CB  LYS A   1       7.382   4.596  16.988  0.00  0.00    +0.000 C 
BRANCH  30  31
ATOM     31  CG  LYS A   1       6.367   4.866  15.871  0.00  0.00    +0.000 C 
BRANCH  31  32
ATOM     32  CD  LYS A   1       6.551   3.962  14.654  0.00  0.00    +0.000 C 
BRANCH  32  33
ATOM     33  CE  LYS A   1       6.762   4.833  13.411  0.00  0.00    +0.000 C 
BRANCH  33  34
ATOM     34  NZ  LYS A   1       8.009   5.571  13.487  0.00  0.00    +0.000 NA
ATOM     35  HZ1 LYS A   1       7.999   6.339  12.815  0.00  0.00    +0.000 HD
ATOM     36  HZ2 LYS A   1       8.773   4.961  13.199  0.00  0.00    +0.000 HD
ENDBRANCH  33  34
ENDBRANCH  32  33
ENDBRANCH  31  32
ENDBRANCH  30  31
ENDBRANCH  25  30
ENDBRANCH  23  25
ENDBRANCH  20  21
ENDBRANCH  19  20
ENDBRANCH   4  19
TORSDOF 13
ENDMDL
MODEL 7
REMARK VINA RESULT:      -7.1      7.316      8.388
REMARK  Name = 
REMARK  17 active torsions:
REMARK  status: ('A' for Active; 'I' for Inactive)
REMARK    1  A    between atoms: C_1  and  C_2
REMARK    2  A    between atoms: C_2  and  C_3
REMARK    3  A    between atoms: N_4  and  O_5
REMARK    4  A    between atoms: C_6  and  C_7
REMARK    5  A    between atoms: C_10  and  O_11
REMARK    6  A    between atoms: O_11  and  C_12
REMARK    7  A    between atoms: C_12  and  C_13
REMARK    8  A    between atoms: N_15  and  CA_16
REMARK    9  A    between atoms: CA_16  and  CB_17
REMARK   10  A    between atoms: CA_16  and  C_22
REMARK   11  A    between atoms: CB_17  and  CG_18
REMARK   12  A    between atoms: CG_18  and  CD_19
REMARK   13  A    between atoms: CD_19  and  CE_20
REMARK   14  A    between atoms: CE_20  and  NZ_21
REMARK   15  A    between atoms: C_22  and  OXT_24
REMARK   16  A    between atoms: C_29  and  C_30
REMARK   17  A    between atoms: C_29  and  C_31
REMARK                            x       y       z     vdW  Elec       q    Type
REMARK                         _______ _______ _______ _____ _____    ______ ____
ROOT
ATOM      1  C   UNK A   0       9.548  13.140  19.399  0.00  0.00    +0.000 A 
ATOM      2  C   UNK A   0       9.567  12.192  20.433  0.00  0.00    +0.000 A 
ATOM      3  C   UNK A   0       9.347  10.830  20.190  0.00  0.00    +0.000 A 
ATOM      4  C   UNK A   0       9.047  10.374  18.909  0.00  0.00    +0.000 A 
ATOM      5  C   UNK A   0       9.005  11.289  17.865  0.00  0.00    +0.000 A 
ATOM      6  C   UNK A   0       9.269  12.648  18.107  0.00  0.00    +0.000 A 
ENDROOT
BRANCH   1  11
ATOM      7  C   UNK A   0       8.916  17.791  19.036  0.00  0.00    +0.000 C 
ATOM      8  C   UNK A   0       9.481  16.859  20.115  0.00  0.00    +0.000 C 
ATOM      9  C   UNK A   0       9.035  17.356  21.497  0.00  0.00    +0.000 C 
ATOM     10  N   UNK A   0       8.886  15.520  19.909  0.00  0.00    +0.000 N 
ATOM     11  C   UNK A   0       9.819  14.581  19.657  0.00  0.00    +0.000 C 
ATOM     12  N   UNK A   0      10.980  15.095  19.659  0.00  0.00    +0.000 N 
ATOM     13  O   UNK A   0      12.059  14.470  19.390  0.00  0.00    +0.000 OA
ATOM     14  C   UNK A   0      11.016  16.560  19.986  0.00  0.00    +0.000 C 
ATOM     15  C   UNK A   0      11.738  17.249  18.823  0.00  0.00    +0.000 C 
ATOM     16  C   UNK A   0      11.829  16.693  21.278  0.00  0.00    +0.000 C 
BRANCH  10  17
ATOM     17  O   UNK A   0       7.556  15.148  20.043  0.00  0.00    +0.000 OA
ATOM     18  H   UNK A   0       7.389  14.500  19.335  0.00  0.00    +0.000 HD
ENDBRANCH  10  17
ENDBRANCH   1  11
BRANCH   4  19
ATOM     19  O   UNK A   0       8.882   9.022  18.792  0.00  0.00    +0.000 OA
BRANCH  19  20
ATOM     20  C   UNK A   0       7.916   8.584  17.839  0.00  0.00    +0.000 C 
BRANCH  20  21
ATOM     21  C   UNK A   0       7.781   7.056  17.881  0.00  0.00    +0.000 C 
ATOM     22  O   UNK A   0       8.003   6.398  18.893  0.00  0.00    +0.000 OA
ATOM     23  N   LYS A   1       7.301   6.497  16.721  0.00  0.00    +0.000 N 
ATOM     24  H   LYS A   1       7.287   7.078  15.884  0.00  0.00    +0.000 HD
BRANCH  23  25
ATOM     25  CA  LYS A   1       7.018   5.071  16.566  0.00  0.00    +0.000 C 
BRANCH  25  26
ATOM     26  C   LYS A   1       7.100   4.715  15.073  0.00  0.00    +0.000 C 
ATOM     27  O   LYS A   1       7.708   5.392  14.247  0.00  0.00    +0.000 OA
BRANCH  26  28
ATOM     28  OXT LYS A   1       6.434   3.593  14.720  0.00  0.00    +0.000 OA
ATOM     29  HXT LYS A   1       6.094   3.586  13.804  0.00  0.00    +0.000 HD
ENDBRANCH  26  28
ENDBRANCH  25  26
BRANCH  25  30
ATOM     30  CB  LYS A   1       5.638   4.715  17.157  0.00  0.00    +0.000 C 
BRANCH  30  31
ATOM     31  CG  LYS A   1       4.552   5.705  16.720  0.00  0.00    +0.000 C 
BRANCH  31  32
ATOM     32  CD  LYS A   1       3.798   6.332  17.891  0.00  0.00    +0.000 C 
BRANCH  32  33
ATOM     33  CE  LYS A   1       3.239   5.216  18.781  0.00  0.00    +0.000 C 
BRANCH  33  34
ATOM     34  NZ  LYS A   1       3.251   5.599  20.181  0.00  0.00    +0.000 NA
ATOM     35  HZ1 LYS A   1       4.212   5.755  20.490  0.00  0.00    +0.000 HD
ATOM     36  HZ2 LYS A   1       2.904   4.822  20.741  0.00  0.00    +0.000 HD
ENDBRANCH  33  34
ENDBRANCH  32  33
ENDBRANCH  31  32
ENDBRANCH  30  31
ENDBRANCH  25  30
ENDBRANCH  23  25
ENDBRANCH  20  21
ENDBRANCH  19  20
ENDBRANCH   4  19
TORSDOF 13
ENDMDL
MODEL 8
REMARK VINA RESULT:      -7.1      3.073      4.324
REMARK  Name = 
REMARK  17 active torsions:
REMARK  status: ('A' for Active; 'I' for Inactive)
REMARK    1  A    between atoms: C_1  and  C_2
REMARK    2  A    between atoms: C_2  and  C_3
REMARK    3  A    between atoms: N_4  and  O_5
REMARK    4  A    between atoms: C_6  and  C_7
REMARK    5  A    between atoms: C_10  and  O_11
REMARK    6  A    between atoms: O_11  and  C_12
REMARK    7  A    between atoms: C_12  and  C_13
REMARK    8  A    between atoms: N_15  and  CA_16
REMARK    9  A    between atoms: CA_16  and  CB_17
REMARK   10  A    between atoms: CA_16  and  C_22
REMARK   11  A    between atoms: CB_17  and  CG_18
REMARK   12  A    between atoms: CG_18  and  CD_19
REMARK   13  A    between atoms: CD_19  and  CE_20
REMARK   14  A    between atoms: CE_20  and  NZ_21
REMARK   15  A    between atoms: C_22  and  OXT_24
REMARK   16  A    between atoms: C_29  and  C_30
REMARK   17  A    between atoms: C_29  and  C_31
REMARK                            x       y       z     vdW  Elec       q    Type
REMARK                         _______ _______ _______ _____ _____    ______ ____
ROOT
ATOM      1  C   UNK A   0       1.142   9.031  19.690  0.00  0.00    +0.000 A 
ATOM      2  C   UNK A   0       0.975   8.055  20.683  0.00  0.00    +0.000 A 
ATOM      3  C   UNK A   0       1.671   6.839  20.647  0.00  0.00    +0.000 A 
ATOM      4  C   UNK A   0       2.520   6.535  19.586  0.00  0.00    +0.000 A 
ATOM      5  C   UNK A   0       2.695   7.474  18.577  0.00  0.00    +0.000 A 
ATOM      6  C   UNK A   0       2.028   8.709  18.641  0.00  0.00    +0.000 A 
ENDROOT
BRANCH   1  11
ATOM      7  C   UNK A   0      -0.400  13.195  18.125  0.00  0.00    +0.000 C 
ATOM      8  C   UNK A   0      -0.907  12.171  19.147  0.00  0.00    +0.000 C 
ATOM      9  C   UNK A   0      -2.436  12.069  19.044  0.00  0.00    +0.000 C 
ATOM     10  N   UNK A   0      -0.347  10.852  18.777  0.00  0.00    +0.000 N 
ATOM     11  C   UNK A   0       0.428  10.336  19.752  0.00  0.00    +0.000 C 
ATOM     12  N   UNK A   0       0.478  11.126  20.745  0.00  0.00    +0.000 N 
ATOM     13  O   UNK A   0       1.183  10.941  21.793  0.00  0.00    +0.000 OA
ATOM     14  C   UNK A   0      -0.357  12.366  20.602  0.00  0.00    +0.000 C 
ATOM     15  C   UNK A   0       0.589  13.554  20.807  0.00  0.00    +0.000 C 
ATOM     16  C   UNK A   0      -1.402  12.312  21.721  0.00  0.00    +0.000 C 
BRANCH  10  17
ATOM     17  O   UNK A   0      -0.609  10.102  17.639  0.00  0.00    +0.000 OA
ATOM     18  H   UNK A   0      -1.082  10.700  17.031  0.00  0.00    +0.000 HD
ENDBRANCH  10  17
ENDBRANCH   1  11
BRANCH   4  19
ATOM     19  O   UNK A   0       3.166   5.333  19.678  0.00  0.00    +0.000 OA
BRANCH  19  20
ATOM     20  C   UNK A   0       3.181   4.533  18.497  0.00  0.00    +0.000 C 
BRANCH  20  21
ATOM     21  C   UNK A   0       4.620   4.336  18.006  0.00  0.00    +0.000 C 
ATOM     22  O   UNK A   0       5.543   4.038  18.758  0.00  0.00    +0.000 OA
ATOM     23  N   LYS A   1       4.773   4.428  16.643  0.00  0.00    +0.000 N 
ATOM     24  H   LYS A   1       4.004   4.826  16.105  0.00  0.00    +0.000 HD
BRANCH  23  25
ATOM     25  CA  LYS A   1       6.040   4.196  15.951  0.00  0.00    +0.000 C 
BRANCH  25  26
ATOM     26  C   LYS A   1       6.615   5.552  15.514  0.00  0.00    +0.000 C 
ATOM     27  O   LYS A   1       7.752   5.695  15.072  0.00  0.00    +0.000 OA
BRANCH  26  28
ATOM     28  OXT LYS A   1       5.773   6.599  15.664  0.00  0.00    +0.000 OA
ATOM     29  HXT LYS A   1       5.054   6.648  15.003  0.00  0.00    +0.000 HD
ENDBRANCH  26  28
ENDBRANCH  25  26
BRANCH  25  30
ATOM     30  CB  LYS A   1       5.846   3.250  14.748  0.00  0.00    +0.000 C 
BRANCH  30  31
ATOM     31  CG  LYS A   1       5.552   4.018  13.454  0.00  0.00    +0.000 C 
BRANCH  31  32
ATOM     32  CD  LYS A   1       6.326   3.491  12.247  0.00  0.00    +0.000 C 
BRANCH  32  33
ATOM     33  CE  LYS A   1       5.506   2.387  11.571  0.00  0.00    +0.000 C 
BRANCH  33  34
ATOM     34  NZ  LYS A   1       6.257   1.148  11.482  0.00  0.00    +0.000 NA
ATOM     35  HZ1 LYS A   1       6.141   0.738  10.554  0.00  0.00    +0.000 HD
ATOM     36  HZ2 LYS A   1       5.863   0.472  12.134  0.00  0.00    +0.000 HD
ENDBRANCH  33  34
ENDBRANCH  32  33
ENDBRANCH  31  32
ENDBRANCH  30  31
ENDBRANCH  25  30
ENDBRANCH  23  25
ENDBRANCH  20  21
ENDBRANCH  19  20
ENDBRANCH   4  19
TORSDOF 13
ENDMDL
MODEL 9
REMARK VINA RESULT:      -7.1      7.528      8.523
REMARK  Name = 
REMARK  17 active torsions:
REMARK  status: ('A' for Active; 'I' for Inactive)
REMARK    1  A    between atoms: C_1  and  C_2
REMARK    2  A    between atoms: C_2  and  C_3
REMARK    3  A    between atoms: N_4  and  O_5
REMARK    4  A    between atoms: C_6  and  C_7
REMARK    5  A    between atoms: C_10  and  O_11
REMARK    6  A    between atoms: O_11  and  C_12
REMARK    7  A    between atoms: C_12  and  C_13
REMARK    8  A    between atoms: N_15  and  CA_16
REMARK    9  A    between atoms: CA_16  and  CB_17
REMARK   10  A    between atoms: CA_16  and  C_22
REMARK   11  A    between atoms: CB_17  and  CG_18
REMARK   12  A    between atoms: CG_18  and  CD_19
REMARK   13  A    between atoms: CD_19  and  CE_20
REMARK   14  A    between atoms: CE_20  and  NZ_21
REMARK   15  A    between atoms: C_22  and  OXT_24
REMARK   16  A    between atoms: C_29  and  C_30
REMARK   17  A    between atoms: C_29  and  C_31
REMARK                            x       y       z     vdW  Elec       q    Type
REMARK                         _______ _______ _______ _____ _____    ______ ____
ROOT
ATOM      1  C   UNK A   0       9.830  13.111  19.135  0.00  0.00    +0.000 A 
ATOM      2  C   UNK A   0       9.461  12.459  17.949  0.00  0.00    +0.000 A 
ATOM      3  C   UNK A   0       9.145  11.094  17.924  0.00  0.00    +0.000 A 
ATOM      4  C   UNK A   0       9.241  10.319  19.077  0.00  0.00    +0.000 A 
ATOM      5  C   UNK A   0       9.619  10.931  20.266  0.00  0.00    +0.000 A 
ATOM      6  C   UNK A   0       9.892  12.309  20.294  0.00  0.00    +0.000 A 
ENDROOT
BRANCH   1  11
ATOM      7  C   UNK A   0       9.182  17.675  18.181  0.00  0.00    +0.000 C 
ATOM      8  C   UNK A   0       9.838  16.894  19.325  0.00  0.00    +0.000 C 
ATOM      9  C   UNK A   0       9.519  17.586  20.658  0.00  0.00    +0.000 C 
ATOM     10  N   UNK A   0       9.223  15.549  19.362  0.00  0.00    +0.000 N 
ATOM     11  C   UNK A   0      10.127  14.569  19.163  0.00  0.00    +0.000 C 
ATOM     12  N   UNK A   0      11.285  15.061  18.991  0.00  0.00    +0.000 N 
ATOM     13  O   UNK A   0      12.333  14.387  18.717  0.00  0.00    +0.000 OA
ATOM     14  C   UNK A   0      11.354  16.556  19.105  0.00  0.00    +0.000 C 
ATOM     15  C   UNK A   0      11.971  17.065  17.797  0.00  0.00    +0.000 C 
ATOM     16  C   UNK A   0      12.281  16.855  20.288  0.00  0.00    +0.000 C 
BRANCH  10  17
ATOM     17  O   UNK A   0       7.909  15.220  19.665  0.00  0.00    +0.000 OA
ATOM     18  H   UNK A   0       7.357  15.816  19.127  0.00  0.00    +0.000 HD
ENDBRANCH  10  17
ENDBRANCH   1  11
BRANCH   4  19
ATOM     19  O   UNK A   0       8.880   9.009  18.935  0.00  0.00    +0.000 OA
BRANCH  19  20
ATOM     20  C   UNK A   0       8.060   8.698  17.809  0.00  0.00    +0.000 C 
BRANCH  20  21
ATOM     21  C   UNK A   0       7.728   7.201  17.790  0.00  0.00    +0.000 C 
ATOM     22  O   UNK A   0       8.061   6.435  18.690  0.00  0.00    +0.000 OA
ATOM     23  N   LYS A   1       6.946   6.806  16.731  0.00  0.00    +0.000 N 
ATOM     24  H   LYS A   1       6.840   7.455  15.952  0.00  0.00    +0.000 HD
BRANCH  23  25
ATOM     25  CA  LYS A   1       6.444   5.445  16.557  0.00  0.00    +0.000 C 
BRANCH  25  26
ATOM     26  C   LYS A   1       6.778   4.977  15.131  0.00  0.00    +0.000 C 
ATOM     27  O   LYS A   1       6.109   4.153  14.514  0.00  0.00    +0.000 OA
BRANCH  26  28
ATOM     28  OXT LYS A   1       7.887   5.536  14.597  0.00  0.00    +0.000 OA
ATOM     29  HXT LYS A   1       7.951   6.506  14.702  0.00  0.00    +0.000 HD
ENDBRANCH  26  28
ENDBRANCH  25  26
BRANCH  25  30
ATOM     30  CB  LYS A   1       4.927   5.376  16.832  0.00  0.00    +0.000 C 
BRANCH  30  31
ATOM     31  CG  LYS A   1       4.535   4.096  17.578  0.00  0.00    +0.000 C 
BRANCH  31  32
ATOM     32  CD  LYS A   1       3.040   4.005  17.881  0.00  0.00    +0.000 C 
BRANCH  32  33
ATOM     33  CE  LYS A   1       2.626   2.529  17.911  0.00  0.00    +0.000 C 
BRANCH  33  34
ATOM     34  NZ  LYS A   1       3.782   1.656  17.990  0.00  0.00    +0.000 NA
ATOM     35  HZ1 LYS A   1       3.952   1.392  18.961  0.00  0.00    +0.000 HD
ATOM     36  HZ2 LYS A   1       4.610   2.173  17.696  0.00  0.00    +0.000 HD
ENDBRANCH  33  34
ENDBRANCH  32  33
ENDBRANCH  31  32
ENDBRANCH  30  31
ENDBRANCH  25  30
ENDBRANCH  23  25
ENDBRANCH  20  21
ENDBRANCH  19  20
ENDBRANCH   4  19
TORSDOF 13
ENDMDL
