MODEL 1
REMARK VINA RESULT:      -7.2      0.000      0.000
REMARK  Name = 
REMARK  9 active torsions:
REMARK  status: ('A' for Active; 'I' for Inactive)
REMARK    1  A    between atoms: C_1  and  C_2
REMARK    2  A    between atoms: C_2  and  C_3
REMARK    3  A    between atoms: C_2  and  N_4
REMARK    4  A    between atoms: N_4  and  C_5
REMARK    5  A    between atoms: N_13  and  C_14
REMARK    6  A    between atoms: N_16  and  C_17
REMARK    7  A    between atoms: C_17  and  C_18
REMARK    8  A    between atoms: C_24  and  C_25
REMARK    9  A    between atoms: C_25  and  O_26
REMARK                            x       y       z     vdW  Elec       q    Type
REMARK                         _______ _______ _______ _____ _____    ______ ____
ROOT
ATOM      1  C   UNL     1       2.055   4.605  18.436  0.00  0.00    +0.000 C 
ATOM      2  C   UNL     1       3.324   4.323  17.584  0.00  0.00    +0.000 C 
ATOM      3  N   UNL     1       4.426   3.612  18.266  0.00  0.00    +0.000 NA
ATOM      4  C   UNL     1       3.860   2.388  18.859  0.00  0.00    +0.000 C 
ATOM      5  C   UNL     1       2.558   2.543  19.680  0.00  0.00    +0.000 C 
ATOM      6  O   UNL     1       1.571   3.419  19.103  0.00  0.00    +0.000 OA
ENDROOT
BRANCH   1  15
ATOM      7  C   UNL     1       1.499   9.163  20.021  0.00  0.00    +0.000 A 
ATOM      8  N   UNL     1       1.722   9.728  18.807  0.00  0.00    +0.000 NA
ATOM      9  C   UNL     1       2.085   8.939  17.778  0.00  0.00    +0.000 A 
ATOM     10  N   UNL     1       2.220   7.601  17.767  0.00  0.00    +0.000 NA
ATOM     11  C   UNL     1       2.010   7.075  18.982  0.00  0.00    +0.000 A 
ATOM     12  C   UNL     1       1.685   7.769  20.138  0.00  0.00    +0.000 A 
ATOM     13  N   UNL     1       1.554   6.898  21.200  0.00  0.00    +0.000 NA
ATOM     14  C   UNL     1       1.769   5.703  20.690  0.00  0.00    +0.000 A 
ATOM     15  N   UNL     1       2.040   5.749  19.342  0.00  0.00    +0.000 N 
BRANCH   7  16
ATOM     16  N   UNL     1       1.091   9.944  21.113  0.00  0.00    +0.000 N 
ATOM     17  H   UNL     1       1.656   9.683  21.922  0.00  0.00    +0.000 HD
BRANCH  16  19
ATOM     18  C   UNL     1      -0.599   9.850  22.864  0.00  0.00    +0.000 C 
ATOM     19  C   UNL     1      -0.351  10.003  21.361  0.00  0.00    +0.000 C 
ATOM     20  C   UNL     1      -0.924  11.339  20.886  0.00  0.00    +0.000 C 
ENDBRANCH  16  19
ENDBRANCH   7  16
ENDBRANCH   1  15
BRANCH   3  21
ATOM     21  C   UNL     1       5.129   4.504  19.200  0.00  0.00    +0.000 C 
BRANCH  21  22
ATOM     22  C   UNL     1       6.017   5.536  18.561  0.00  0.00    +0.000 A 
ATOM     23  C   UNL     1       5.753   6.432  17.543  0.00  0.00    +0.000 A 
ATOM     24  C   UNL     1       6.849   7.306  17.289  0.00  0.00    +0.000 A 
ATOM     25  C   UNL     1       7.916   7.055  18.121  0.00  0.00    +0.000 A 
ATOM     26  S   UNL     1       7.605   5.756  19.184  0.00  0.00    +0.000 S 
ENDBRANCH  21  22
ENDBRANCH   3  21
BRANCH   5  27
ATOM     27  C   UNL     1       2.781   2.837  21.169  0.00  0.00    +0.000 C 
BRANCH  27  28
ATOM     28  O   UNL     1       1.650   2.422  21.927  0.00  0.00    +0.000 OA
ATOM     29  H   UNL     1       1.984   2.034  22.754  0.00  0.00    +0.000 HD
ENDBRANCH  27  28
ENDBRANCH   5  27
TORSDOF 7
ENDMDL
MODEL 2
REMARK VINA RESULT:      -7.1      4.331      7.998
REMARK  Name = 
REMARK  9 active torsions:
REMARK  status: ('A' for Active; 'I' for Inactive)
REMARK    1  A    between atoms: C_1  and  C_2
REMARK    2  A    between atoms: C_2  and  C_3
REMARK    3  A    between atoms: C_2  and  N_4
REMARK    4  A    between atoms: N_4  and  C_5
REMARK    5  A    between atoms: N_13  and  C_14
REMARK    6  A    between atoms: N_16  and  C_17
REMARK    7  A    between atoms: C_17  and  C_18
REMARK    8  A    between atoms: C_24  and  C_25
REMARK    9  A    between atoms: C_25  and  O_26
REMARK                            x       y       z     vdW  Elec       q    Type
REMARK                         _______ _______ _______ _____ _____    ______ ____
ROOT
ATOM      1  C   UNL     1       0.977  11.737  20.475  0.00  0.00    +0.000 C 
ATOM      2  C   UNL     1       0.166  12.364  19.307  0.00  0.00    +0.000 C 
ATOM      3  N   UNL     1      -1.298  12.444  19.495  0.00  0.00    +0.000 NA
ATOM      4  C   UNL     1      -1.541  13.122  20.780  0.00  0.00    +0.000 C 
ATOM      5  C   UNL     1      -0.738  12.617  22.003  0.00  0.00    +0.000 C 
ATOM      6  O   UNL     1       0.652  12.334  21.748  0.00  0.00    +0.000 OA
ENDROOT
BRANCH   1  15
ATOM      7  C   UNL     1       2.240   7.145  19.515  0.00  0.00    +0.000 A 
ATOM      8  N   UNL     1       2.452   7.365  18.192  0.00  0.00    +0.000 NA
ATOM      9  C   UNL     1       2.159   8.575  17.678  0.00  0.00    +0.000 A 
ATOM     10  N   UNL     1       1.708   9.664  18.325  0.00  0.00    +0.000 NA
ATOM     11  C   UNL     1       1.494   9.410  19.623  0.00  0.00    +0.000 A 
ATOM     12  C   UNL     1       1.698   8.204  20.275  0.00  0.00    +0.000 A 
ATOM     13  N   UNL     1       1.361   8.314  21.609  0.00  0.00    +0.000 NA
ATOM     14  C   UNL     1       0.987   9.567  21.763  0.00  0.00    +0.000 A 
ATOM     15  N   UNL     1       1.058  10.284  20.591  0.00  0.00    +0.000 N 
BRANCH   7  16
ATOM     16  N   UNL     1       2.560   5.909  20.098  0.00  0.00    +0.000 N 
ATOM     17  H   UNL     1       3.478   5.623  19.756  0.00  0.00    +0.000 HD
BRANCH  16  19
ATOM     18  C   UNL     1       1.608   4.187  18.665  0.00  0.00    +0.000 C 
ATOM     19  C   UNL     1       1.525   4.876  20.030  0.00  0.00    +0.000 C 
ATOM     20  C   UNL     1       1.726   3.839  21.135  0.00  0.00    +0.000 C 
ENDBRANCH  16  19
ENDBRANCH   7  16
ENDBRANCH   1  15
BRANCH   3  21
ATOM     21  C   UNL     1      -1.920  11.120  19.349  0.00  0.00    +0.000 C 
BRANCH  21  22
ATOM     22  C   UNL     1      -2.423  10.792  17.969  0.00  0.00    +0.000 A 
ATOM     23  C   UNL     1      -1.900   9.950  17.007  0.00  0.00    +0.000 A 
ATOM     24  C   UNL     1      -2.736   9.852  15.858  0.00  0.00    +0.000 A 
ATOM     25  C   UNL     1      -3.872  10.619  15.976  0.00  0.00    +0.000 A 
ATOM     26  S   UNL     1      -3.917  11.471  17.454  0.00  0.00    +0.000 S 
ENDBRANCH  21  22
ENDBRANCH   3  21
BRANCH   5  27
ATOM     27  C   UNL     1      -1.417  11.484  22.781  0.00  0.00    +0.000 C 
BRANCH  27  28
ATOM     28  O   UNL     1      -2.715  11.887  23.204  0.00  0.00    +0.000 OA
ATOM     29  H   UNL     1      -3.040  11.211  23.824  0.00  0.00    +0.000 HD
ENDBRANCH  27  28
ENDBRANCH   5  27
TORSDOF 7
ENDMDL
MODEL 3
REMARK VINA RESULT:      -6.9      2.835      6.638
REMARK  Name = 
REMARK  9 active torsions:
REMARK  status: ('A' for Active; 'I' for Inactive)
REMARK    1  A    between atoms: C_1  and  C_2
REMARK    2  A    between atoms: C_2  and  C_3
REMARK    3  A    between atoms: C_2  and  N_4
REMARK    4  A    between atoms: N_4  and  C_5
REMARK    5  A    between atoms: N_13  and  C_14
REMARK    6  A    between atoms: N_16  and  C_17
REMARK    7  A    between atoms: C_17  and  C_18
REMARK    8  A    between atoms: C_24  and  C_25
REMARK    9  A    between atoms: C_25  and  O_26
REMARK                            x       y       z     vdW  Elec       q    Type
REMARK                         _______ _______ _______ _____ _____    ______ ____
ROOT
ATOM      1  C   UNL     1       4.086   3.950  19.707  0.00  0.00    +0.000 C 
ATOM      2  C   UNL     1       3.664   5.266  20.419  0.00  0.00    +0.000 C 
ATOM      3  N   UNL     1       2.320   5.787  20.090  0.00  0.00    +0.000 NA
ATOM      4  C   UNL     1       1.357   4.692  20.306  0.00  0.00    +0.000 C 
ATOM      5  C   UNL     1       1.708   3.318  19.690  0.00  0.00    +0.000 C 
ATOM      6  O   UNL     1       3.085   2.917  19.831  0.00  0.00    +0.000 OA
ENDROOT
BRANCH   1  15
ATOM      7  C   UNL     1       6.990   5.042  15.969  0.00  0.00    +0.000 A 
ATOM      8  N   UNL     1       7.472   6.179  16.534  0.00  0.00    +0.000 NA
ATOM      9  C   UNL     1       6.953   6.594  17.705  0.00  0.00    +0.000 A 
ATOM     10  N   UNL     1       6.012   5.994  18.456  0.00  0.00    +0.000 NA
ATOM     11  C   UNL     1       5.545   4.885  17.863  0.00  0.00    +0.000 A 
ATOM     12  C   UNL     1       5.946   4.370  16.640  0.00  0.00    +0.000 A 
ATOM     13  N   UNL     1       5.240   3.221  16.347  0.00  0.00    +0.000 NA
ATOM     14  C   UNL     1       4.450   3.034  17.385  0.00  0.00    +0.000 A 
ATOM     15  N   UNL     1       4.601   4.009  18.343  0.00  0.00    +0.000 N 
BRANCH   7  16
ATOM     16  N   UNL     1       7.523   4.557  14.765  0.00  0.00    +0.000 N 
ATOM     17  H   UNL     1       8.521   4.773  14.748  0.00  0.00    +0.000 HD
BRANCH  16  19
ATOM     18  C   UNL     1       7.794   5.406  12.499  0.00  0.00    +0.000 C 
ATOM     19  C   UNL     1       6.792   4.910  13.547  0.00  0.00    +0.000 C 
ATOM     20  C   UNL     1       6.043   3.695  12.998  0.00  0.00    +0.000 C 
ENDBRANCH  16  19
ENDBRANCH   7  16
ENDBRANCH   1  15
BRANCH   3  21
ATOM     21  C   UNL     1       2.305   6.390  18.749  0.00  0.00    +0.000 C 
BRANCH  21  22
ATOM     22  C   UNL     1       1.991   7.861  18.707  0.00  0.00    +0.000 A 
ATOM     23  C   UNL     1       2.073   8.759  17.661  0.00  0.00    +0.000 A 
ATOM     24  C   UNL     1       1.597  10.055  18.017  0.00  0.00    +0.000 A 
ATOM     25  C   UNL     1       1.167  10.107  19.323  0.00  0.00    +0.000 A 
ATOM     26  S   UNL     1       1.357   8.610  20.120  0.00  0.00    +0.000 S 
ENDBRANCH  21  22
ENDBRANCH   3  21
BRANCH   5  27
ATOM     27  C   UNL     1       1.200   3.118  18.257  0.00  0.00    +0.000 C 
BRANCH  27  28
ATOM     28  O   UNL     1       1.320   1.752  17.878  0.00  0.00    +0.000 OA
ATOM     29  H   UNL     1       2.237   1.481  18.059  0.00  0.00    +0.000 HD
ENDBRANCH  27  28
ENDBRANCH   5  27
TORSDOF 7
ENDMDL
MODEL 4
REMARK VINA RESULT:      -6.8      4.264      8.294
REMARK  Name = 
REMARK  9 active torsions:
REMARK  status: ('A' for Active; 'I' for Inactive)
REMARK    1  A    between atoms: C_1  and  C_2
REMARK    2  A    between atoms: C_2  and  C_3
REMARK    3  A    between atoms: C_2  and  N_4
REMARK    4  A    between atoms: N_4  and  C_5
REMARK    5  A    between atoms: N_13  and  C_14
REMARK    6  A    between atoms: N_16  and  C_17
REMARK    7  A    between atoms: C_17  and  C_18
REMARK    8  A    between atoms: C_24  and  C_25
REMARK    9  A    between atoms: C_25  and  O_26
REMARK                            x       y       z     vdW  Elec       q    Type
REMARK                         _______ _______ _______ _____ _____    ______ ____
ROOT
ATOM      1  C   UNL     1       0.921  11.898  20.563  0.00  0.00    +0.000 C 
ATOM      2  C   UNL     1       0.256  12.501  19.295  0.00  0.00    +0.000 C 
ATOM      3  N   UNL     1      -1.220  12.588  19.309  0.00  0.00    +0.000 NA
ATOM      4  C   UNL     1      -1.609  13.295  20.542  0.00  0.00    +0.000 C 
ATOM      5  C   UNL     1      -0.957  12.815  21.860  0.00  0.00    +0.000 C 
ATOM      6  O   UNL     1       0.451  12.524  21.776  0.00  0.00    +0.000 OA
ENDROOT
BRANCH   1  15
ATOM      7  C   UNL     1       2.096   7.262  19.713  0.00  0.00    +0.000 A 
ATOM      8  N   UNL     1       2.290   7.441  18.381  0.00  0.00    +0.000 NA
ATOM      9  C   UNL     1       2.007   8.641  17.837  0.00  0.00    +0.000 A 
ATOM     10  N   UNL     1       1.584   9.755  18.461  0.00  0.00    +0.000 NA
ATOM     11  C   UNL     1       1.387   9.541  19.770  0.00  0.00    +0.000 A 
ATOM     12  C   UNL     1       1.584   8.349  20.451  0.00  0.00    +0.000 A 
ATOM     13  N   UNL     1       1.271   8.502  21.787  0.00  0.00    +0.000 NA
ATOM     14  C   UNL     1       0.919   9.765  21.911  0.00  0.00    +0.000 A 
ATOM     15  N   UNL     1       0.982  10.448  20.719  0.00  0.00    +0.000 N 
BRANCH   7  16
ATOM     16  N   UNL     1       2.407   6.038  20.325  0.00  0.00    +0.000 N 
ATOM     17  H   UNL     1       3.354   6.100  20.700  0.00  0.00    +0.000 HD
BRANCH  16  19
ATOM     18  C   UNL     1       3.415   4.006  19.440  0.00  0.00    +0.000 C 
ATOM     19  C   UNL     1       2.130   4.834  19.539  0.00  0.00    +0.000 C 
ATOM     20  C   UNL     1       1.037   3.997  20.203  0.00  0.00    +0.000 C 
ENDBRANCH  16  19
ENDBRANCH   7  16
ENDBRANCH   1  15
BRANCH   3  21
ATOM     21  C   UNL     1      -1.826  11.263  19.118  0.00  0.00    +0.000 C 
BRANCH  21  22
ATOM     22  C   UNL     1      -2.879  11.182  18.047  0.00  0.00    +0.000 A 
ATOM     23  C   UNL     1      -4.191  11.615  18.053  0.00  0.00    +0.000 A 
ATOM     24  C   UNL     1      -4.833  11.426  16.795  0.00  0.00    +0.000 A 
ATOM     25  C   UNL     1      -3.993  10.856  15.866  0.00  0.00    +0.000 A 
ATOM     26  S   UNL     1      -2.448  10.530  16.515  0.00  0.00    +0.000 S 
ENDBRANCH  21  22
ENDBRANCH   3  21
BRANCH   5  27
ATOM     27  C   UNL     1      -1.728  11.700  22.577  0.00  0.00    +0.000 C 
BRANCH  27  28
ATOM     28  O   UNL     1      -2.709  12.259  23.444  0.00  0.00    +0.000 OA
ATOM     29  H   UNL     1      -3.530  12.351  22.931  0.00  0.00    +0.000 HD
ENDBRANCH  27  28
ENDBRANCH   5  27
TORSDOF 7
ENDMDL
MODEL 5
REMARK VINA RESULT:      -6.7      3.257      4.474
REMARK  Name = 
REMARK  9 active torsions:
REMARK  status: ('A' for Active; 'I' for Inactive)
REMARK    1  A    between atoms: C_1  and  C_2
REMARK    2  A    between atoms: C_2  and  C_3
REMARK    3  A    between atoms: C_2  and  N_4
REMARK    4  A    between atoms: N_4  and  C_5
REMARK    5  A    between atoms: N_13  and  C_14
REMARK    6  A    between atoms: N_16  and  C_17
REMARK    7  A    between atoms: C_17  and  C_18
REMARK    8  A    between atoms: C_24  and  C_25
REMARK    9  A    between atoms: C_25  and  O_26
REMARK                            x       y       z     vdW  Elec       q    Type
REMARK                         _______ _______ _______ _____ _____    ______ ____
ROOT
ATOM      1  C   UNL     1       4.668   5.170  18.687  0.00  0.00    +0.000 C 
ATOM      2  C   UNL     1       4.934   3.930  17.788  0.00  0.00    +0.000 C 
ATOM      3  N   UNL     1       6.005   4.070  16.779  0.00  0.00    +0.000 NA
ATOM      4  C   UNL     1       7.216   4.529  17.482  0.00  0.00    +0.000 C 
ATOM      5  C   UNL     1       7.053   5.723  18.452  0.00  0.00    +0.000 C 
ATOM      6  O   UNL     1       5.879   5.680  19.285  0.00  0.00    +0.000 OA
ENDROOT
BRANCH   1  15
ATOM      7  C   UNL     1       1.766   9.066  18.645  0.00  0.00    +0.000 A 
ATOM      8  N   UNL     1       1.224   8.811  19.863  0.00  0.00    +0.000 NA
ATOM      9  C   UNL     1       1.552   7.668  20.495  0.00  0.00    +0.000 A 
ATOM     10  N   UNL     1       2.416   6.718  20.097  0.00  0.00    +0.000 NA
ATOM     11  C   UNL     1       2.921   6.990  18.885  0.00  0.00    +0.000 A 
ATOM     12  C   UNL     1       2.634   8.096  18.099  0.00  0.00    +0.000 A 
ATOM     13  N   UNL     1       3.333   8.036  16.910  0.00  0.00    +0.000 NA
ATOM     14  C   UNL     1       4.046   6.932  16.991  0.00  0.00    +0.000 A 
ATOM     15  N   UNL     1       3.844   6.261  18.175  0.00  0.00    +0.000 N 
BRANCH   7  16
ATOM     16  N   UNL     1       1.476  10.259  17.964  0.00  0.00    +0.000 N 
ATOM     17  H   UNL     1       2.145  10.361  17.200  0.00  0.00    +0.000 HD
BRANCH  16  19
ATOM     18  C   UNL     1       2.274  12.531  18.319  0.00  0.00    +0.000 C 
ATOM     19  C   UNL     1       1.300  11.450  18.797  0.00  0.00    +0.000 C 
ATOM     20  C   UNL     1      -0.132  11.975  18.690  0.00  0.00    +0.000 C 
ENDBRANCH  16  19
ENDBRANCH   7  16
ENDBRANCH   1  15
BRANCH   3  21
ATOM     21  C   UNL     1       5.564   4.912  15.658  0.00  0.00    +0.000 C 
BRANCH  21  22
ATOM     22  C   UNL     1       5.913   4.398  14.288  0.00  0.00    +0.000 A 
ATOM     23  C   UNL     1       5.177   3.622  13.413  0.00  0.00    +0.000 A 
ATOM     24  C   UNL     1       5.842   3.425  12.169  0.00  0.00    +0.000 A 
ATOM     25  C   UNL     1       7.063   4.057  12.128  0.00  0.00    +0.000 A 
ATOM     26  S   UNL     1       7.416   4.862  13.591  0.00  0.00    +0.000 S 
ENDBRANCH  21  22
ENDBRANCH   3  21
BRANCH   5  27
ATOM     27  C   UNL     1       7.239   7.098  17.798  0.00  0.00    +0.000 C 
BRANCH  27  28
ATOM     28  O   UNL     1       7.801   6.954  16.499  0.00  0.00    +0.000 OA
ATOM     29  H   UNL     1       7.159   7.315  15.864  0.00  0.00    +0.000 HD
ENDBRANCH  27  28
ENDBRANCH   5  27
TORSDOF 7
ENDMDL
MODEL 6
REMARK VINA RESULT:      -6.6      2.571      6.590
REMARK  Name = 
REMARK  9 active torsions:
REMARK  status: ('A' for Active; 'I' for Inactive)
REMARK    1  A    between atoms: C_1  and  C_2
REMARK    2  A    between atoms: C_2  and  C_3
REMARK    3  A    between atoms: C_2  and  N_4
REMARK    4  A    between atoms: N_4  and  C_5
REMARK    5  A    between atoms: N_13  and  C_14
REMARK    6  A    between atoms: N_16  and  C_17
REMARK    7  A    between atoms: C_17  and  C_18
REMARK    8  A    between atoms: C_24  and  C_25
REMARK    9  A    between atoms: C_25  and  O_26
REMARK                            x       y       z     vdW  Elec       q    Type
REMARK                         _______ _______ _______ _____ _____    ______ ____
ROOT
ATOM      1  C   UNL     1       3.723   3.373  20.152  0.00  0.00    +0.000 C 
ATOM      2  C   UNL     1       3.338   4.576  21.059  0.00  0.00    +0.000 C 
ATOM      3  N   UNL     1       2.053   5.240  20.755  0.00  0.00    +0.000 NA
ATOM      4  C   UNL     1       1.013   4.197  20.727  0.00  0.00    +0.000 C 
ATOM      5  C   UNL     1       1.317   2.925  19.901  0.00  0.00    +0.000 C 
ATOM      6  O   UNL     1       2.655   2.409  20.043  0.00  0.00    +0.000 OA
ENDROOT
BRANCH   1  15
ATOM      7  C   UNL     1       7.029   4.622  16.819  0.00  0.00    +0.000 A 
ATOM      8  N   UNL     1       7.700   5.467  17.643  0.00  0.00    +0.000 NA
ATOM      9  C   UNL     1       7.204   5.710  18.871  0.00  0.00    +0.000 A 
ATOM     10  N   UNL     1       6.111   5.175  19.445  0.00  0.00    +0.000 NA
ATOM     11  C   UNL     1       5.463   4.359  18.602  0.00  0.00    +0.000 A 
ATOM     12  C   UNL     1       5.826   4.060  17.298  0.00  0.00    +0.000 A 
ATOM     13  N   UNL     1       4.916   3.190  16.733  0.00  0.00    +0.000 NA
ATOM     14  C   UNL     1       4.039   2.949  17.685  0.00  0.00    +0.000 A 
ATOM     15  N   UNL     1       4.327   3.625  18.848  0.00  0.00    +0.000 N 
BRANCH   7  16
ATOM     16  N   UNL     1       7.527   4.317  15.543  0.00  0.00    +0.000 N 
ATOM     17  H   UNL     1       8.538   4.453  15.554  0.00  0.00    +0.000 HD
BRANCH  16  19
ATOM     18  C   UNL     1       7.874   5.509  13.449  0.00  0.00    +0.000 C 
ATOM     19  C   UNL     1       6.832   4.938  14.414  0.00  0.00    +0.000 C 
ATOM     20  C   UNL     1       5.971   3.909  13.680  0.00  0.00    +0.000 C 
ENDBRANCH  16  19
ENDBRANCH   7  16
ENDBRANCH   1  15
BRANCH   3  21
ATOM     21  C   UNL     1       2.160   6.062  19.540  0.00  0.00    +0.000 C 
BRANCH  21  22
ATOM     22  C   UNL     1       1.707   7.489  19.684  0.00  0.00    +0.000 A 
ATOM     23  C   UNL     1       1.212   8.160  20.785  0.00  0.00    +0.000 A 
ATOM     24  C   UNL     1       0.979   9.541  20.522  0.00  0.00    +0.000 A 
ATOM     25  C   UNL     1       1.304   9.884  19.230  0.00  0.00    +0.000 A 
ATOM     26  S   UNL     1       1.863   8.544  18.334  0.00  0.00    +0.000 S 
ENDBRANCH  21  22
ENDBRANCH   3  21
BRANCH   5  27
ATOM     27  C   UNL     1       0.891   3.008  18.431  0.00  0.00    +0.000 C 
BRANCH  27  28
ATOM     28  O   UNL     1       0.241   1.805  18.037  0.00  0.00    +0.000 OA
ATOM     29  H   UNL     1      -0.716   1.979  18.038  0.00  0.00    +0.000 HD
ENDBRANCH  27  28
ENDBRANCH   5  27
TORSDOF 7
ENDMDL
MODEL 7
REMARK VINA RESULT:      -6.5      0.822      1.096
REMARK  Name = 
REMARK  9 active torsions:
REMARK  status: ('A' for Active; 'I' for Inactive)
REMARK    1  A    between atoms: C_1  and  C_2
REMARK    2  A    between atoms: C_2  and  C_3
REMARK    3  A    between atoms: C_2  and  N_4
REMARK    4  A    between atoms: N_4  and  C_5
REMARK    5  A    between atoms: N_13  and  C_14
REMARK    6  A    between atoms: N_16  and  C_17
REMARK    7  A    between atoms: C_17  and  C_18
REMARK    8  A    between atoms: C_24  and  C_25
REMARK    9  A    between atoms: C_25  and  O_26
REMARK                            x       y       z     vdW  Elec       q    Type
REMARK                         _______ _______ _______ _____ _____    ______ ____
ROOT
ATOM      1  C   UNL     1       2.176   4.632  18.444  0.00  0.00    +0.000 C 
ATOM      2  C   UNL     1       3.522   4.336  17.725  0.00  0.00    +0.000 C 
ATOM      3  N   UNL     1       4.557   3.650  18.528  0.00  0.00    +0.000 NA
ATOM      4  C   UNL     1       3.942   2.439  19.098  0.00  0.00    +0.000 C 
ATOM      5  C   UNL     1       2.567   2.608  19.787  0.00  0.00    +0.000 C 
ATOM      6  O   UNL     1       1.636   3.461  19.093  0.00  0.00    +0.000 OA
ENDROOT
BRANCH   1  15
ATOM      7  C   UNL     1       1.467   9.230  19.840  0.00  0.00    +0.000 A 
ATOM      8  N   UNL     1       1.813   9.763  18.640  0.00  0.00    +0.000 NA
ATOM      9  C   UNL     1       2.278   8.946  17.675  0.00  0.00    +0.000 A 
ATOM     10  N   UNL     1       2.412   7.609  17.714  0.00  0.00    +0.000 NA
ATOM     11  C   UNL     1       2.079   7.116  18.915  0.00  0.00    +0.000 A 
ATOM     12  C   UNL     1       1.638   7.840  20.012  0.00  0.00    +0.000 A 
ATOM     13  N   UNL     1       1.399   6.998  21.079  0.00  0.00    +0.000 NA
ATOM     14  C   UNL     1       1.663   5.790  20.626  0.00  0.00    +0.000 A 
ATOM     15  N   UNL     1       2.071   5.800  19.312  0.00  0.00    +0.000 N 
BRANCH   7  16
ATOM     16  N   UNL     1       0.949  10.040  20.863  0.00  0.00    +0.000 N 
ATOM     17  H   UNL     1       0.670   9.436  21.637  0.00  0.00    +0.000 HD
BRANCH  16  19
ATOM     18  C   UNL     1      -1.085  10.345  19.561  0.00  0.00    +0.000 C 
ATOM     19  C   UNL     1      -0.051  11.029  20.459  0.00  0.00    +0.000 C 
ATOM     20  C   UNL     1      -0.752  11.616  21.685  0.00  0.00    +0.000 C 
ENDBRANCH  16  19
ENDBRANCH   7  16
ENDBRANCH   1  15
BRANCH   3  21
ATOM     21  C   UNL     1       5.163   4.572  19.500  0.00  0.00    +0.000 C 
BRANCH  21  22
ATOM     22  C   UNL     1       6.189   5.519  18.938  0.00  0.00    +0.000 A 
ATOM     23  C   UNL     1       7.462   5.819  19.382  0.00  0.00    +0.000 A 
ATOM     24  C   UNL     1       8.146   6.712  18.508  0.00  0.00    +0.000 A 
ATOM     25  C   UNL     1       7.377   7.067  17.424  0.00  0.00    +0.000 A 
ATOM     26  S   UNL     1       5.832   6.345  17.472  0.00  0.00    +0.000 S 
ENDBRANCH  21  22
ENDBRANCH   3  21
BRANCH   5  27
ATOM     27  C   UNL     1       2.645   2.944  21.281  0.00  0.00    +0.000 C 
BRANCH  27  28
ATOM     28  O   UNL     1       1.505   2.431  21.961  0.00  0.00    +0.000 OA
ATOM     29  H   UNL     1       0.734   2.945  21.662  0.00  0.00    +0.000 HD
ENDBRANCH  27  28
ENDBRANCH   5  27
TORSDOF 7
ENDMDL
MODEL 8
REMARK VINA RESULT:      -6.4      1.706      1.758
REMARK  Name = 
REMARK  9 active torsions:
REMARK  status: ('A' for Active; 'I' for Inactive)
REMARK    1  A    between atoms: C_1  and  C_2
REMARK    2  A    between atoms: C_2  and  C_3
REMARK    3  A    between atoms: C_2  and  N_4
REMARK    4  A    between atoms: N_4  and  C_5
REMARK    5  A    between atoms: N_13  and  C_14
REMARK    6  A    between atoms: N_16  and  C_17
REMARK    7  A    between atoms: C_17  and  C_18
REMARK    8  A    between atoms: C_24  and  C_25
REMARK    9  A    between atoms: C_25  and  O_26
REMARK                            x       y       z     vdW  Elec       q    Type
REMARK                         _______ _______ _______ _____ _____    ______ ____
ROOT
ATOM      1  C   UNL     1       1.690   3.510  18.573  0.00  0.00    +0.000 C 
ATOM      2  C   UNL     1       2.495   3.427  17.246  0.00  0.00    +0.000 C 
ATOM      3  N   UNL     1       3.893   2.958  17.357  0.00  0.00    +0.000 NA
ATOM      4  C   UNL     1       3.873   1.679  18.087  0.00  0.00    +0.000 C 
ATOM      5  C   UNL     1       3.048   1.631  19.395  0.00  0.00    +0.000 C 
ATOM      6  O   UNL     1       1.767   2.287  19.335  0.00  0.00    +0.000 OA
ENDROOT
BRANCH   1  15
ATOM      7  C   UNL     1       1.807   8.145  20.022  0.00  0.00    +0.000 A 
ATOM      8  N   UNL     1       2.068   8.640  18.785  0.00  0.00    +0.000 NA
ATOM      9  C   UNL     1       2.289   7.778  17.773  0.00  0.00    +0.000 A 
ATOM     10  N   UNL     1       2.241   6.435  17.802  0.00  0.00    +0.000 NA
ATOM     11  C   UNL     1       1.998   5.978  19.038  0.00  0.00    +0.000 A 
ATOM     12  C   UNL     1       1.805   6.743  20.179  0.00  0.00    +0.000 A 
ATOM     13  N   UNL     1       1.589   5.929  21.272  0.00  0.00    +0.000 NA
ATOM     14  C   UNL     1       1.624   4.702  20.796  0.00  0.00    +0.000 A 
ATOM     15  N   UNL     1       1.858   4.672  19.441  0.00  0.00    +0.000 N 
BRANCH   7  16
ATOM     16  N   UNL     1       1.541   9.006  21.098  0.00  0.00    +0.000 N 
ATOM     17  H   UNL     1       1.968   8.611  21.936  0.00  0.00    +0.000 HD
BRANCH  16  19
ATOM     18  C   UNL     1      -0.269   9.216  22.712  0.00  0.00    +0.000 C 
ATOM     19  C   UNL     1       0.149   9.432  21.255  0.00  0.00    +0.000 C 
ATOM     20  C   UNL     1      -0.005  10.910  20.897  0.00  0.00    +0.000 C 
ENDBRANCH  16  19
ENDBRANCH   7  16
ENDBRANCH   1  15
BRANCH   3  21
ATOM     21  C   UNL     1       4.753   4.003  17.930  0.00  0.00    +0.000 C 
BRANCH  21  22
ATOM     22  C   UNL     1       5.707   4.656  16.966  0.00  0.00    +0.000 A 
ATOM     23  C   UNL     1       6.467   5.801  17.103  0.00  0.00    +0.000 A 
ATOM     24  C   UNL     1       7.313   6.030  15.979  0.00  0.00    +0.000 A 
ATOM     25  C   UNL     1       7.175   5.054  15.020  0.00  0.00    +0.000 A 
ATOM     26  S   UNL     1       6.015   3.883  15.461  0.00  0.00    +0.000 S 
ENDBRANCH  21  22
ENDBRANCH   3  21
BRANCH   5  27
ATOM     27  C   UNL     1       3.833   2.026  20.652  0.00  0.00    +0.000 C 
BRANCH  27  28
ATOM     28  O   UNL     1       5.214   1.727  20.484  0.00  0.00    +0.000 OA
ATOM     29  H   UNL     1       5.314   1.302  19.614  0.00  0.00    +0.000 HD
ENDBRANCH  27  28
ENDBRANCH   5  27
TORSDOF 7
ENDMDL
MODEL 9
REMARK VINA RESULT:      -6.3      2.721      6.460
REMARK  Name = 
REMARK  9 active torsions:
REMARK  status: ('A' for Active; 'I' for Inactive)
REMARK    1  A    between atoms: C_1  and  C_2
REMARK    2  A    between atoms: C_2  and  C_3
REMARK    3  A    between atoms: C_2  and  N_4
REMARK    4  A    between atoms: N_4  and  C_5
REMARK    5  A    between atoms: N_13  and  C_14
REMARK    6  A    between atoms: N_16  and  C_17
REMARK    7  A    between atoms: C_17  and  C_18
REMARK    8  A    between atoms: C_24  and  C_25
REMARK    9  A    between atoms: C_25  and  O_26
REMARK                            x       y       z     vdW  Elec       q    Type
REMARK                         _______ _______ _______ _____ _____    ______ ____
ROOT
ATOM      1  C   UNL     1       4.111   3.462  19.964  0.00  0.00    +0.000 C 
ATOM      2  C   UNL     1       3.275   4.161  21.073  0.00  0.00    +0.000 C 
ATOM      3  N   UNL     1       1.805   4.089  20.928  0.00  0.00    +0.000 NA
ATOM      4  C   UNL     1       1.448   2.669  20.759  0.00  0.00    +0.000 C 
ATOM      5  C   UNL     1       2.261   1.860  19.721  0.00  0.00    +0.000 C 
ATOM      6  O   UNL     1       3.681   2.105  19.730  0.00  0.00    +0.000 OA
ENDROOT
BRANCH   1  15
ATOM      7  C   UNL     1       6.489   5.576  16.293  0.00  0.00    +0.000 A 
ATOM      8  N   UNL     1       7.564   5.924  17.045  0.00  0.00    +0.000 NA
ATOM      9  C   UNL     1       7.531   5.697  18.373  0.00  0.00    +0.000 A 
ATOM     10  N   UNL     1       6.559   5.104  19.089  0.00  0.00    +0.000 NA
ATOM     11  C   UNL     1       5.506   4.788  18.321  0.00  0.00    +0.000 A 
ATOM     12  C   UNL     1       5.380   5.011  16.958  0.00  0.00    +0.000 A 
ATOM     13  N   UNL     1       4.155   4.562  16.509  0.00  0.00    +0.000 NA
ATOM     14  C   UNL     1       3.567   4.056  17.573  0.00  0.00    +0.000 A 
ATOM     15  N   UNL     1       4.347   4.156  18.702  0.00  0.00    +0.000 N 
BRANCH   7  16
ATOM     16  N   UNL     1       6.493   5.767  14.902  0.00  0.00    +0.000 N 
ATOM     17  H   UNL     1       5.542   5.991  14.608  0.00  0.00    +0.000 HD
BRANCH  16  19
ATOM     18  C   UNL     1       6.088   3.810  13.511  0.00  0.00    +0.000 C 
ATOM     19  C   UNL     1       7.157   4.729  14.111  0.00  0.00    +0.000 C 
ATOM     20  C   UNL     1       7.978   5.356  12.983  0.00  0.00    +0.000 C 
ENDBRANCH  16  19
ENDBRANCH   7  16
ENDBRANCH   1  15
BRANCH   3  21
ATOM     21  C   UNL     1       1.337   4.992  19.866  0.00  0.00    +0.000 C 
BRANCH  21  22
ATOM     22  C   UNL     1       1.370   6.457  20.204  0.00  0.00    +0.000 A 
ATOM     23  C   UNL     1       0.913   7.123  21.325  0.00  0.00    +0.000 A 
ATOM     24  C   UNL     1       1.217   8.515  21.292  0.00  0.00    +0.000 A 
ATOM     25  C   UNL     1       1.897   8.870  20.151  0.00  0.00    +0.000 A 
ATOM     26  S   UNL     1       2.146   7.538  19.114  0.00  0.00    +0.000 S 
ENDBRANCH  21  22
ENDBRANCH   3  21
BRANCH   5  27
ATOM     27  C   UNL     1       1.684   1.894  18.301  0.00  0.00    +0.000 C 
BRANCH  27  28
ATOM     28  O   UNL     1       0.263   1.925  18.347  0.00  0.00    +0.000 OA
ATOM     29  H   UNL     1      -0.054   1.036  18.109  0.00  0.00    +0.000 HD
ENDBRANCH  27  28
ENDBRANCH   5  27
TORSDOF 7
ENDMDL
