MODEL 1
REMARK VINA RESULT:      -6.8      0.000      0.000
REMARK  Name = 
REMARK  7 active torsions:
REMARK  status: ('A' for Active; 'I' for Inactive)
REMARK    1  A    between atoms: C_1  and  C_2
REMARK    2  A    between atoms: C_2  and  C_3
REMARK    3  A    between atoms: C_2  and  C_4
REMARK    4  A    between atoms: C_4  and  C_5
REMARK    5  A    between atoms: C_4  and  C_6
REMARK    6  A    between atoms: C_4  and  N_8
REMARK    7  A    between atoms: C_9  and  C_11
REMARK                            x       y       z     vdW  Elec       q    Type
REMARK                         _______ _______ _______ _____ _____    ______ ____
ROOT
ATOM      1  N   UNL     1       3.486   4.967  19.512  0.00  0.00    +0.000 N 
ATOM      2  C   UNL     1       4.667   4.443  19.026  0.00  0.00    +0.000 C 
ATOM      3  O   UNL     1       4.858   3.237  18.902  0.00  0.00    +0.000 OA
ATOM      4  H   UNL     1       3.387   5.975  19.546  0.00  0.00    +0.000 HD
ENDROOT
BRANCH   2   5
ATOM      5  C   UNL     1       5.747   5.388  18.640  0.00  0.00    +0.000 A 
ATOM      6  C   UNL     1       6.934   5.381  19.389  0.00  0.00    +0.000 A 
ATOM      7  C   UNL     1       7.977   6.258  19.077  0.00  0.00    +0.000 A 
ATOM      8  C   UNL     1       7.843   7.150  18.014  0.00  0.00    +0.000 A 
ATOM      9  C   UNL     1       6.669   7.162  17.260  0.00  0.00    +0.000 A 
ATOM     10  C   UNL     1       5.632   6.284  17.577  0.00  0.00    +0.000 A 
ATOM     11  F   UNL     1       4.520   6.329  16.825  0.00  0.00    +0.000 F 
ENDBRANCH   2   5
BRANCH   1  12
ATOM     12  C   UNL     1       2.324   4.132  19.884  0.00  0.00    +0.000 C 
ATOM     13  C   UNL     1       1.201   5.020  20.471  0.00  0.00    +0.000 C 
BRANCH  12  15
ATOM     14  C   UNL     1       0.608   2.412  18.969  0.00  0.00    +0.000 C 
ATOM     15  C   UNL     1       1.780   3.351  18.636  0.00  0.00    +0.000 C 
ATOM     16  C   UNL     1       1.353   4.268  17.478  0.00  0.00    +0.000 C 
ENDBRANCH  12  15
BRANCH  12  17
ATOM     17  C   UNL     1       2.737   3.147  20.965  0.00  0.00    +0.000 C 
ATOM     18  N   UNL     1       3.079   2.329  21.861  0.00  0.00    +0.000 NA
ENDBRANCH  12  17
ENDBRANCH   1  12
TORSDOF 4
ENDMDL
MODEL 2
REMARK VINA RESULT:      -6.7      2.186      5.824
REMARK  Name = 
REMARK  7 active torsions:
REMARK  status: ('A' for Active; 'I' for Inactive)
REMARK    1  A    between atoms: C_1  and  C_2
REMARK    2  A    between atoms: C_2  and  C_3
REMARK    3  A    between atoms: C_2  and  C_4
REMARK    4  A    between atoms: C_4  and  C_5
REMARK    5  A    between atoms: C_4  and  C_6
REMARK    6  A    between atoms: C_4  and  N_8
REMARK    7  A    between atoms: C_9  and  C_11
REMARK                            x       y       z     vdW  Elec       q    Type
REMARK                         _______ _______ _______ _____ _____    ______ ____
ROOT
ATOM      1  N   UNL     1       5.042   5.097  18.280  0.00  0.00    +0.000 N 
ATOM      2  C   UNL     1       3.867   4.412  18.046  0.00  0.00    +0.000 C 
ATOM      3  O   UNL     1       3.438   4.192  16.918  0.00  0.00    +0.000 OA
ATOM      4  H   UNL     1       5.352   5.203  19.239  0.00  0.00    +0.000 HD
ENDROOT
BRANCH   2   5
ATOM      5  C   UNL     1       3.093   3.925  19.219  0.00  0.00    +0.000 A 
ATOM      6  C   UNL     1       1.823   4.473  19.450  0.00  0.00    +0.000 A 
ATOM      7  C   UNL     1       1.059   4.060  20.546  0.00  0.00    +0.000 A 
ATOM      8  C   UNL     1       1.558   3.096  21.420  0.00  0.00    +0.000 A 
ATOM      9  C   UNL     1       2.819   2.541  21.196  0.00  0.00    +0.000 A 
ATOM     10  C   UNL     1       3.576   2.958  20.102  0.00  0.00    +0.000 A 
ATOM     11  F   UNL     1       4.784   2.398  19.923  0.00  0.00    +0.000 F 
ENDBRANCH   2   5
BRANCH   1  12
ATOM     12  C   UNL     1       5.919   5.588  17.197  0.00  0.00    +0.000 C 
ATOM     13  C   UNL     1       5.245   6.774  16.467  0.00  0.00    +0.000 C 
BRANCH  12  15
ATOM     14  C   UNL     1       7.585   7.544  17.573  0.00  0.00    +0.000 C 
ATOM     15  C   UNL     1       7.307   6.044  17.770  0.00  0.00    +0.000 C 
ATOM     16  C   UNL     1       7.496   5.707  19.258  0.00  0.00    +0.000 C 
ENDBRANCH  12  15
BRANCH  12  17
ATOM     17  C   UNL     1       6.125   4.482  16.175  0.00  0.00    +0.000 C 
ATOM     18  N   UNL     1       6.295   3.564  15.327  0.00  0.00    +0.000 NA
ENDBRANCH  12  17
ENDBRANCH   1  12
TORSDOF 4
ENDMDL
MODEL 3
REMARK VINA RESULT:      -6.6      1.885      5.552
REMARK  Name = 
REMARK  7 active torsions:
REMARK  status: ('A' for Active; 'I' for Inactive)
REMARK    1  A    between atoms: C_1  and  C_2
REMARK    2  A    between atoms: C_2  and  C_3
REMARK    3  A    between atoms: C_2  and  C_4
REMARK    4  A    between atoms: C_4  and  C_5
REMARK    5  A    between atoms: C_4  and  C_6
REMARK    6  A    between atoms: C_4  and  N_8
REMARK    7  A    between atoms: C_9  and  C_11
REMARK                            x       y       z     vdW  Elec       q    Type
REMARK                         _______ _______ _______ _____ _____    ______ ____
ROOT
ATOM      1  N   UNL     1       5.131   4.456  18.322  0.00  0.00    +0.000 N 
ATOM      2  C   UNL     1       4.100   4.983  19.075  0.00  0.00    +0.000 C 
ATOM      3  O   UNL     1       4.142   6.106  19.566  0.00  0.00    +0.000 OA
ATOM      4  H   UNL     1       5.005   3.537  17.914  0.00  0.00    +0.000 HD
ENDROOT
BRANCH   2   5
ATOM      5  C   UNL     1       2.892   4.144  19.293  0.00  0.00    +0.000 A 
ATOM      6  C   UNL     1       2.434   3.970  20.608  0.00  0.00    +0.000 A 
ATOM      7  C   UNL     1       1.311   3.181  20.872  0.00  0.00    +0.000 A 
ATOM      8  C   UNL     1       0.636   2.558  19.823  0.00  0.00    +0.000 A 
ATOM      9  C   UNL     1       1.080   2.729  18.511  0.00  0.00    +0.000 A 
ATOM     10  C   UNL     1       2.201   3.517  18.256  0.00  0.00    +0.000 A 
ATOM     11  F   UNL     1       2.595   3.655  16.979  0.00  0.00    +0.000 F 
ENDBRANCH   2   5
BRANCH   1  12
ATOM     12  C   UNL     1       6.360   5.210  17.997  0.00  0.00    +0.000 C 
ATOM     13  C   UNL     1       7.203   4.426  16.965  0.00  0.00    +0.000 C 
BRANCH  12  15
ATOM     14  C   UNL     1       7.225   7.558  17.305  0.00  0.00    +0.000 C 
ATOM     15  C   UNL     1       6.006   6.626  17.422  0.00  0.00    +0.000 C 
ATOM     16  C   UNL     1       5.303   6.574  16.056  0.00  0.00    +0.000 C 
ENDBRANCH  12  15
BRANCH  12  17
ATOM     17  C   UNL     1       7.204   5.363  19.252  0.00  0.00    +0.000 C 
ATOM     18  N   UNL     1       7.905   5.489  20.293  0.00  0.00    +0.000 NA
ENDBRANCH  12  17
ENDBRANCH   1  12
TORSDOF 4
ENDMDL
MODEL 4
REMARK VINA RESULT:      -6.6      2.411      5.583
REMARK  Name = 
REMARK  7 active torsions:
REMARK  status: ('A' for Active; 'I' for Inactive)
REMARK    1  A    between atoms: C_1  and  C_2
REMARK    2  A    between atoms: C_2  and  C_3
REMARK    3  A    between atoms: C_2  and  C_4
REMARK    4  A    between atoms: C_4  and  C_5
REMARK    5  A    between atoms: C_4  and  C_6
REMARK    6  A    between atoms: C_4  and  N_8
REMARK    7  A    between atoms: C_9  and  C_11
REMARK                            x       y       z     vdW  Elec       q    Type
REMARK                         _______ _______ _______ _____ _____    ______ ____
ROOT
ATOM      1  N   UNL     1       4.639   4.481  17.569  0.00  0.00    +0.000 N 
ATOM      2  C   UNL     1       4.743   4.438  18.945  0.00  0.00    +0.000 C 
ATOM      3  O   UNL     1       5.753   4.786  19.547  0.00  0.00    +0.000 OA
ATOM      4  H   UNL     1       3.757   4.217  17.147  0.00  0.00    +0.000 HD
ENDROOT
BRANCH   2   5
ATOM      5  C   UNL     1       3.574   3.945  19.721  0.00  0.00    +0.000 A 
ATOM      6  C   UNL     1       2.386   4.691  19.677  0.00  0.00    +0.000 A 
ATOM      7  C   UNL     1       1.262   4.280  20.399  0.00  0.00    +0.000 A 
ATOM      8  C   UNL     1       1.314   3.120  21.170  0.00  0.00    +0.000 A 
ATOM      9  C   UNL     1       2.488   2.368  21.215  0.00  0.00    +0.000 A 
ATOM     10  C   UNL     1       3.607   2.784  20.494  0.00  0.00    +0.000 A 
ATOM     11  F   UNL     1       4.717   2.030  20.565  0.00  0.00    +0.000 F 
ENDBRANCH   2   5
BRANCH   1  12
ATOM     12  C   UNL     1       5.714   4.996  16.694  0.00  0.00    +0.000 C 
ATOM     13  C   UNL     1       5.561   4.410  15.270  0.00  0.00    +0.000 C 
BRANCH  12  15
ATOM     14  C   UNL     1       4.357   7.161  17.155  0.00  0.00    +0.000 C 
ATOM     15  C   UNL     1       5.673   6.563  16.627  0.00  0.00    +0.000 C 
ATOM     16  C   UNL     1       6.842   7.238  17.362  0.00  0.00    +0.000 C 
ENDBRANCH  12  15
BRANCH  12  17
ATOM     17  C   UNL     1       7.061   4.541  17.231  0.00  0.00    +0.000 C 
ATOM     18  N   UNL     1       8.179   4.163  17.676  0.00  0.00    +0.000 NA
ENDBRANCH  12  17
ENDBRANCH   1  12
TORSDOF 4
ENDMDL
MODEL 5
REMARK VINA RESULT:      -6.6      1.302      2.316
REMARK  Name = 
REMARK  7 active torsions:
REMARK  status: ('A' for Active; 'I' for Inactive)
REMARK    1  A    between atoms: C_1  and  C_2
REMARK    2  A    between atoms: C_2  and  C_3
REMARK    3  A    between atoms: C_2  and  C_4
REMARK    4  A    between atoms: C_4  and  C_5
REMARK    5  A    between atoms: C_4  and  C_6
REMARK    6  A    between atoms: C_4  and  N_8
REMARK    7  A    between atoms: C_9  and  C_11
REMARK                            x       y       z     vdW  Elec       q    Type
REMARK                         _______ _______ _______ _____ _____    ______ ____
ROOT
ATOM      1  N   UNL     1       4.164   4.568  19.292  0.00  0.00    +0.000 N 
ATOM      2  C   UNL     1       4.934   4.645  18.149  0.00  0.00    +0.000 C 
ATOM      3  O   UNL     1       4.756   3.919  17.176  0.00  0.00    +0.000 OA
ATOM      4  H   UNL     1       4.345   5.231  20.037  0.00  0.00    +0.000 HD
ENDROOT
BRANCH   2   5
ATOM      5  C   UNL     1       6.025   5.655  18.106  0.00  0.00    +0.000 A 
ATOM      6  C   UNL     1       7.098   5.511  18.998  0.00  0.00    +0.000 A 
ATOM      7  C   UNL     1       8.144   6.439  19.009  0.00  0.00    +0.000 A 
ATOM      8  C   UNL     1       8.126   7.519  18.128  0.00  0.00    +0.000 A 
ATOM      9  C   UNL     1       7.065   7.669  17.233  0.00  0.00    +0.000 A 
ATOM     10  C   UNL     1       6.026   6.740  17.228  0.00  0.00    +0.000 A 
ATOM     11  F   UNL     1       5.025   6.921  16.351  0.00  0.00    +0.000 F 
ENDBRANCH   2   5
BRANCH   1  12
ATOM     12  C   UNL     1       3.023   3.639  19.435  0.00  0.00    +0.000 C 
ATOM     13  C   UNL     1       3.526   2.177  19.408  0.00  0.00    +0.000 C 
BRANCH  12  15
ATOM     14  C   UNL     1       1.517   5.257  20.797  0.00  0.00    +0.000 C 
ATOM     15  C   UNL     1       2.254   3.907  20.776  0.00  0.00    +0.000 C 
ATOM     16  C   UNL     1       1.250   2.801  21.138  0.00  0.00    +0.000 C 
ENDBRANCH  12  15
BRANCH  12  17
ATOM     17  C   UNL     1       2.078   3.817  18.258  0.00  0.00    +0.000 C 
ATOM     18  N   UNL     1       1.294   3.966  17.281  0.00  0.00    +0.000 NA
ENDBRANCH  12  17
ENDBRANCH   1  12
TORSDOF 4
ENDMDL
MODEL 6
REMARK VINA RESULT:      -6.6      2.107      5.469
REMARK  Name = 
REMARK  7 active torsions:
REMARK  status: ('A' for Active; 'I' for Inactive)
REMARK    1  A    between atoms: C_1  and  C_2
REMARK    2  A    between atoms: C_2  and  C_3
REMARK    3  A    between atoms: C_2  and  C_4
REMARK    4  A    between atoms: C_4  and  C_5
REMARK    5  A    between atoms: C_4  and  C_6
REMARK    6  A    between atoms: C_4  and  N_8
REMARK    7  A    between atoms: C_9  and  C_11
REMARK                            x       y       z     vdW  Elec       q    Type
REMARK                         _______ _______ _______ _____ _____    ______ ____
ROOT
ATOM      1  N   UNL     1       4.618   4.810  17.950  0.00  0.00    +0.000 N 
ATOM      2  C   UNL     1       4.037   3.567  18.101  0.00  0.00    +0.000 C 
ATOM      3  O   UNL     1       4.286   2.622  17.360  0.00  0.00    +0.000 OA
ATOM      4  H   UNL     1       4.394   5.529  18.629  0.00  0.00    +0.000 HD
ENDROOT
BRANCH   2   5
ATOM      5  C   UNL     1       3.068   3.376  19.213  0.00  0.00    +0.000 A 
ATOM      6  C   UNL     1       3.518   2.749  20.385  0.00  0.00    +0.000 A 
ATOM      7  C   UNL     1       2.646   2.533  21.456  0.00  0.00    +0.000 A 
ATOM      8  C   UNL     1       1.316   2.942  21.365  0.00  0.00    +0.000 A 
ATOM      9  C   UNL     1       0.860   3.571  20.205  0.00  0.00    +0.000 A 
ATOM     10  C   UNL     1       1.735   3.783  19.141  0.00  0.00    +0.000 A 
ATOM     11  F   UNL     1       1.255   4.392  18.044  0.00  0.00    +0.000 F 
ENDBRANCH   2   5
BRANCH   1  12
ATOM     12  C   UNL     1       5.630   5.108  16.914  0.00  0.00    +0.000 C 
ATOM     13  C   UNL     1       5.281   4.360  15.606  0.00  0.00    +0.000 C 
BRANCH  12  15
ATOM     14  C   UNL     1       4.423   7.403  17.043  0.00  0.00    +0.000 C 
ATOM     15  C   UNL     1       5.702   6.650  16.637  0.00  0.00    +0.000 C 
ATOM     16  C   UNL     1       6.903   7.337  17.307  0.00  0.00    +0.000 C 
ENDBRANCH  12  15
BRANCH  12  17
ATOM     17  C   UNL     1       6.988   4.606  17.377  0.00  0.00    +0.000 C 
ATOM     18  N   UNL     1       8.115   4.190  17.761  0.00  0.00    +0.000 NA
ENDBRANCH  12  17
ENDBRANCH   1  12
TORSDOF 4
ENDMDL
MODEL 7
REMARK VINA RESULT:      -6.6      2.143      5.710
REMARK  Name = 
REMARK  7 active torsions:
REMARK  status: ('A' for Active; 'I' for Inactive)
REMARK    1  A    between atoms: C_1  and  C_2
REMARK    2  A    between atoms: C_2  and  C_3
REMARK    3  A    between atoms: C_2  and  C_4
REMARK    4  A    between atoms: C_4  and  C_5
REMARK    5  A    between atoms: C_4  and  C_6
REMARK    6  A    between atoms: C_4  and  N_8
REMARK    7  A    between atoms: C_9  and  C_11
REMARK                            x       y       z     vdW  Elec       q    Type
REMARK                         _______ _______ _______ _____ _____    ______ ____
ROOT
ATOM      1  N   UNL     1       5.167   4.429  18.302  0.00  0.00    +0.000 N 
ATOM      2  C   UNL     1       4.123   4.921  19.060  0.00  0.00    +0.000 C 
ATOM      3  O   UNL     1       4.148   6.027  19.589  0.00  0.00    +0.000 OA
ATOM      4  H   UNL     1       5.054   3.523  17.862  0.00  0.00    +0.000 HD
ENDROOT
BRANCH   2   5
ATOM      5  C   UNL     1       2.921   4.064  19.237  0.00  0.00    +0.000 A 
ATOM      6  C   UNL     1       2.536   3.233  18.173  0.00  0.00    +0.000 A 
ATOM      7  C   UNL     1       1.406   2.417  18.281  0.00  0.00    +0.000 A 
ATOM      8  C   UNL     1       0.651   2.424  19.453  0.00  0.00    +0.000 A 
ATOM      9  C   UNL     1       1.028   3.243  20.519  0.00  0.00    +0.000 A 
ATOM     10  C   UNL     1       2.156   4.054  20.404  0.00  0.00    +0.000 A 
ATOM     11  F   UNL     1       2.484   4.827  21.453  0.00  0.00    +0.000 F 
ENDBRANCH   2   5
BRANCH   1  12
ATOM     12  C   UNL     1       6.392   5.205  18.017  0.00  0.00    +0.000 C 
ATOM     13  C   UNL     1       7.269   4.449  16.991  0.00  0.00    +0.000 C 
BRANCH  12  15
ATOM     14  C   UNL     1       7.251   7.554  17.317  0.00  0.00    +0.000 C 
ATOM     15  C   UNL     1       6.031   6.626  17.456  0.00  0.00    +0.000 C 
ATOM     16  C   UNL     1       5.299   6.583  16.105  0.00  0.00    +0.000 C 
ENDBRANCH  12  15
BRANCH  12  17
ATOM     17  C   UNL     1       7.206   5.349  19.292  0.00  0.00    +0.000 C 
ATOM     18  N   UNL     1       7.882   5.468  20.350  0.00  0.00    +0.000 NA
ENDBRANCH  12  17
ENDBRANCH   1  12
TORSDOF 4
ENDMDL
MODEL 8
REMARK VINA RESULT:      -6.5      2.239      5.831
REMARK  Name = 
REMARK  7 active torsions:
REMARK  status: ('A' for Active; 'I' for Inactive)
REMARK    1  A    between atoms: C_1  and  C_2
REMARK    2  A    between atoms: C_2  and  C_3
REMARK    3  A    between atoms: C_2  and  C_4
REMARK    4  A    between atoms: C_4  and  C_5
REMARK    5  A    between atoms: C_4  and  C_6
REMARK    6  A    between atoms: C_4  and  N_8
REMARK    7  A    between atoms: C_9  and  C_11
REMARK                            x       y       z     vdW  Elec       q    Type
REMARK                         _______ _______ _______ _____ _____    ______ ____
ROOT
ATOM      1  N   UNL     1       4.756   5.107  17.667  0.00  0.00    +0.000 N 
ATOM      2  C   UNL     1       3.624   5.626  18.264  0.00  0.00    +0.000 C 
ATOM      3  O   UNL     1       3.395   6.830  18.321  0.00  0.00    +0.000 OA
ATOM      4  H   UNL     1       4.854   4.099  17.621  0.00  0.00    +0.000 HD
ENDROOT
BRANCH   2   5
ATOM      5  C   UNL     1       2.648   4.676  18.860  0.00  0.00    +0.000 A 
ATOM      6  C   UNL     1       2.329   4.819  20.219  0.00  0.00    +0.000 A 
ATOM      7  C   UNL     1       1.427   3.945  20.834  0.00  0.00    +0.000 A 
ATOM      8  C   UNL     1       0.836   2.922  20.096  0.00  0.00    +0.000 A 
ATOM      9  C   UNL     1       1.142   2.774  18.742  0.00  0.00    +0.000 A 
ATOM     10  C   UNL     1       2.043   3.649  18.136  0.00  0.00    +0.000 A 
ATOM     11  F   UNL     1       2.309   3.472  16.831  0.00  0.00    +0.000 F 
ENDBRANCH   2   5
BRANCH   1  12
ATOM     12  C   UNL     1       5.773   5.946  16.999  0.00  0.00    +0.000 C 
ATOM     13  C   UNL     1       5.082   7.005  16.108  0.00  0.00    +0.000 C 
BRANCH  12  15
ATOM     14  C   UNL     1       7.553   5.686  18.871  0.00  0.00    +0.000 C 
ATOM     15  C   UNL     1       6.684   6.661  18.057  0.00  0.00    +0.000 C 
ATOM     16  C   UNL     1       7.600   7.736  17.450  0.00  0.00    +0.000 C 
ENDBRANCH  12  15
BRANCH  12  17
ATOM     17  C   UNL     1       6.627   5.075  16.092  0.00  0.00    +0.000 C 
ATOM     18  N   UNL     1       7.336   4.353  15.339  0.00  0.00    +0.000 NA
ENDBRANCH  12  17
ENDBRANCH   1  12
TORSDOF 4
ENDMDL
MODEL 9
REMARK VINA RESULT:      -6.5      1.988      5.581
REMARK  Name = 
REMARK  7 active torsions:
REMARK  status: ('A' for Active; 'I' for Inactive)
REMARK    1  A    between atoms: C_1  and  C_2
REMARK    2  A    between atoms: C_2  and  C_3
REMARK    3  A    between atoms: C_2  and  C_4
REMARK    4  A    between atoms: C_4  and  C_5
REMARK    5  A    between atoms: C_4  and  C_6
REMARK    6  A    between atoms: C_4  and  N_8
REMARK    7  A    between atoms: C_9  and  C_11
REMARK                            x       y       z     vdW  Elec       q    Type
REMARK                         _______ _______ _______ _____ _____    ______ ____
ROOT
ATOM      1  N   UNL     1       4.890   4.899  18.066  0.00  0.00    +0.000 N 
ATOM      2  C   UNL     1       4.590   3.866  18.930  0.00  0.00    +0.000 C 
ATOM      3  O   UNL     1       5.451   3.192  19.487  0.00  0.00    +0.000 OA
ATOM      4  H   UNL     1       4.124   5.437  17.678  0.00  0.00    +0.000 HD
ENDROOT
BRANCH   2   5
ATOM      5  C   UNL     1       3.157   3.564  19.191  0.00  0.00    +0.000 A 
ATOM      6  C   UNL     1       2.484   4.325  20.158  0.00  0.00    +0.000 A 
ATOM      7  C   UNL     1       1.140   4.075  20.452  0.00  0.00    +0.000 A 
ATOM      8  C   UNL     1       0.458   3.061  19.781  0.00  0.00    +0.000 A 
ATOM      9  C   UNL     1       1.117   2.301  18.814  0.00  0.00    +0.000 A 
ATOM     10  C   UNL     1       2.457   2.556  18.526  0.00  0.00    +0.000 A 
ATOM     11  F   UNL     1       3.053   1.802  17.588  0.00  0.00    +0.000 F 
ENDBRANCH   2   5
BRANCH   1  12
ATOM     12  C   UNL     1       6.274   5.324  17.766  0.00  0.00    +0.000 C 
ATOM     13  C   UNL     1       6.975   4.258  16.890  0.00  0.00    +0.000 C 
BRANCH  12  15
ATOM     14  C   UNL     1       4.930   7.438  17.083  0.00  0.00    +0.000 C 
ATOM     15  C   UNL     1       6.282   6.705  17.022  0.00  0.00    +0.000 C 
ATOM     16  C   UNL     1       7.375   7.663  17.521  0.00  0.00    +0.000 C 
ENDBRANCH  12  15
BRANCH  12  17
ATOM     17  C   UNL     1       7.059   5.435  19.062  0.00  0.00    +0.000 C 
ATOM     18  N   UNL     1       7.711   5.527  20.138  0.00  0.00    +0.000 NA
ENDBRANCH  12  17
ENDBRANCH   1  12
TORSDOF 4
ENDMDL
