MODEL 1
REMARK VINA RESULT:      -7.1      0.000      0.000
REMARK  Name = 
REMARK  6 active torsions:
REMARK  status: ('A' for Active; 'I' for Inactive)
REMARK    1  A    between atoms: C_1  and  C_2
REMARK    2  A    between atoms: C_2  and  C_3
REMARK    3  A    between atoms: C_2  and  C_4
REMARK    4  A    between atoms: C_7  and  N_8
REMARK    5  A    between atoms: N_8  and  C_9
REMARK    6  A    between atoms: C_14  and  C_16
REMARK                            x       y       z     vdW  Elec       q    Type
REMARK                         _______ _______ _______ _____ _____    ______ ____
ROOT
ATOM      1  C   UNL     1       1.367   4.804  20.204  0.00  0.00    +0.000 C 
ATOM      2  C   UNL     1       1.678   3.529  21.009  0.00  0.00    +0.000 C 
ATOM      3  C   UNL     1       3.126   3.039  20.895  0.00  0.00    +0.000 C 
ATOM      4  C   UNL     1       3.707   3.114  19.484  0.00  0.00    +0.000 C 
ATOM      5  N   UNL     1       3.408   4.395  18.847  0.00  0.00    +0.000 N 
ATOM      6  C   UNL     1       4.267   5.109  17.997  0.00  0.00    +0.000 C 
ATOM      7  O   UNL     1       3.810   5.907  17.172  0.00  0.00    +0.000 OA
ATOM      8  C   UNL     1       1.981   4.708  18.795  0.00  0.00    +0.000 C 
ENDROOT
BRANCH   6   9
ATOM      9  C   UNL     1       5.729   4.954  18.089  0.00  0.00    +0.000 A 
ATOM     10  C   UNL     1       6.530   4.537  16.965  0.00  0.00    +0.000 A 
ATOM     11  N   UNL     1       7.846   4.459  17.167  0.00  0.00    +0.000 NA
ATOM     12  S   UNL     1       8.050   4.959  18.749  0.00  0.00    +0.000 S 
ATOM     13  N   UNL     1       6.460   5.267  19.172  0.00  0.00    +0.000 NA
ENDBRANCH   6   9
BRANCH   1  14
ATOM     14  N   UNL     1       1.882   5.991  20.888  0.00  0.00    +0.000 N 
ATOM     15  H   UNL     1       2.391   5.814  21.749  0.00  0.00    +0.000 HD
BRANCH  14  19
ATOM     16  C   UNL     1       0.587   9.951  20.012  0.00  0.00    +0.000 A 
ATOM     17  C   UNL     1       0.123   9.285  21.150  0.00  0.00    +0.000 A 
ATOM     18  C   UNL     1       0.553   7.980  21.463  0.00  0.00    +0.000 A 
ATOM     19  C   UNL     1       1.476   7.295  20.670  0.00  0.00    +0.000 A 
ATOM     20  C   UNL     1       1.916   7.959  19.514  0.00  0.00    +0.000 A 
ATOM     21  C   UNL     1       1.486   9.256  19.191  0.00  0.00    +0.000 A 
BRANCH  16  23
ATOM     22  C   UNL     1       1.086  12.116  18.685  0.00  0.00    +0.000 C 
ATOM     23  C   UNL     1       0.130  11.353  19.613  0.00  0.00    +0.000 C 
ATOM     24  C   UNL     1      -1.265  11.336  18.972  0.00  0.00    +0.000 C 
ENDBRANCH  16  23
ENDBRANCH  14  19
ENDBRANCH   1  14
TORSDOF 4
ENDMDL
MODEL 2
REMARK VINA RESULT:      -7.1      0.299      1.033
REMARK  Name = 
REMARK  6 active torsions:
REMARK  status: ('A' for Active; 'I' for Inactive)
REMARK    1  A    between atoms: C_1  and  C_2
REMARK    2  A    between atoms: C_2  and  C_3
REMARK    3  A    between atoms: C_2  and  C_4
REMARK    4  A    between atoms: C_7  and  N_8
REMARK    5  A    between atoms: N_8  and  C_9
REMARK    6  A    between atoms: C_14  and  C_16
REMARK                            x       y       z     vdW  Elec       q    Type
REMARK                         _______ _______ _______ _____ _____    ______ ____
ROOT
ATOM      1  C   UNL     1       1.370   4.758  20.263  0.00  0.00    +0.000 C 
ATOM      2  C   UNL     1       1.737   3.549  21.143  0.00  0.00    +0.000 C 
ATOM      3  C   UNL     1       3.204   3.115  21.053  0.00  0.00    +0.000 C 
ATOM      4  C   UNL     1       3.779   3.128  19.637  0.00  0.00    +0.000 C 
ATOM      5  N   UNL     1       3.424   4.354  18.924  0.00  0.00    +0.000 N 
ATOM      6  C   UNL     1       4.251   5.050  18.028  0.00  0.00    +0.000 C 
ATOM      7  O   UNL     1       3.758   5.775  17.158  0.00  0.00    +0.000 OA
ATOM      8  C   UNL     1       1.985   4.602  18.860  0.00  0.00    +0.000 C 
ENDROOT
BRANCH   6   9
ATOM      9  C   UNL     1       5.718   4.963  18.123  0.00  0.00    +0.000 A 
ATOM     10  C   UNL     1       6.530   4.462  17.041  0.00  0.00    +0.000 A 
ATOM     11  N   UNL     1       7.848   4.458  17.239  0.00  0.00    +0.000 NA
ATOM     12  S   UNL     1       8.040   5.129  18.757  0.00  0.00    +0.000 S 
ATOM     13  N   UNL     1       6.441   5.417  19.161  0.00  0.00    +0.000 NA
ENDBRANCH   6   9
BRANCH   1  14
ATOM     14  N   UNL     1       1.836   6.005  20.870  0.00  0.00    +0.000 N 
ATOM     15  H   UNL     1       2.213   5.921  21.809  0.00  0.00    +0.000 HD
BRANCH  14  19
ATOM     16  C   UNL     1       0.926  10.013  19.759  0.00  0.00    +0.000 A 
ATOM     17  C   UNL     1       1.672   9.191  18.911  0.00  0.00    +0.000 A 
ATOM     18  C   UNL     1       1.970   7.857  19.256  0.00  0.00    +0.000 A 
ATOM     19  C   UNL     1       1.519   7.284  20.447  0.00  0.00    +0.000 A 
ATOM     20  C   UNL     1       0.794   8.123  21.306  0.00  0.00    +0.000 A 
ATOM     21  C   UNL     1       0.501   9.455  20.973  0.00  0.00    +0.000 A 
BRANCH  16  23
ATOM     22  C   UNL     1       1.693  12.241  18.688  0.00  0.00    +0.000 C 
ATOM     23  C   UNL     1       0.601  11.473  19.446  0.00  0.00    +0.000 C 
ATOM     24  C   UNL     1      -0.719  11.609  18.675  0.00  0.00    +0.000 C 
ENDBRANCH  16  23
ENDBRANCH  14  19
ENDBRANCH   1  14
TORSDOF 4
ENDMDL
MODEL 3
REMARK VINA RESULT:      -7.0      4.375      7.815
REMARK  Name = 
REMARK  6 active torsions:
REMARK  status: ('A' for Active; 'I' for Inactive)
REMARK    1  A    between atoms: C_1  and  C_2
REMARK    2  A    between atoms: C_2  and  C_3
REMARK    3  A    between atoms: C_2  and  C_4
REMARK    4  A    between atoms: C_7  and  N_8
REMARK    5  A    between atoms: N_8  and  C_9
REMARK    6  A    between atoms: C_14  and  C_16
REMARK                            x       y       z     vdW  Elec       q    Type
REMARK                         _______ _______ _______ _____ _____    ______ ____
ROOT
ATOM      1  C   UNL     1       7.174   6.483  16.909  0.00  0.00    +0.000 C 
ATOM      2  C   UNL     1       8.009   6.696  18.186  0.00  0.00    +0.000 C 
ATOM      3  C   UNL     1       7.492   5.947  19.419  0.00  0.00    +0.000 C 
ATOM      4  C   UNL     1       5.973   5.977  19.584  0.00  0.00    +0.000 C 
ATOM      5  N   UNL     1       5.290   5.692  18.323  0.00  0.00    +0.000 N 
ATOM      6  C   UNL     1       4.106   4.951  18.182  0.00  0.00    +0.000 C 
ATOM      7  O   UNL     1       3.373   5.127  17.203  0.00  0.00    +0.000 OA
ATOM      8  C   UNL     1       5.672   6.585  17.231  0.00  0.00    +0.000 C 
ENDROOT
BRANCH   6   9
ATOM      9  C   UNL     1       3.727   3.928  19.170  0.00  0.00    +0.000 A 
ATOM     10  C   UNL     1       4.581   2.811  19.488  0.00  0.00    +0.000 A 
ATOM     11  N   UNL     1       4.137   1.967  20.420  0.00  0.00    +0.000 NA
ATOM     12  S   UNL     1       2.681   2.624  20.910  0.00  0.00    +0.000 S 
ATOM     13  N   UNL     1       2.618   3.978  19.928  0.00  0.00    +0.000 NA
ENDBRANCH   6   9
BRANCH   1  14
ATOM     14  N   UNL     1       7.463   5.179  16.310  0.00  0.00    +0.000 N 
ATOM     15  H   UNL     1       8.314   4.729  16.631  0.00  0.00    +0.000 HD
BRANCH  14  19
ATOM     16  C   UNL     1       5.916   3.552  12.692  0.00  0.00    +0.000 A 
ATOM     17  C   UNL     1       5.298   3.283  13.916  0.00  0.00    +0.000 A 
ATOM     18  C   UNL     1       5.788   3.825  15.121  0.00  0.00    +0.000 A 
ATOM     19  C   UNL     1       6.897   4.673  15.153  0.00  0.00    +0.000 A 
ATOM     20  C   UNL     1       7.529   4.917  13.925  0.00  0.00    +0.000 A 
ATOM     21  C   UNL     1       7.052   4.374  12.722  0.00  0.00    +0.000 A 
BRANCH  16  23
ATOM     22  C   UNL     1       5.767   1.481  11.147  0.00  0.00    +0.000 C 
ATOM     23  C   UNL     1       5.444   2.967  11.363  0.00  0.00    +0.000 C 
ATOM     24  C   UNL     1       3.938   3.176  11.152  0.00  0.00    +0.000 C 
ENDBRANCH  16  23
ENDBRANCH  14  19
ENDBRANCH   1  14
TORSDOF 4
ENDMDL
MODEL 4
REMARK VINA RESULT:      -6.9      0.737      1.478
REMARK  Name = 
REMARK  6 active torsions:
REMARK  status: ('A' for Active; 'I' for Inactive)
REMARK    1  A    between atoms: C_1  and  C_2
REMARK    2  A    between atoms: C_2  and  C_3
REMARK    3  A    between atoms: C_2  and  C_4
REMARK    4  A    between atoms: C_7  and  N_8
REMARK    5  A    between atoms: N_8  and  C_9
REMARK    6  A    between atoms: C_14  and  C_16
REMARK                            x       y       z     vdW  Elec       q    Type
REMARK                         _______ _______ _______ _____ _____    ______ ____
ROOT
ATOM      1  C   UNL     1       1.226   4.566  20.437  0.00  0.00    +0.000 C 
ATOM      2  C   UNL     1       1.656   3.331  21.249  0.00  0.00    +0.000 C 
ATOM      3  C   UNL     1       3.124   2.928  21.070  0.00  0.00    +0.000 C 
ATOM      4  C   UNL     1       3.627   3.006  19.629  0.00  0.00    +0.000 C 
ATOM      5  N   UNL     1       3.217   4.251  18.984  0.00  0.00    +0.000 N 
ATOM      6  C   UNL     1       3.986   4.997  18.076  0.00  0.00    +0.000 C 
ATOM      7  O   UNL     1       3.438   5.745  17.261  0.00  0.00    +0.000 OA
ATOM      8  C   UNL     1       1.772   4.475  19.000  0.00  0.00    +0.000 C 
ENDROOT
BRANCH   6   9
ATOM      9  C   UNL     1       5.457   4.933  18.095  0.00  0.00    +0.000 A 
ATOM     10  C   UNL     1       6.231   5.372  19.229  0.00  0.00    +0.000 A 
ATOM     11  N   UNL     1       7.555   5.238  19.134  0.00  0.00    +0.000 NA
ATOM     12  S   UNL     1       7.791   4.519  17.644  0.00  0.00    +0.000 S 
ATOM     13  N   UNL     1       6.206   4.386  17.122  0.00  0.00    +0.000 NA
ENDBRANCH   6   9
BRANCH   1  14
ATOM     14  N   UNL     1       1.700   5.797  21.069  0.00  0.00    +0.000 N 
ATOM     15  H   UNL     1       2.105   5.686  21.994  0.00  0.00    +0.000 HD
BRANCH  14  19
ATOM     16  C   UNL     1       0.692   9.823  20.122  0.00  0.00    +0.000 A 
ATOM     17  C   UNL     1       1.616   9.120  19.347  0.00  0.00    +0.000 A 
ATOM     18  C   UNL     1       1.951   7.782  19.637  0.00  0.00    +0.000 A 
ATOM     19  C   UNL     1       1.363   7.086  20.695  0.00  0.00    +0.000 A 
ATOM     20  C   UNL     1       0.456   7.806  21.486  0.00  0.00    +0.000 A 
ATOM     21  C   UNL     1       0.124   9.142  21.208  0.00  0.00    +0.000 A 
BRANCH  16  23
ATOM     22  C   UNL     1      -0.638  11.521  18.690  0.00  0.00    +0.000 C 
ATOM     23  C   UNL     1       0.316  11.283  19.868  0.00  0.00    +0.000 C 
ATOM     24  C   UNL     1      -0.276  11.944  21.120  0.00  0.00    +0.000 C 
ENDBRANCH  16  23
ENDBRANCH  14  19
ENDBRANCH   1  14
TORSDOF 4
ENDMDL
MODEL 5
REMARK VINA RESULT:      -6.9      0.744      1.171
REMARK  Name = 
REMARK  6 active torsions:
REMARK  status: ('A' for Active; 'I' for Inactive)
REMARK    1  A    between atoms: C_1  and  C_2
REMARK    2  A    between atoms: C_2  and  C_3
REMARK    3  A    between atoms: C_2  and  C_4
REMARK    4  A    between atoms: C_7  and  N_8
REMARK    5  A    between atoms: N_8  and  C_9
REMARK    6  A    between atoms: C_14  and  C_16
REMARK                            x       y       z     vdW  Elec       q    Type
REMARK                         _______ _______ _______ _____ _____    ______ ____
ROOT
ATOM      1  C   UNL     1       1.206   4.662  20.503  0.00  0.00    +0.000 C 
ATOM      2  C   UNL     1       1.628   3.413  21.298  0.00  0.00    +0.000 C 
ATOM      3  C   UNL     1       3.083   2.982  21.086  0.00  0.00    +0.000 C 
ATOM      4  C   UNL     1       3.559   3.061  19.636  0.00  0.00    +0.000 C 
ATOM      5  N   UNL     1       3.161   4.319  19.008  0.00  0.00    +0.000 N 
ATOM      6  C   UNL     1       3.926   5.055  18.090  0.00  0.00    +0.000 C 
ATOM      7  O   UNL     1       3.377   5.821  17.291  0.00  0.00    +0.000 OA
ATOM      8  C   UNL     1       1.722   4.571  19.055  0.00  0.00    +0.000 C 
ENDROOT
BRANCH   6   9
ATOM      9  C   UNL     1       5.396   4.962  18.078  0.00  0.00    +0.000 A 
ATOM     10  C   UNL     1       6.200   5.358  19.207  0.00  0.00    +0.000 A 
ATOM     11  N   UNL     1       7.519   5.201  19.084  0.00  0.00    +0.000 NA
ATOM     12  S   UNL     1       7.712   4.514  17.572  0.00  0.00    +0.000 S 
ATOM     13  N   UNL     1       6.115   4.425  17.078  0.00  0.00    +0.000 NA
ENDBRANCH   6   9
BRANCH   1  14
ATOM     14  N   UNL     1       1.718   5.879  21.134  0.00  0.00    +0.000 N 
ATOM     15  H   UNL     1       2.169   5.749  22.034  0.00  0.00    +0.000 HD
BRANCH  14  19
ATOM     16  C   UNL     1       0.623   9.807  19.908  0.00  0.00    +0.000 A 
ATOM     17  C   UNL     1      -0.016   9.194  20.990  0.00  0.00    +0.000 A 
ATOM     18  C   UNL     1       0.344   7.901  21.418  0.00  0.00    +0.000 A 
ATOM     19  C   UNL     1       1.367   7.176  20.802  0.00  0.00    +0.000 A 
ATOM     20  C   UNL     1       1.984   7.785  19.700  0.00  0.00    +0.000 A 
ATOM     21  C   UNL     1       1.625   9.070  19.262  0.00  0.00    +0.000 A 
BRANCH  16  23
ATOM     22  C   UNL     1      -0.394  12.133  20.415  0.00  0.00    +0.000 C 
ATOM     23  C   UNL     1       0.251  11.194  19.386  0.00  0.00    +0.000 C 
ATOM     24  C   UNL     1       1.456  11.907  18.758  0.00  0.00    +0.000 C 
ENDBRANCH  16  23
ENDBRANCH  14  19
ENDBRANCH   1  14
TORSDOF 4
ENDMDL
MODEL 6
REMARK VINA RESULT:      -6.8      4.187      7.795
REMARK  Name = 
REMARK  6 active torsions:
REMARK  status: ('A' for Active; 'I' for Inactive)
REMARK    1  A    between atoms: C_1  and  C_2
REMARK    2  A    between atoms: C_2  and  C_3
REMARK    3  A    between atoms: C_2  and  C_4
REMARK    4  A    between atoms: C_7  and  N_8
REMARK    5  A    between atoms: N_8  and  C_9
REMARK    6  A    between atoms: C_14  and  C_16
REMARK                            x       y       z     vdW  Elec       q    Type
REMARK                         _______ _______ _______ _____ _____    ______ ____
ROOT
ATOM      1  C   UNL     1       7.323   6.339  17.194  0.00  0.00    +0.000 C 
ATOM      2  C   UNL     1       7.923   6.356  18.612  0.00  0.00    +0.000 C 
ATOM      3  C   UNL     1       7.134   5.549  19.649  0.00  0.00    +0.000 C 
ATOM      4  C   UNL     1       5.617   5.705  19.548  0.00  0.00    +0.000 C 
ATOM      5  N   UNL     1       5.158   5.601  18.165  0.00  0.00    +0.000 N 
ATOM      6  C   UNL     1       3.968   4.989  17.740  0.00  0.00    +0.000 C 
ATOM      7  O   UNL     1       3.441   5.321  16.673  0.00  0.00    +0.000 OA
ATOM      8  C   UNL     1       5.799   6.551  17.258  0.00  0.00    +0.000 C 
ENDROOT
BRANCH   6   9
ATOM      9  C   UNL     1       3.338   3.919  18.532  0.00  0.00    +0.000 A 
ATOM     10  C   UNL     1       2.017   4.055  19.094  0.00  0.00    +0.000 A 
ATOM     11  N   UNL     1       1.547   3.006  19.770  0.00  0.00    +0.000 NA
ATOM     12  S   UNL     1       2.753   1.856  19.639  0.00  0.00    +0.000 S 
ATOM     13  N   UNL     1       3.874   2.703  18.728  0.00  0.00    +0.000 NA
ENDBRANCH   6   9
BRANCH   1  14
ATOM     14  N   UNL     1       7.618   5.075  16.518  0.00  0.00    +0.000 N 
ATOM     15  H   UNL     1       8.485   4.624  16.793  0.00  0.00    +0.000 HD
BRANCH  14  19
ATOM     16  C   UNL     1       6.005   3.630  12.853  0.00  0.00    +0.000 A 
ATOM     17  C   UNL     1       5.488   3.198  14.077  0.00  0.00    +0.000 A 
ATOM     18  C   UNL     1       6.000   3.677  15.300  0.00  0.00    +0.000 A 
ATOM     19  C   UNL     1       7.029   4.620  15.352  0.00  0.00    +0.000 A 
ATOM     20  C   UNL     1       7.562   5.028  14.120  0.00  0.00    +0.000 A 
ATOM     21  C   UNL     1       7.063   4.548  12.898  0.00  0.00    +0.000 A 
BRANCH  16  23
ATOM     22  C   UNL     1       5.827   1.650  11.195  0.00  0.00    +0.000 C 
ATOM     23  C   UNL     1       5.506   3.119  11.502  0.00  0.00    +0.000 C 
ATOM     24  C   UNL     1       3.996   3.336  11.334  0.00  0.00    +0.000 C 
ENDBRANCH  16  23
ENDBRANCH  14  19
ENDBRANCH   1  14
TORSDOF 4
ENDMDL
MODEL 7
REMARK VINA RESULT:      -6.6      2.491      3.867
REMARK  Name = 
REMARK  6 active torsions:
REMARK  status: ('A' for Active; 'I' for Inactive)
REMARK    1  A    between atoms: C_1  and  C_2
REMARK    2  A    between atoms: C_2  and  C_3
REMARK    3  A    between atoms: C_2  and  C_4
REMARK    4  A    between atoms: C_7  and  N_8
REMARK    5  A    between atoms: N_8  and  C_9
REMARK    6  A    between atoms: C_14  and  C_16
REMARK                            x       y       z     vdW  Elec       q    Type
REMARK                         _______ _______ _______ _____ _____    ______ ____
ROOT
ATOM      1  C   UNL     1       4.754   5.055  18.605  0.00  0.00    +0.000 C 
ATOM      2  C   UNL     1       6.069   5.559  19.227  0.00  0.00    +0.000 C 
ATOM      3  C   UNL     1       7.215   5.753  18.229  0.00  0.00    +0.000 C 
ATOM      4  C   UNL     1       7.335   4.645  17.184  0.00  0.00    +0.000 C 
ATOM      5  N   UNL     1       6.034   4.301  16.613  0.00  0.00    +0.000 N 
ATOM      6  C   UNL     1       5.792   3.955  15.275  0.00  0.00    +0.000 C 
ATOM      7  O   UNL     1       4.811   3.267  14.975  0.00  0.00    +0.000 OA
ATOM      8  C   UNL     1       5.038   3.915  17.610  0.00  0.00    +0.000 C 
ENDROOT
BRANCH   6   9
ATOM      9  C   UNL     1       6.674   4.429  14.195  0.00  0.00    +0.000 A 
ATOM     10  C   UNL     1       6.582   3.922  12.849  0.00  0.00    +0.000 A 
ATOM     11  N   UNL     1       7.419   4.450  11.955  0.00  0.00    +0.000 NA
ATOM     12  S   UNL     1       8.266   5.606  12.815  0.00  0.00    +0.000 S 
ATOM     13  N   UNL     1       7.568   5.424  14.326  0.00  0.00    +0.000 NA
ENDBRANCH   6   9
BRANCH   1  14
ATOM     14  N   UNL     1       4.050   6.142  17.922  0.00  0.00    +0.000 N 
ATOM     15  H   UNL     1       4.463   6.448  17.046  0.00  0.00    +0.000 HD
BRANCH  14  19
ATOM     16  C   UNL     1       1.279   8.735  19.851  0.00  0.00    +0.000 A 
ATOM     17  C   UNL     1       1.784   9.047  18.586  0.00  0.00    +0.000 A 
ATOM     18  C   UNL     1       2.691   8.192  17.926  0.00  0.00    +0.000 A 
ATOM     19  C   UNL     1       3.112   6.986  18.489  0.00  0.00    +0.000 A 
ATOM     20  C   UNL     1       2.624   6.693  19.771  0.00  0.00    +0.000 A 
ATOM     21  C   UNL     1       1.727   7.544  20.438  0.00  0.00    +0.000 A 
BRANCH  16  23
ATOM     22  C   UNL     1      -0.769  10.317  19.773  0.00  0.00    +0.000 C 
ATOM     23  C   UNL     1       0.318   9.641  20.620  0.00  0.00    +0.000 C 
ATOM     24  C   UNL     1      -0.357   8.898  21.781  0.00  0.00    +0.000 C 
ENDBRANCH  16  23
ENDBRANCH  14  19
ENDBRANCH   1  14
TORSDOF 4
ENDMDL
MODEL 8
REMARK VINA RESULT:      -6.5      4.338      7.935
REMARK  Name = 
REMARK  6 active torsions:
REMARK  status: ('A' for Active; 'I' for Inactive)
REMARK    1  A    between atoms: C_1  and  C_2
REMARK    2  A    between atoms: C_2  and  C_3
REMARK    3  A    between atoms: C_2  and  C_4
REMARK    4  A    between atoms: C_7  and  N_8
REMARK    5  A    between atoms: N_8  and  C_9
REMARK    6  A    between atoms: C_14  and  C_16
REMARK                            x       y       z     vdW  Elec       q    Type
REMARK                         _______ _______ _______ _____ _____    ______ ____
ROOT
ATOM      1  C   UNL     1       1.294   9.230  21.900  0.00  0.00    +0.000 C 
ATOM      2  C   UNL     1       0.441   9.518  23.149  0.00  0.00    +0.000 C 
ATOM      3  C   UNL     1      -0.961  10.062  22.855  0.00  0.00    +0.000 C 
ATOM      4  C   UNL     1      -1.010  11.106  21.740  0.00  0.00    +0.000 C 
ATOM      5  N   UNL     1      -0.222  10.691  20.581  0.00  0.00    +0.000 N 
ATOM      6  C   UNL     1      -0.558  10.920  19.237  0.00  0.00    +0.000 C 
ATOM      7  O   UNL     1       0.321  10.953  18.371  0.00  0.00    +0.000 OA
ATOM      8  C   UNL     1       1.173  10.390  20.895  0.00  0.00    +0.000 C 
ENDROOT
BRANCH   6   9
ATOM      9  C   UNL     1      -1.961  11.090  18.822  0.00  0.00    +0.000 A 
ATOM     10  C   UNL     1      -2.647  10.113  18.014  0.00  0.00    +0.000 A 
ATOM     11  N   UNL     1      -3.924  10.369  17.726  0.00  0.00    +0.000 NA
ATOM     12  S   UNL     1      -4.246  11.804  18.521  0.00  0.00    +0.000 S 
ATOM     13  N   UNL     1      -2.755  12.097  19.222  0.00  0.00    +0.000 NA
ENDBRANCH   6   9
BRANCH   1  14
ATOM     14  N   UNL     1       0.881   7.979  21.264  0.00  0.00    +0.000 N 
ATOM     15  H   UNL     1       0.061   7.534  21.665  0.00  0.00    +0.000 HD
BRANCH  14  19
ATOM     16  C   UNL     1       3.106   5.435  18.675  0.00  0.00    +0.000 A 
ATOM     17  C   UNL     1       2.971   6.796  18.392  0.00  0.00    +0.000 A 
ATOM     18  C   UNL     1       2.250   7.656  19.246  0.00  0.00    +0.000 A 
ATOM     19  C   UNL     1       1.656   7.200  20.424  0.00  0.00    +0.000 A 
ATOM     20  C   UNL     1       1.771   5.827  20.687  0.00  0.00    +0.000 A 
ATOM     21  C   UNL     1       2.480   4.963  19.837  0.00  0.00    +0.000 A 
BRANCH  16  23
ATOM     22  C   UNL     1       2.983   3.362  17.129  0.00  0.00    +0.000 C 
ATOM     23  C   UNL     1       3.850   4.456  17.768  0.00  0.00    +0.000 C 
ATOM     24  C   UNL     1       4.621   5.182  16.658  0.00  0.00    +0.000 C 
ENDBRANCH  16  23
ENDBRANCH  14  19
ENDBRANCH   1  14
TORSDOF 4
ENDMDL
MODEL 9
REMARK VINA RESULT:      -6.5      0.995      1.130
REMARK  Name = 
REMARK  6 active torsions:
REMARK  status: ('A' for Active; 'I' for Inactive)
REMARK    1  A    between atoms: C_1  and  C_2
REMARK    2  A    between atoms: C_2  and  C_3
REMARK    3  A    between atoms: C_2  and  C_4
REMARK    4  A    between atoms: C_7  and  N_8
REMARK    5  A    between atoms: N_8  and  C_9
REMARK    6  A    between atoms: C_14  and  C_16
REMARK                            x       y       z     vdW  Elec       q    Type
REMARK                         _______ _______ _______ _____ _____    ______ ____
ROOT
ATOM      1  C   UNL     1       1.460   5.749  19.842  0.00  0.00    +0.000 C 
ATOM      2  C   UNL     1       1.558   4.494  20.729  0.00  0.00    +0.000 C 
ATOM      3  C   UNL     1       2.936   3.824  20.739  0.00  0.00    +0.000 C 
ATOM      4  C   UNL     1       3.609   3.746  19.369  0.00  0.00    +0.000 C 
ATOM      5  N   UNL     1       3.513   5.015  18.650  0.00  0.00    +0.000 N 
ATOM      6  C   UNL     1       4.507   5.568  17.827  0.00  0.00    +0.000 C 
ATOM      7  O   UNL     1       4.205   6.366  16.934  0.00  0.00    +0.000 OA
ATOM      8  C   UNL     1       2.143   5.497  18.486  0.00  0.00    +0.000 C 
ENDROOT
BRANCH   6   9
ATOM      9  C   UNL     1       5.929   5.240  18.026  0.00  0.00    +0.000 A 
ATOM     10  C   UNL     1       6.711   4.569  17.018  0.00  0.00    +0.000 A 
ATOM     11  N   UNL     1       7.994   4.351  17.307  0.00  0.00    +0.000 NA
ATOM     12  S   UNL     1       8.200   5.039  18.816  0.00  0.00    +0.000 S 
ATOM     13  N   UNL     1       6.650   5.606  19.099  0.00  0.00    +0.000 NA
ENDBRANCH   6   9
BRANCH   1  14
ATOM     14  N   UNL     1       2.078   6.901  20.500  0.00  0.00    +0.000 N 
ATOM     15  H   UNL     1       2.918   6.701  21.034  0.00  0.00    +0.000 HD
BRANCH  14  19
ATOM     16  C   UNL     1       0.084  10.620  21.064  0.00  0.00    +0.000 A 
ATOM     17  C   UNL     1       0.326   9.770  22.146  0.00  0.00    +0.000 A 
ATOM     18  C   UNL     1       0.997   8.542  21.980  0.00  0.00    +0.000 A 
ATOM     19  C   UNL     1       1.474   8.123  20.737  0.00  0.00    +0.000 A 
ATOM     20  C   UNL     1       1.204   8.968  19.650  0.00  0.00    +0.000 A 
ATOM     21  C   UNL     1       0.527  10.188  19.806  0.00  0.00    +0.000 A 
BRANCH  16  23
ATOM     22  C   UNL     1       0.218  13.182  21.412  0.00  0.00    +0.000 C 
ATOM     23  C   UNL     1      -0.665  11.946  21.185  0.00  0.00    +0.000 C 
ATOM     24  C   UNL     1      -1.566  12.204  19.970  0.00  0.00    +0.000 C 
ENDBRANCH  16  23
ENDBRANCH  14  19
ENDBRANCH   1  14
TORSDOF 4
ENDMDL
