MODEL 1
REMARK VINA RESULT:      -8.9      0.000      0.000
REMARK  Name = 
REMARK  9 active torsions:
REMARK  status: ('A' for Active; 'I' for Inactive)
REMARK    1  A    between atoms: C_2  and  C_7
REMARK    2  A    between atoms: N_3  and  C_4
REMARK    3  A    between atoms: C_4  and  C_5
REMARK    4  A    between atoms: C_9  and  C_10
REMARK    5  A    between atoms: C_11  and  O_12
REMARK    6  A    between atoms: C_14  and  O_15
REMARK    7  A    between atoms: C_17  and  O_18
REMARK    8  A    between atoms: O_18  and  C_19
REMARK    9  A    between atoms: C_22  and  N_23
REMARK                            x       y       z     vdW  Elec       q    Type
REMARK                         _______ _______ _______ _____ _____    ______ ____
ROOT
ATOM      1  C   UNL     1       3.622   3.698  18.688  0.00  0.00    +0.000 A 
ATOM      2  C   UNL     1       3.006   2.425  18.749  0.00  0.00    +0.000 A 
ATOM      3  C   UNL     1       2.041   2.109  19.711  0.00  0.00    +0.000 A 
ATOM      4  C   UNL     1       1.705   3.051  20.664  0.00  0.00    +0.000 A 
ATOM      5  C   UNL     1       2.299   4.302  20.657  0.00  0.00    +0.000 A 
ATOM      6  C   UNL     1       3.199   4.660  19.638  0.00  0.00    +0.000 A 
ENDROOT
BRANCH   1   9
ATOM      7  C   UNL     1       6.079   4.368  16.019  0.00  0.00    +0.000 A 
ATOM      8  C   UNL     1       4.713   4.100  16.312  0.00  0.00    +0.000 A 
ATOM      9  C   UNL     1       4.650   3.984  17.680  0.00  0.00    +0.000 A 
ATOM     10  O   UNL     1       5.906   4.207  18.174  0.00  0.00    +0.000 OA
ATOM     11  N   UNL     1       6.802   4.418  17.150  0.00  0.00    +0.000 NA
BRANCH   7  13
ATOM     12  O   UNL     1       7.536   5.423  14.489  0.00  0.00    +0.000 OA
ATOM     13  C   UNL     1       6.686   4.565  14.698  0.00  0.00    +0.000 C 
ATOM     14  N   UNL     1       6.238   3.705  13.715  0.00  0.00    +0.000 N 
ATOM     15  H   UNL     1       5.633   2.942  14.002  0.00  0.00    +0.000 HD
BRANCH  14  16
ATOM     16  C   UNL     1       6.805   3.696  12.377  0.00  0.00    +0.000 C 
BRANCH  16  17
ATOM     17  C   UNL     1       6.473   2.426  11.606  0.00  0.00    +0.000 C 
ATOM     18  F   UNL     1       7.623   1.914  11.082  0.00  0.00    +0.000 F 
ENDBRANCH  16  17
ENDBRANCH  14  16
ENDBRANCH   7  13
ENDBRANCH   1   9
BRANCH   2  19
ATOM     19  O   UNL     1       3.271   1.400  17.872  0.00  0.00    +0.000 OA
ATOM     20  H   UNL     1       3.506   1.764  17.000  0.00  0.00    +0.000 HD
ENDBRANCH   2  19
BRANCH   4  21
ATOM     21  O   UNL     1       0.773   2.796  21.625  0.00  0.00    +0.000 OA
ATOM     22  H   UNL     1       0.425   1.898  21.495  0.00  0.00    +0.000 HD
ENDBRANCH   4  21
BRANCH   6  23
ATOM     23  O   UNL     1       3.723   5.944  19.599  0.00  0.00    +0.000 OA
BRANCH  23  24
ATOM     24  C   UNL     1       2.890   6.997  19.253  0.00  0.00    +0.000 A 
ATOM     25  C   UNL     1       2.085   7.523  20.269  0.00  0.00    +0.000 A 
ATOM     26  C   UNL     1       1.243   8.614  20.014  0.00  0.00    +0.000 A 
ATOM     27  C   UNL     1       1.211   9.179  18.732  0.00  0.00    +0.000 A 
ATOM     28  C   UNL     1       2.002   8.648  17.706  0.00  0.00    +0.000 A 
ATOM     29  C   UNL     1       2.858   7.576  17.977  0.00  0.00    +0.000 A 
BRANCH  27  30
ATOM     30  N   UNL     1       0.381  10.361  18.471  0.00  0.00    +0.000 N 
ATOM     31  O   UNL     1       0.872  11.475  18.702  0.00  0.00    +0.000 OA
ATOM     32  O   UNL     1      -0.760  10.177  18.018  0.00  0.00    +0.000 OA
ENDBRANCH  27  30
ENDBRANCH  23  24
ENDBRANCH   6  23
TORSDOF 9
ENDMDL
MODEL 2
REMARK VINA RESULT:      -8.9      0.168      1.070
REMARK  Name = 
REMARK  9 active torsions:
REMARK  status: ('A' for Active; 'I' for Inactive)
REMARK    1  A    between atoms: C_2  and  C_7
REMARK    2  A    between atoms: N_3  and  C_4
REMARK    3  A    between atoms: C_4  and  C_5
REMARK    4  A    between atoms: C_9  and  C_10
REMARK    5  A    between atoms: C_11  and  O_12
REMARK    6  A    between atoms: C_14  and  O_15
REMARK    7  A    between atoms: C_17  and  O_18
REMARK    8  A    between atoms: O_18  and  C_19
REMARK    9  A    between atoms: C_22  and  N_23
REMARK                            x       y       z     vdW  Elec       q    Type
REMARK                         _______ _______ _______ _____ _____    ______ ____
ROOT
ATOM      1  C   UNL     1       3.629   3.727  18.649  0.00  0.00    +0.000 A 
ATOM      2  C   UNL     1       3.014   2.454  18.716  0.00  0.00    +0.000 A 
ATOM      3  C   UNL     1       2.049   2.143  19.679  0.00  0.00    +0.000 A 
ATOM      4  C   UNL     1       1.710   3.090  20.626  0.00  0.00    +0.000 A 
ATOM      5  C   UNL     1       2.303   4.342  20.612  0.00  0.00    +0.000 A 
ATOM      6  C   UNL     1       3.204   4.695  19.593  0.00  0.00    +0.000 A 
ENDROOT
BRANCH   1   9
ATOM      7  C   UNL     1       6.089   4.385  15.979  0.00  0.00    +0.000 A 
ATOM      8  C   UNL     1       4.721   4.126  16.272  0.00  0.00    +0.000 A 
ATOM      9  C   UNL     1       4.659   4.008  17.640  0.00  0.00    +0.000 A 
ATOM     10  O   UNL     1       5.916   4.221  18.134  0.00  0.00    +0.000 OA
ATOM     11  N   UNL     1       6.813   4.428  17.110  0.00  0.00    +0.000 NA
BRANCH   7  13
ATOM     12  O   UNL     1       7.531   5.451  14.443  0.00  0.00    +0.000 OA
ATOM     13  C   UNL     1       6.696   4.580  14.658  0.00  0.00    +0.000 C 
ATOM     14  N   UNL     1       6.266   3.703  13.682  0.00  0.00    +0.000 N 
ATOM     15  H   UNL     1       5.674   2.932  13.975  0.00  0.00    +0.000 HD
BRANCH  14  16
ATOM     16  C   UNL     1       6.838   3.692  12.346  0.00  0.00    +0.000 C 
BRANCH  16  17
ATOM     17  C   UNL     1       6.403   2.481  11.530  0.00  0.00    +0.000 C 
ATOM     18  F   UNL     1       7.511   1.807  11.115  0.00  0.00    +0.000 F 
ENDBRANCH  16  17
ENDBRANCH  14  16
ENDBRANCH   7  13
ENDBRANCH   1   9
BRANCH   2  19
ATOM     19  O   UNL     1       3.281   1.424  17.846  0.00  0.00    +0.000 OA
ATOM     20  H   UNL     1       4.126   1.002  18.084  0.00  0.00    +0.000 HD
ENDBRANCH   2  19
BRANCH   4  21
ATOM     21  O   UNL     1       0.777   2.841  21.587  0.00  0.00    +0.000 OA
ATOM     22  H   UNL     1      -0.057   3.270  21.333  0.00  0.00    +0.000 HD
ENDBRANCH   4  21
BRANCH   6  23
ATOM     23  O   UNL     1       3.727   5.979  19.546  0.00  0.00    +0.000 OA
BRANCH  23  24
ATOM     24  C   UNL     1       2.868   7.044  19.327  0.00  0.00    +0.000 A 
ATOM     25  C   UNL     1       2.831   7.566  18.030  0.00  0.00    +0.000 A 
ATOM     26  C   UNL     1       1.962   8.619  17.714  0.00  0.00    +0.000 A 
ATOM     27  C   UNL     1       1.125   9.149  18.706  0.00  0.00    +0.000 A 
ATOM     28  C   UNL     1       1.169   8.642  20.011  0.00  0.00    +0.000 A 
ATOM     29  C   UNL     1       2.021   7.575  20.310  0.00  0.00    +0.000 A 
BRANCH  27  30
ATOM     30  N   UNL     1       0.165  10.208  18.371  0.00  0.00    +0.000 N 
ATOM     31  O   UNL     1      -0.751   9.930  17.585  0.00  0.00    +0.000 OA
ATOM     32  O   UNL     1       0.320  11.317  18.906  0.00  0.00    +0.000 OA
ENDBRANCH  27  30
ENDBRANCH  23  24
ENDBRANCH   6  23
TORSDOF 9
ENDMDL
MODEL 3
REMARK VINA RESULT:      -8.9      1.358      1.714
REMARK  Name = 
REMARK  9 active torsions:
REMARK  status: ('A' for Active; 'I' for Inactive)
REMARK    1  A    between atoms: C_2  and  C_7
REMARK    2  A    between atoms: N_3  and  C_4
REMARK    3  A    between atoms: C_4  and  C_5
REMARK    4  A    between atoms: C_9  and  C_10
REMARK    5  A    between atoms: C_11  and  O_12
REMARK    6  A    between atoms: C_14  and  O_15
REMARK    7  A    between atoms: C_17  and  O_18
REMARK    8  A    between atoms: O_18  and  C_19
REMARK    9  A    between atoms: C_22  and  N_23
REMARK                            x       y       z     vdW  Elec       q    Type
REMARK                         _______ _______ _______ _____ _____    ______ ____
ROOT
ATOM      1  C   UNL     1       3.993   3.677  19.150  0.00  0.00    +0.000 A 
ATOM      2  C   UNL     1       4.229   2.597  20.033  0.00  0.00    +0.000 A 
ATOM      3  C   UNL     1       3.370   2.302  21.097  0.00  0.00    +0.000 A 
ATOM      4  C   UNL     1       2.276   3.114  21.325  0.00  0.00    +0.000 A 
ATOM      5  C   UNL     1       2.019   4.196  20.499  0.00  0.00    +0.000 A 
ATOM      6  C   UNL     1       2.823   4.443  19.373  0.00  0.00    +0.000 A 
ENDROOT
BRANCH   1   9
ATOM      7  C   UNL     1       6.225   4.348  16.289  0.00  0.00    +0.000 A 
ATOM      8  C   UNL     1       4.904   3.998  16.686  0.00  0.00    +0.000 A 
ATOM      9  C   UNL     1       4.933   3.970  18.060  0.00  0.00    +0.000 A 
ATOM     10  O   UNL     1       6.194   4.322  18.456  0.00  0.00    +0.000 OA
ATOM     11  N   UNL     1       7.007   4.529  17.365  0.00  0.00    +0.000 NA
BRANCH   7  13
ATOM     12  O   UNL     1       7.626   5.290  14.638  0.00  0.00    +0.000 OA
ATOM     13  C   UNL     1       6.733   4.500  14.921  0.00  0.00    +0.000 C 
ATOM     14  N   UNL     1       6.141   3.678  13.983  0.00  0.00    +0.000 N 
ATOM     15  H   UNL     1       5.505   2.963  14.323  0.00  0.00    +0.000 HD
BRANCH  14  16
ATOM     16  C   UNL     1       6.593   3.628  12.603  0.00  0.00    +0.000 C 
BRANCH  16  17
ATOM     17  C   UNL     1       5.620   2.893  11.691  0.00  0.00    +0.000 C 
ATOM     18  F   UNL     1       4.365   3.385  11.894  0.00  0.00    +0.000 F 
ENDBRANCH  16  17
ENDBRANCH  14  16
ENDBRANCH   7  13
ENDBRANCH   1   9
BRANCH   2  19
ATOM     19  O   UNL     1       5.292   1.731  19.924  0.00  0.00    +0.000 OA
ATOM     20  H   UNL     1       5.451   1.520  18.987  0.00  0.00    +0.000 HD
ENDBRANCH   2  19
BRANCH   4  21
ATOM     21  O   UNL     1       1.407   2.875  22.346  0.00  0.00    +0.000 OA
ATOM     22  H   UNL     1       1.694   2.079  22.824  0.00  0.00    +0.000 HD
ENDBRANCH   4  21
BRANCH   6  23
ATOM     23  O   UNL     1       2.504   5.482  18.510  0.00  0.00    +0.000 OA
BRANCH  23  24
ATOM     24  C   UNL     1       2.138   6.708  19.043  0.00  0.00    +0.000 A 
ATOM     25  C   UNL     1       2.076   7.787  18.155  0.00  0.00    +0.000 A 
ATOM     26  C   UNL     1       1.677   9.053  18.605  0.00  0.00    +0.000 A 
ATOM     27  C   UNL     1       1.339   9.235  19.953  0.00  0.00    +0.000 A 
ATOM     28  C   UNL     1       1.414   8.163  20.851  0.00  0.00    +0.000 A 
ATOM     29  C   UNL     1       1.788   6.898  20.387  0.00  0.00    +0.000 A 
BRANCH  27  30
ATOM     30  N   UNL     1       0.858  10.541  20.421  0.00  0.00    +0.000 N 
ATOM     31  O   UNL     1       0.215  11.239  19.625  0.00  0.00    +0.000 OA
ATOM     32  O   UNL     1       1.113  10.863  21.592  0.00  0.00    +0.000 OA
ENDBRANCH  27  30
ENDBRANCH  23  24
ENDBRANCH   6  23
TORSDOF 9
ENDMDL
MODEL 4
REMARK VINA RESULT:      -8.4      1.199      1.284
REMARK  Name = 
REMARK  9 active torsions:
REMARK  status: ('A' for Active; 'I' for Inactive)
REMARK    1  A    between atoms: C_2  and  C_7
REMARK    2  A    between atoms: N_3  and  C_4
REMARK    3  A    between atoms: C_4  and  C_5
REMARK    4  A    between atoms: C_9  and  C_10
REMARK    5  A    between atoms: C_11  and  O_12
REMARK    6  A    between atoms: C_14  and  O_15
REMARK    7  A    between atoms: C_17  and  O_18
REMARK    8  A    between atoms: O_18  and  C_19
REMARK    9  A    between atoms: C_22  and  N_23
REMARK                            x       y       z     vdW  Elec       q    Type
REMARK                         _______ _______ _______ _____ _____    ______ ____
ROOT
ATOM      1  C   UNL     1       4.075   3.865  19.005  0.00  0.00    +0.000 A 
ATOM      2  C   UNL     1       4.213   2.749  19.864  0.00  0.00    +0.000 A 
ATOM      3  C   UNL     1       3.319   2.498  20.909  0.00  0.00    +0.000 A 
ATOM      4  C   UNL     1       2.289   3.388  21.145  0.00  0.00    +0.000 A 
ATOM      5  C   UNL     1       2.129   4.506  20.344  0.00  0.00    +0.000 A 
ATOM      6  C   UNL     1       2.965   4.717  19.234  0.00  0.00    +0.000 A 
ENDROOT
BRANCH   1   9
ATOM      7  C   UNL     1       6.388   4.438  16.188  0.00  0.00    +0.000 A 
ATOM      8  C   UNL     1       5.033   4.225  16.565  0.00  0.00    +0.000 A 
ATOM      9  C   UNL     1       5.050   4.110  17.935  0.00  0.00    +0.000 A 
ATOM     10  O   UNL     1       6.342   4.282  18.350  0.00  0.00    +0.000 OA
ATOM     11  N   UNL     1       7.181   4.457  17.273  0.00  0.00    +0.000 NA
BRANCH   7  13
ATOM     12  O   UNL     1       7.809   5.415  14.575  0.00  0.00    +0.000 OA
ATOM     13  C   UNL     1       6.920   4.611  14.832  0.00  0.00    +0.000 C 
ATOM     14  N   UNL     1       6.354   3.794  13.874  0.00  0.00    +0.000 N 
ATOM     15  H   UNL     1       5.721   3.068  14.194  0.00  0.00    +0.000 HD
BRANCH  14  16
ATOM     16  C   UNL     1       6.832   3.765  12.502  0.00  0.00    +0.000 C 
BRANCH  16  17
ATOM     17  C   UNL     1       6.348   2.541  11.736  0.00  0.00    +0.000 C 
ATOM     18  F   UNL     1       7.422   1.919  11.171  0.00  0.00    +0.000 F 
ENDBRANCH  16  17
ENDBRANCH  14  16
ENDBRANCH   7  13
ENDBRANCH   1   9
BRANCH   2  19
ATOM     19  O   UNL     1       5.206   1.806  19.746  0.00  0.00    +0.000 OA
ATOM     20  H   UNL     1       5.419   1.440  20.623  0.00  0.00    +0.000 HD
ENDBRANCH   2  19
BRANCH   4  21
ATOM     21  O   UNL     1       1.389   3.194  22.149  0.00  0.00    +0.000 OA
ATOM     22  H   UNL     1       1.776   2.589  22.805  0.00  0.00    +0.000 HD
ENDBRANCH   4  21
BRANCH   6  23
ATOM     23  O   UNL     1       2.741   5.797  18.393  0.00  0.00    +0.000 OA
BRANCH  23  24
ATOM     24  C   UNL     1       2.175   6.948  18.919  0.00  0.00    +0.000 A 
ATOM     25  C   UNL     1       1.947   6.964  20.299  0.00  0.00    +0.000 A 
ATOM     26  C   UNL     1       1.414   8.103  20.916  0.00  0.00    +0.000 A 
ATOM     27  C   UNL     1       1.109   9.232  20.144  0.00  0.00    +0.000 A 
ATOM     28  C   UNL     1       1.320   9.218  18.759  0.00  0.00    +0.000 A 
ATOM     29  C   UNL     1       1.876   8.086  18.156  0.00  0.00    +0.000 A 
BRANCH  27  30
ATOM     30  N   UNL     1       0.611  10.453  20.789  0.00  0.00    +0.000 N 
ATOM     31  O   UNL     1       1.260  10.910  21.739  0.00  0.00    +0.000 OA
ATOM     32  O   UNL     1      -0.425  10.964  20.335  0.00  0.00    +0.000 OA
ENDBRANCH  27  30
ENDBRANCH  23  24
ENDBRANCH   6  23
TORSDOF 9
ENDMDL
MODEL 5
REMARK VINA RESULT:      -8.1      3.214      7.366
REMARK  Name = 
REMARK  9 active torsions:
REMARK  status: ('A' for Active; 'I' for Inactive)
REMARK    1  A    between atoms: C_2  and  C_7
REMARK    2  A    between atoms: N_3  and  C_4
REMARK    3  A    between atoms: C_4  and  C_5
REMARK    4  A    between atoms: C_9  and  C_10
REMARK    5  A    between atoms: C_11  and  O_12
REMARK    6  A    between atoms: C_14  and  O_15
REMARK    7  A    between atoms: C_17  and  O_18
REMARK    8  A    between atoms: O_18  and  C_19
REMARK    9  A    between atoms: C_22  and  N_23
REMARK                            x       y       z     vdW  Elec       q    Type
REMARK                         _______ _______ _______ _____ _____    ______ ____
ROOT
ATOM      1  C   UNL     1       2.740   4.482  19.108  0.00  0.00    +0.000 A 
ATOM      2  C   UNL     1       1.787   3.483  19.417  0.00  0.00    +0.000 A 
ATOM      3  C   UNL     1       2.090   2.119  19.352  0.00  0.00    +0.000 A 
ATOM      4  C   UNL     1       3.346   1.726  18.933  0.00  0.00    +0.000 A 
ATOM      5  C   UNL     1       4.303   2.669  18.598  0.00  0.00    +0.000 A 
ATOM      6  C   UNL     1       4.038   4.042  18.751  0.00  0.00    +0.000 A 
ENDROOT
BRANCH   1   9
ATOM      7  C   UNL     1       1.893   8.073  19.066  0.00  0.00    +0.000 A 
ATOM      8  C   UNL     1       2.301   6.958  18.283  0.00  0.00    +0.000 A 
ATOM      9  C   UNL     1       2.377   5.904  19.162  0.00  0.00    +0.000 A 
ATOM     10  O   UNL     1       1.998   6.363  20.394  0.00  0.00    +0.000 OA
ATOM     11  N   UNL     1       1.725   7.711  20.348  0.00  0.00    +0.000 NA
BRANCH   7  13
ATOM     12  O   UNL     1       2.129   9.869  17.552  0.00  0.00    +0.000 OA
ATOM     13  C   UNL     1       1.676   9.451  18.610  0.00  0.00    +0.000 C 
ATOM     14  N   UNL     1       0.912  10.232  19.455  0.00  0.00    +0.000 N 
ATOM     15  H   UNL     1       0.467   9.771  20.242  0.00  0.00    +0.000 HD
BRANCH  14  16
ATOM     16  C   UNL     1       0.517  11.587  19.109  0.00  0.00    +0.000 C 
BRANCH  16  17
ATOM     17  C   UNL     1      -0.947  11.687  18.701  0.00  0.00    +0.000 C 
ATOM     18  F   UNL     1      -1.439  10.431  18.509  0.00  0.00    +0.000 F 
ENDBRANCH  16  17
ENDBRANCH  14  16
ENDBRANCH   7  13
ENDBRANCH   1   9
BRANCH   2  19
ATOM     19  O   UNL     1       0.501   3.746  19.826  0.00  0.00    +0.000 OA
ATOM     20  H   UNL     1       0.430   3.626  20.790  0.00  0.00    +0.000 HD
ENDBRANCH   2  19
BRANCH   4  21
ATOM     21  O   UNL     1       3.695   0.412  18.850  0.00  0.00    +0.000 OA
ATOM     22  H   UNL     1       3.583   0.114  17.931  0.00  0.00    +0.000 HD
ENDBRANCH   4  21
BRANCH   6  23
ATOM     23  O   UNL     1       5.034   4.971  18.490  0.00  0.00    +0.000 OA
BRANCH  23  24
ATOM     24  C   UNL     1       5.582   5.027  17.218  0.00  0.00    +0.000 A 
ATOM     25  C   UNL     1       6.974   4.925  17.126  0.00  0.00    +0.000 A 
ATOM     26  C   UNL     1       7.605   4.933  15.876  0.00  0.00    +0.000 A 
ATOM     27  C   UNL     1       6.834   5.044  14.710  0.00  0.00    +0.000 A 
ATOM     28  C   UNL     1       5.441   5.164  14.795  0.00  0.00    +0.000 A 
ATOM     29  C   UNL     1       4.818   5.128  16.046  0.00  0.00    +0.000 A 
BRANCH  27  30
ATOM     30  N   UNL     1       7.479   4.990  13.393  0.00  0.00    +0.000 N 
ATOM     31  O   UNL     1       8.481   5.694  13.211  0.00  0.00    +0.000 OA
ATOM     32  O   UNL     1       6.990   4.230  12.542  0.00  0.00    +0.000 OA
ENDBRANCH  27  30
ENDBRANCH  23  24
ENDBRANCH   6  23
TORSDOF 9
ENDMDL
MODEL 6
REMARK VINA RESULT:      -8.1      3.214      7.429
REMARK  Name = 
REMARK  9 active torsions:
REMARK  status: ('A' for Active; 'I' for Inactive)
REMARK    1  A    between atoms: C_2  and  C_7
REMARK    2  A    between atoms: N_3  and  C_4
REMARK    3  A    between atoms: C_4  and  C_5
REMARK    4  A    between atoms: C_9  and  C_10
REMARK    5  A    between atoms: C_11  and  O_12
REMARK    6  A    between atoms: C_14  and  O_15
REMARK    7  A    between atoms: C_17  and  O_18
REMARK    8  A    between atoms: O_18  and  C_19
REMARK    9  A    between atoms: C_22  and  N_23
REMARK                            x       y       z     vdW  Elec       q    Type
REMARK                         _______ _______ _______ _____ _____    ______ ____
ROOT
ATOM      1  C   UNL     1       3.261   5.033  19.703  0.00  0.00    +0.000 A 
ATOM      2  C   UNL     1       2.608   3.998  20.415  0.00  0.00    +0.000 A 
ATOM      3  C   UNL     1       3.168   2.725  20.560  0.00  0.00    +0.000 A 
ATOM      4  C   UNL     1       4.379   2.448  19.956  0.00  0.00    +0.000 A 
ATOM      5  C   UNL     1       5.043   3.423  19.230  0.00  0.00    +0.000 A 
ATOM      6  C   UNL     1       4.533   4.731  19.158  0.00  0.00    +0.000 A 
ENDROOT
BRANCH   1   9
ATOM      7  C   UNL     1       1.754   8.354  19.146  0.00  0.00    +0.000 A 
ATOM      8  C   UNL     1       2.457   7.272  18.546  0.00  0.00    +0.000 A 
ATOM      9  C   UNL     1       2.628   6.349  19.550  0.00  0.00    +0.000 A 
ATOM     10  O   UNL     1       2.026   6.842  20.675  0.00  0.00    +0.000 OA
ATOM     11  N   UNL     1       1.507   8.095  20.441  0.00  0.00    +0.000 NA
BRANCH   7  13
ATOM     12  O   UNL     1       1.948  10.105  17.574  0.00  0.00    +0.000 OA
ATOM     13  C   UNL     1       1.332   9.606  18.508  0.00  0.00    +0.000 C 
ATOM     14  N   UNL     1       0.185  10.170  19.030  0.00  0.00    +0.000 N 
ATOM     15  H   UNL     1      -0.335   9.626  19.712  0.00  0.00    +0.000 HD
BRANCH  14  16
ATOM     16  C   UNL     1      -0.427  11.355  18.452  0.00  0.00    +0.000 C 
BRANCH  16  17
ATOM     17  C   UNL     1      -1.752  11.057  17.764  0.00  0.00    +0.000 C 
ATOM     18  F   UNL     1      -2.132   9.784  18.068  0.00  0.00    +0.000 F 
ENDBRANCH  16  17
ENDBRANCH  14  16
ENDBRANCH   7  13
ENDBRANCH   1   9
BRANCH   2  19
ATOM     19  O   UNL     1       1.393   4.143  21.042  0.00  0.00    +0.000 OA
ATOM     20  H   UNL     1       0.964   4.965  20.744  0.00  0.00    +0.000 HD
ENDBRANCH   2  19
BRANCH   4  21
ATOM     21  O   UNL     1       4.970   1.225  20.063  0.00  0.00    +0.000 OA
ATOM     22  H   UNL     1       4.871   0.753  19.219  0.00  0.00    +0.000 HD
ENDBRANCH   4  21
BRANCH   6  23
ATOM     23  O   UNL     1       5.251   5.717  18.496  0.00  0.00    +0.000 OA
BRANCH  23  24
ATOM     24  C   UNL     1       5.761   5.443  17.237  0.00  0.00    +0.000 A 
ATOM     25  C   UNL     1       4.847   5.024  16.265  0.00  0.00    +0.000 A 
ATOM     26  C   UNL     1       5.273   4.764  14.956  0.00  0.00    +0.000 A 
ATOM     27  C   UNL     1       6.625   4.927  14.622  0.00  0.00    +0.000 A 
ATOM     28  C   UNL     1       7.549   5.330  15.594  0.00  0.00    +0.000 A 
ATOM     29  C   UNL     1       7.109   5.613  16.890  0.00  0.00    +0.000 A 
BRANCH  27  30
ATOM     30  N   UNL     1       7.071   4.719  13.239  0.00  0.00    +0.000 N 
ATOM     31  O   UNL     1       6.519   3.826  12.582  0.00  0.00    +0.000 OA
ATOM     32  O   UNL     1       7.966   5.461  12.803  0.00  0.00    +0.000 OA
ENDBRANCH  27  30
ENDBRANCH  23  24
ENDBRANCH   6  23
TORSDOF 9
ENDMDL
MODEL 7
REMARK VINA RESULT:      -8.1      3.434      4.067
REMARK  Name = 
REMARK  9 active torsions:
REMARK  status: ('A' for Active; 'I' for Inactive)
REMARK    1  A    between atoms: C_2  and  C_7
REMARK    2  A    between atoms: N_3  and  C_4
REMARK    3  A    between atoms: C_4  and  C_5
REMARK    4  A    between atoms: C_9  and  C_10
REMARK    5  A    between atoms: C_11  and  O_12
REMARK    6  A    between atoms: C_14  and  O_15
REMARK    7  A    between atoms: C_17  and  O_18
REMARK    8  A    between atoms: O_18  and  C_19
REMARK    9  A    between atoms: C_22  and  N_23
REMARK                            x       y       z     vdW  Elec       q    Type
REMARK                         _______ _______ _______ _____ _____    ______ ____
ROOT
ATOM      1  C   UNL     1       3.627   4.466  18.735  0.00  0.00    +0.000 A 
ATOM      2  C   UNL     1       3.377   3.274  18.014  0.00  0.00    +0.000 A 
ATOM      3  C   UNL     1       2.192   2.547  18.164  0.00  0.00    +0.000 A 
ATOM      4  C   UNL     1       1.247   2.978  19.074  0.00  0.00    +0.000 A 
ATOM      5  C   UNL     1       1.458   4.127  19.817  0.00  0.00    +0.000 A 
ATOM      6  C   UNL     1       2.604   4.915  19.606  0.00  0.00    +0.000 A 
ENDROOT
BRANCH   1   9
ATOM      7  C   UNL     1       6.736   6.374  18.177  0.00  0.00    +0.000 A 
ATOM      8  C   UNL     1       5.355   6.265  17.851  0.00  0.00    +0.000 A 
ATOM      9  C   UNL     1       4.896   5.187  18.571  0.00  0.00    +0.000 A 
ATOM     10  O   UNL     1       5.940   4.706  19.311  0.00  0.00    +0.000 OA
ATOM     11  N   UNL     1       7.090   5.417  19.052  0.00  0.00    +0.000 NA
BRANCH   7  13
ATOM     12  O   UNL     1       8.129   7.315  16.520  0.00  0.00    +0.000 OA
ATOM     13  C   UNL     1       7.698   7.356  17.665  0.00  0.00    +0.000 C 
ATOM     14  N   UNL     1       8.068   8.335  18.566  0.00  0.00    +0.000 N 
ATOM     15  H   UNL     1       7.566   8.373  19.448  0.00  0.00    +0.000 HD
BRANCH  14  16
ATOM     16  C   UNL     1       8.933   9.442  18.194  0.00  0.00    +0.000 C 
BRANCH  16  17
ATOM     17  C   UNL     1       9.325  10.309  19.383  0.00  0.00    +0.000 C 
ATOM     18  F   UNL     1      10.571  10.816  19.169  0.00  0.00    +0.000 F 
ENDBRANCH  16  17
ENDBRANCH  14  16
ENDBRANCH   7  13
ENDBRANCH   1   9
BRANCH   2  19
ATOM     19  O   UNL     1       4.247   2.733  17.097  0.00  0.00    +0.000 OA
ATOM     20  H   UNL     1       4.663   1.934  17.468  0.00  0.00    +0.000 HD
ENDBRANCH   2  19
BRANCH   4  21
ATOM     21  O   UNL     1       0.075   2.309  19.261  0.00  0.00    +0.000 OA
ATOM     22  H   UNL     1      -0.250   1.997  18.400  0.00  0.00    +0.000 HD
ENDBRANCH   4  21
BRANCH   6  23
ATOM     23  O   UNL     1       2.762   6.105  20.300  0.00  0.00    +0.000 OA
BRANCH  23  24
ATOM     24  C   UNL     1       2.151   7.250  19.813  0.00  0.00    +0.000 A 
ATOM     25  C   UNL     1       1.453   8.033  20.739  0.00  0.00    +0.000 A 
ATOM     26  C   UNL     1       0.840   9.227  20.338  0.00  0.00    +0.000 A 
ATOM     27  C   UNL     1       0.929   9.638  19.000  0.00  0.00    +0.000 A 
ATOM     28  C   UNL     1       1.613   8.851  18.065  0.00  0.00    +0.000 A 
ATOM     29  C   UNL     1       2.243   7.674  18.480  0.00  0.00    +0.000 A 
BRANCH  27  30
ATOM     30  N   UNL     1       0.345  10.918  18.583  0.00  0.00    +0.000 N 
ATOM     31  O   UNL     1       1.060  11.927  18.646  0.00  0.00    +0.000 OA
ATOM     32  O   UNL     1      -0.828  10.912  18.177  0.00  0.00    +0.000 OA
ENDBRANCH  27  30
ENDBRANCH  23  24
ENDBRANCH   6  23
TORSDOF 9
ENDMDL
MODEL 8
REMARK VINA RESULT:      -8.0      3.486      7.556
REMARK  Name = 
REMARK  9 active torsions:
REMARK  status: ('A' for Active; 'I' for Inactive)
REMARK    1  A    between atoms: C_2  and  C_7
REMARK    2  A    between atoms: N_3  and  C_4
REMARK    3  A    between atoms: C_4  and  C_5
REMARK    4  A    between atoms: C_9  and  C_10
REMARK    5  A    between atoms: C_11  and  O_12
REMARK    6  A    between atoms: C_14  and  O_15
REMARK    7  A    between atoms: C_17  and  O_18
REMARK    8  A    between atoms: O_18  and  C_19
REMARK    9  A    between atoms: C_22  and  N_23
REMARK                            x       y       z     vdW  Elec       q    Type
REMARK                         _______ _______ _______ _____ _____    ______ ____
ROOT
ATOM      1  C   UNL     1       2.815   4.560  19.036  0.00  0.00    +0.000 A 
ATOM      2  C   UNL     1       1.907   3.544  19.417  0.00  0.00    +0.000 A 
ATOM      3  C   UNL     1       2.234   2.186  19.341  0.00  0.00    +0.000 A 
ATOM      4  C   UNL     1       3.466   1.815  18.838  0.00  0.00    +0.000 A 
ATOM      5  C   UNL     1       4.378   2.776  18.433  0.00  0.00    +0.000 A 
ATOM      6  C   UNL     1       4.095   4.143  18.593  0.00  0.00    +0.000 A 
ENDROOT
BRANCH   1   9
ATOM      7  C   UNL     1       1.907   8.136  19.033  0.00  0.00    +0.000 A 
ATOM      8  C   UNL     1       2.349   7.040  18.241  0.00  0.00    +0.000 A 
ATOM      9  C   UNL     1       2.426   5.974  19.105  0.00  0.00    +0.000 A 
ATOM     10  O   UNL     1       2.017   6.408  20.336  0.00  0.00    +0.000 OA
ATOM     11  N   UNL     1       1.721   7.751  20.306  0.00  0.00    +0.000 NA
BRANCH   7  13
ATOM     12  O   UNL     1       2.059   9.932  17.508  0.00  0.00    +0.000 OA
ATOM     13  C   UNL     1       1.675   9.517  18.594  0.00  0.00    +0.000 C 
ATOM     14  N   UNL     1       0.980  10.305  19.490  0.00  0.00    +0.000 N 
ATOM     15  H   UNL     1       0.585   9.848  20.306  0.00  0.00    +0.000 HD
BRANCH  14  16
ATOM     16  C   UNL     1       0.577  11.665  19.174  0.00  0.00    +0.000 C 
BRANCH  16  17
ATOM     17  C   UNL     1      -0.813  11.739  18.557  0.00  0.00    +0.000 C 
ATOM     18  F   UNL     1      -1.540  12.684  19.217  0.00  0.00    +0.000 F 
ENDBRANCH  16  17
ENDBRANCH  14  16
ENDBRANCH   7  13
ENDBRANCH   1   9
BRANCH   2  19
ATOM     19  O   UNL     1       0.647   3.783  19.911  0.00  0.00    +0.000 OA
ATOM     20  H   UNL     1       0.455   4.737  19.876  0.00  0.00    +0.000 HD
ENDBRANCH   2  19
BRANCH   4  21
ATOM     21  O   UNL     1       3.836   0.508  18.741  0.00  0.00    +0.000 OA
ATOM     22  H   UNL     1       3.095  -0.051  19.029  0.00  0.00    +0.000 HD
ENDBRANCH   4  21
BRANCH   6  23
ATOM     23  O   UNL     1       5.051   5.091  18.258  0.00  0.00    +0.000 OA
BRANCH  23  24
ATOM     24  C   UNL     1       5.679   5.003  17.025  0.00  0.00    +0.000 A 
ATOM     25  C   UNL     1       4.850   4.895  15.903  0.00  0.00    +0.000 A 
ATOM     26  C   UNL     1       5.403   4.840  14.617  0.00  0.00    +0.000 A 
ATOM     27  C   UNL     1       6.794   4.894  14.457  0.00  0.00    +0.000 A 
ATOM     28  C   UNL     1       7.630   4.985  15.576  0.00  0.00    +0.000 A 
ATOM     29  C   UNL     1       7.069   5.066  16.854  0.00  0.00    +0.000 A 
BRANCH  27  30
ATOM     30  N   UNL     1       7.380   4.901  13.111  0.00  0.00    +0.000 N 
ATOM     31  O   UNL     1       8.245   5.752  12.862  0.00  0.00    +0.000 OA
ATOM     32  O   UNL     1       6.984   4.045  12.304  0.00  0.00    +0.000 OA
ENDBRANCH  27  30
ENDBRANCH  23  24
ENDBRANCH   6  23
TORSDOF 9
ENDMDL
MODEL 9
REMARK VINA RESULT:      -8.0      4.028      8.077
REMARK  Name = 
REMARK  9 active torsions:
REMARK  status: ('A' for Active; 'I' for Inactive)
REMARK    1  A    between atoms: C_2  and  C_7
REMARK    2  A    between atoms: N_3  and  C_4
REMARK    3  A    between atoms: C_4  and  C_5
REMARK    4  A    between atoms: C_9  and  C_10
REMARK    5  A    between atoms: C_11  and  O_12
REMARK    6  A    between atoms: C_14  and  O_15
REMARK    7  A    between atoms: C_17  and  O_18
REMARK    8  A    between atoms: O_18  and  C_19
REMARK    9  A    between atoms: C_22  and  N_23
REMARK                            x       y       z     vdW  Elec       q    Type
REMARK                         _______ _______ _______ _____ _____    ______ ____
ROOT
ATOM      1  C   UNL     1       2.561   4.560  19.586  0.00  0.00    +0.000 A 
ATOM      2  C   UNL     1       1.642   3.513  19.834  0.00  0.00    +0.000 A 
ATOM      3  C   UNL     1       1.926   2.181  19.513  0.00  0.00    +0.000 A 
ATOM      4  C   UNL     1       3.122   1.877  18.894  0.00  0.00    +0.000 A 
ATOM      5  C   UNL     1       4.042   2.873  18.611  0.00  0.00    +0.000 A 
ATOM      6  C   UNL     1       3.806   4.199  19.015  0.00  0.00    +0.000 A 
ENDROOT
BRANCH   1   9
ATOM      7  C   UNL     1       1.632   7.991  20.578  0.00  0.00    +0.000 A 
ATOM      8  C   UNL     1       1.812   6.651  21.024  0.00  0.00    +0.000 A 
ATOM      9  C   UNL     1       2.216   5.950  19.913  0.00  0.00    +0.000 A 
ATOM     10  O   UNL     1       2.306   6.833  18.873  0.00  0.00    +0.000 OA
ATOM     11  N   UNL     1       1.918   8.093  19.269  0.00  0.00    +0.000 NA
BRANCH   7  13
ATOM     12  O   UNL     1       1.778   9.503  22.384  0.00  0.00    +0.000 OA
ATOM     13  C   UNL     1       1.191   9.143  21.372  0.00  0.00    +0.000 C 
ATOM     14  N   UNL     1       0.076   9.796  20.884  0.00  0.00    +0.000 N 
ATOM     15  H   UNL     1      -0.269   9.515  19.972  0.00  0.00    +0.000 HD
BRANCH  14  16
ATOM     16  C   UNL     1      -0.433  11.015  21.491  0.00  0.00    +0.000 C 
BRANCH  16  17
ATOM     17  C   UNL     1      -1.070  10.773  22.852  0.00  0.00    +0.000 C 
ATOM     18  F   UNL     1      -1.419  11.973  23.397  0.00  0.00    +0.000 F 
ENDBRANCH  16  17
ENDBRANCH  14  16
ENDBRANCH   7  13
ENDBRANCH   1   9
BRANCH   2  19
ATOM     19  O   UNL     1       0.413   3.690  20.424  0.00  0.00    +0.000 OA
ATOM     20  H   UNL     1       0.477   3.509  21.379  0.00  0.00    +0.000 HD
ENDBRANCH   2  19
BRANCH   4  21
ATOM     21  O   UNL     1       3.450   0.598  18.557  0.00  0.00    +0.000 OA
ATOM     22  H   UNL     1       3.652   0.565  17.607  0.00  0.00    +0.000 HD
ENDBRANCH   4  21
BRANCH   6  23
ATOM     23  O   UNL     1       4.772   5.170  18.798  0.00  0.00    +0.000 OA
BRANCH  23  24
ATOM     24  C   UNL     1       5.398   5.228  17.562  0.00  0.00    +0.000 A 
ATOM     25  C   UNL     1       6.674   4.662  17.477  0.00  0.00    +0.000 A 
ATOM     26  C   UNL     1       7.361   4.643  16.255  0.00  0.00    +0.000 A 
ATOM     27  C   UNL     1       6.762   5.195  15.115  0.00  0.00    +0.000 A 
ATOM     28  C   UNL     1       5.492   5.779  15.197  0.00  0.00    +0.000 A 
ATOM     29  C   UNL     1       4.804   5.769  16.414  0.00  0.00    +0.000 A 
BRANCH  27  30
ATOM     30  N   UNL     1       7.445   5.124  13.817  0.00  0.00    +0.000 N 
ATOM     31  O   UNL     1       8.469   5.804  13.665  0.00  0.00    +0.000 OA
ATOM     32  O   UNL     1       6.965   4.374  12.952  0.00  0.00    +0.000 OA
ENDBRANCH  27  30
ENDBRANCH  23  24
ENDBRANCH   6  23
TORSDOF 9
ENDMDL
