MODEL 1
REMARK VINA RESULT:      -6.1      0.000      0.000
REMARK  Name = 
REMARK  6 active torsions:
REMARK  status: ('A' for Active; 'I' for Inactive)
REMARK    1  A    between atoms: C_1  and  C_2
REMARK    2  A    between atoms: C_2  and  O_3
REMARK    3  A    between atoms: O_3  and  C_4
REMARK    4  A    between atoms: C_4  and  N_6
REMARK    5  A    between atoms: N_10  and  C_11
REMARK    6  A    between atoms: N_10  and  C_12
REMARK                            x       y       z     vdW  Elec       q    Type
REMARK                         _______ _______ _______ _____ _____    ______ ____
ROOT
ATOM      1  N   UNL     1       6.511   4.740  19.193  0.00  0.00    +0.000 NA
ATOM      2  C   UNL     1       5.276   4.657  18.811  0.00  0.00    +0.000 A 
ATOM      3  N   UNL     1       4.361   4.024  19.636  0.00  0.00    +0.000 NA
ATOM      4  C   UNL     1       3.328   3.523  19.012  0.00  0.00    +0.000 A 
ATOM      5  N   UNL     1       2.269   2.857  19.614  0.00  0.00    +0.000 N 
ATOM      6  C   UNL     1       2.184   2.706  21.064  0.00  0.00    +0.000 C 
ATOM      7  C   UNL     1       1.105   2.314  18.915  0.00  0.00    +0.000 C 
ATOM      8  S   UNL     1       3.298   3.726  17.244  0.00  0.00    +0.000 S 
ATOM      9  S   UNL     1       4.594   5.270  17.303  0.00  0.00    +0.000 S 
ENDROOT
BRANCH   1  10
ATOM     10  C   UNL     1       7.421   5.178  18.276  0.00  0.00    +0.000 C 
ATOM     11  O   UNL     1       7.859   4.513  17.349  0.00  0.00    +0.000 OA
BRANCH  10  12
ATOM     12  O   UNL     1       7.849   6.443  18.555  0.00  0.00    +0.000 OA
BRANCH  12  14
ATOM     13  C   UNL     1       8.097   8.803  17.869  0.00  0.00    +0.000 C 
ATOM     14  C   UNL     1       7.596   7.410  17.517  0.00  0.00    +0.000 C 
ENDBRANCH  12  14
ENDBRANCH  10  12
ENDBRANCH   1  10
TORSDOF 3
ENDMDL
MODEL 2
REMARK VINA RESULT:      -5.8      1.042      1.042
REMARK  Name = 
REMARK  6 active torsions:
REMARK  status: ('A' for Active; 'I' for Inactive)
REMARK    1  A    between atoms: C_1  and  C_2
REMARK    2  A    between atoms: C_2  and  O_3
REMARK    3  A    between atoms: O_3  and  C_4
REMARK    4  A    between atoms: C_4  and  N_6
REMARK    5  A    between atoms: N_10  and  C_11
REMARK    6  A    between atoms: N_10  and  C_12
REMARK                            x       y       z     vdW  Elec       q    Type
REMARK                         _______ _______ _______ _____ _____    ______ ____
ROOT
ATOM      1  N   UNL     1       6.417   5.373  18.428  0.00  0.00    +0.000 NA
ATOM      2  C   UNL     1       5.264   4.824  18.213  0.00  0.00    +0.000 A 
ATOM      3  N   UNL     1       4.343   4.778  19.247  0.00  0.00    +0.000 NA
ATOM      4  C   UNL     1       3.473   3.807  19.151  0.00  0.00    +0.000 A 
ATOM      5  N   UNL     1       2.443   3.557  20.048  0.00  0.00    +0.000 N 
ATOM      6  C   UNL     1       2.194   4.432  21.190  0.00  0.00    +0.000 C 
ATOM      7  C   UNL     1       1.461   2.481  19.928  0.00  0.00    +0.000 C 
ATOM      8  S   UNL     1       3.644   2.729  17.744  0.00  0.00    +0.000 S 
ATOM      9  S   UNL     1       4.706   4.095  16.707  0.00  0.00    +0.000 S 
ENDROOT
BRANCH   1  10
ATOM     10  C   UNL     1       7.372   5.219  17.465  0.00  0.00    +0.000 C 
ATOM     11  O   UNL     1       8.088   4.237  17.338  0.00  0.00    +0.000 OA
BRANCH  10  12
ATOM     12  O   UNL     1       7.488   6.334  16.687  0.00  0.00    +0.000 OA
BRANCH  12  14
ATOM     13  C   UNL     1       8.162   8.387  17.884  0.00  0.00    +0.000 C 
ATOM     14  C   UNL     1       7.029   7.553  17.304  0.00  0.00    +0.000 C 
ENDBRANCH  12  14
ENDBRANCH  10  12
ENDBRANCH   1  10
TORSDOF 3
ENDMDL
MODEL 3
REMARK VINA RESULT:      -5.7      1.563      2.194
REMARK  Name = 
REMARK  6 active torsions:
REMARK  status: ('A' for Active; 'I' for Inactive)
REMARK    1  A    between atoms: C_1  and  C_2
REMARK    2  A    between atoms: C_2  and  O_3
REMARK    3  A    between atoms: O_3  and  C_4
REMARK    4  A    between atoms: C_4  and  N_6
REMARK    5  A    between atoms: N_10  and  C_11
REMARK    6  A    between atoms: N_10  and  C_12
REMARK                            x       y       z     vdW  Elec       q    Type
REMARK                         _______ _______ _______ _____ _____    ______ ____
ROOT
ATOM      1  N   UNL     1       6.704   4.566  18.573  0.00  0.00    +0.000 NA
ATOM      2  C   UNL     1       5.436   4.812  18.681  0.00  0.00    +0.000 A 
ATOM      3  N   UNL     1       4.685   4.071  19.578  0.00  0.00    +0.000 NA
ATOM      4  C   UNL     1       3.416   3.989  19.279  0.00  0.00    +0.000 A 
ATOM      5  N   UNL     1       2.454   3.318  20.024  0.00  0.00    +0.000 N 
ATOM      6  C   UNL     1       2.782   2.673  21.293  0.00  0.00    +0.000 C 
ATOM      7  C   UNL     1       1.031   3.244  19.697  0.00  0.00    +0.000 C 
ATOM      8  S   UNL     1       2.900   4.813  17.788  0.00  0.00    +0.000 S 
ATOM      9  S   UNL     1       4.516   6.020  17.783  0.00  0.00    +0.000 S 
ENDROOT
BRANCH   1  10
ATOM     10  C   UNL     1       7.371   5.161  17.542  0.00  0.00    +0.000 C 
ATOM     11  O   UNL     1       7.737   6.327  17.523  0.00  0.00    +0.000 OA
BRANCH  10  12
ATOM     12  O   UNL     1       7.526   4.312  16.486  0.00  0.00    +0.000 OA
BRANCH  12  14
ATOM     13  C   UNL     1       5.837   4.160  14.689  0.00  0.00    +0.000 C 
ATOM     14  C   UNL     1       7.092   4.839  15.217  0.00  0.00    +0.000 C 
ENDBRANCH  12  14
ENDBRANCH  10  12
ENDBRANCH   1  10
TORSDOF 3
ENDMDL
MODEL 4
REMARK VINA RESULT:      -5.6      1.468      1.652
REMARK  Name = 
REMARK  6 active torsions:
REMARK  status: ('A' for Active; 'I' for Inactive)
REMARK    1  A    between atoms: C_1  and  C_2
REMARK    2  A    between atoms: C_2  and  O_3
REMARK    3  A    between atoms: O_3  and  C_4
REMARK    4  A    between atoms: C_4  and  N_6
REMARK    5  A    between atoms: N_10  and  C_11
REMARK    6  A    between atoms: N_10  and  C_12
REMARK                            x       y       z     vdW  Elec       q    Type
REMARK                         _______ _______ _______ _____ _____    ______ ____
ROOT
ATOM      1  N   UNL     1       7.339   5.693  18.546  0.00  0.00    +0.000 NA
ATOM      2  C   UNL     1       6.084   5.371  18.561  0.00  0.00    +0.000 A 
ATOM      3  N   UNL     1       5.700   4.207  19.206  0.00  0.00    +0.000 NA
ATOM      4  C   UNL     1       4.588   3.686  18.760  0.00  0.00    +0.000 A 
ATOM      5  N   UNL     1       3.985   2.533  19.247  0.00  0.00    +0.000 N 
ATOM      6  C   UNL     1       4.534   1.808  20.390  0.00  0.00    +0.000 C 
ATOM      7  C   UNL     1       2.731   1.963  18.758  0.00  0.00    +0.000 C 
ATOM      8  S   UNL     1       3.797   4.544  17.415  0.00  0.00    +0.000 S 
ATOM      9  S   UNL     1       4.755   6.270  17.827  0.00  0.00    +0.000 S 
ENDROOT
BRANCH   1  10
ATOM     10  C   UNL     1       7.711   6.724  17.733  0.00  0.00    +0.000 C 
ATOM     11  O   UNL     1       7.622   6.723  16.514  0.00  0.00    +0.000 OA
BRANCH  10  12
ATOM     12  O   UNL     1       8.267   7.748  18.441  0.00  0.00    +0.000 OA
BRANCH  12  14
ATOM     13  C   UNL     1       8.920  10.128  18.549  0.00  0.00    +0.000 C 
ATOM     14  C   UNL     1       8.101   9.052  17.852  0.00  0.00    +0.000 C 
ENDBRANCH  12  14
ENDBRANCH  10  12
ENDBRANCH   1  10
TORSDOF 3
ENDMDL
MODEL 5
REMARK VINA RESULT:      -5.5      3.274      6.017
REMARK  Name = 
REMARK  6 active torsions:
REMARK  status: ('A' for Active; 'I' for Inactive)
REMARK    1  A    between atoms: C_1  and  C_2
REMARK    2  A    between atoms: C_2  and  O_3
REMARK    3  A    between atoms: O_3  and  C_4
REMARK    4  A    between atoms: C_4  and  N_6
REMARK    5  A    between atoms: N_10  and  C_11
REMARK    6  A    between atoms: N_10  and  C_12
REMARK                            x       y       z     vdW  Elec       q    Type
REMARK                         _______ _______ _______ _____ _____    ______ ____
ROOT
ATOM      1  N   UNL     1       2.588   2.384  17.704  0.00  0.00    +0.000 NA
ATOM      2  C   UNL     1       3.106   3.563  17.571  0.00  0.00    +0.000 A 
ATOM      3  N   UNL     1       4.291   3.698  16.866  0.00  0.00    +0.000 NA
ATOM      4  C   UNL     1       5.001   4.743  17.199  0.00  0.00    +0.000 A 
ATOM      5  N   UNL     1       6.215   5.106  16.631  0.00  0.00    +0.000 N 
ATOM      6  C   UNL     1       6.797   4.355  15.522  0.00  0.00    +0.000 C 
ATOM      7  C   UNL     1       6.999   6.286  16.994  0.00  0.00    +0.000 C 
ATOM      8  S   UNL     1       4.336   5.771  18.492  0.00  0.00    +0.000 S 
ATOM      9  S   UNL     1       2.463   5.077  18.210  0.00  0.00    +0.000 S 
ENDROOT
BRANCH   1  10
ATOM     10  C   UNL     1       1.544   2.254  18.572  0.00  0.00    +0.000 C 
ATOM     11  O   UNL     1       0.366   2.411  18.284  0.00  0.00    +0.000 OA
BRANCH  10  12
ATOM     12  O   UNL     1       1.973   1.991  19.840  0.00  0.00    +0.000 OA
BRANCH  12  14
ATOM     13  C   UNL     1       2.236   3.564  21.727  0.00  0.00    +0.000 C 
ATOM     14  C   UNL     1       1.292   2.729  20.875  0.00  0.00    +0.000 C 
ENDBRANCH  12  14
ENDBRANCH  10  12
ENDBRANCH   1  10
TORSDOF 3
ENDMDL
MODEL 6
REMARK VINA RESULT:      -5.5      3.174      3.702
REMARK  Name = 
REMARK  6 active torsions:
REMARK  status: ('A' for Active; 'I' for Inactive)
REMARK    1  A    between atoms: C_1  and  C_2
REMARK    2  A    between atoms: C_2  and  O_3
REMARK    3  A    between atoms: O_3  and  C_4
REMARK    4  A    between atoms: C_4  and  N_6
REMARK    5  A    between atoms: N_10  and  C_11
REMARK    6  A    between atoms: N_10  and  C_12
REMARK                            x       y       z     vdW  Elec       q    Type
REMARK                         _______ _______ _______ _____ _____    ______ ____
ROOT
ATOM      1  N   UNL     1       6.126   3.909  16.236  0.00  0.00    +0.000 NA
ATOM      2  C   UNL     1       5.448   4.560  17.127  0.00  0.00    +0.000 A 
ATOM      3  N   UNL     1       4.852   3.856  18.161  0.00  0.00    +0.000 NA
ATOM      4  C   UNL     1       3.809   4.445  18.684  0.00  0.00    +0.000 A 
ATOM      5  N   UNL     1       3.050   3.953  19.737  0.00  0.00    +0.000 N 
ATOM      6  C   UNL     1       3.404   2.712  20.421  0.00  0.00    +0.000 C 
ATOM      7  C   UNL     1       1.895   4.623  20.332  0.00  0.00    +0.000 C 
ATOM      8  S   UNL     1       3.343   6.008  17.969  0.00  0.00    +0.000 S 
ATOM      9  S   UNL     1       5.177   6.303  17.183  0.00  0.00    +0.000 S 
ENDROOT
BRANCH   1  10
ATOM     10  C   UNL     1       6.521   4.597  15.126  0.00  0.00    +0.000 C 
ATOM     11  O   UNL     1       7.497   5.330  15.065  0.00  0.00    +0.000 OA
BRANCH  10  12
ATOM     12  O   UNL     1       5.650   4.426  14.091  0.00  0.00    +0.000 OA
BRANCH  12  14
ATOM     13  C   UNL     1       5.088   3.273  11.980  0.00  0.00    +0.000 C 
ATOM     14  C   UNL     1       6.160   3.646  12.992  0.00  0.00    +0.000 C 
ENDBRANCH  12  14
ENDBRANCH  10  12
ENDBRANCH   1  10
TORSDOF 3
ENDMDL
MODEL 7
REMARK VINA RESULT:      -5.5      3.520      4.273
REMARK  Name = 
REMARK  6 active torsions:
REMARK  status: ('A' for Active; 'I' for Inactive)
REMARK    1  A    between atoms: C_1  and  C_2
REMARK    2  A    between atoms: C_2  and  O_3
REMARK    3  A    between atoms: O_3  and  C_4
REMARK    4  A    between atoms: C_4  and  N_6
REMARK    5  A    between atoms: N_10  and  C_11
REMARK    6  A    between atoms: N_10  and  C_12
REMARK                            x       y       z     vdW  Elec       q    Type
REMARK                         _______ _______ _______ _____ _____    ______ ____
ROOT
ATOM      1  N   UNL     1       6.032   5.608  16.062  0.00  0.00    +0.000 NA
ATOM      2  C   UNL     1       5.028   5.474  16.868  0.00  0.00    +0.000 A 
ATOM      3  N   UNL     1       4.206   6.564  17.101  0.00  0.00    +0.000 NA
ATOM      4  C   UNL     1       3.583   6.535  18.248  0.00  0.00    +0.000 A 
ATOM      5  N   UNL     1       2.694   7.499  18.708  0.00  0.00    +0.000 N 
ATOM      6  C   UNL     1       2.317   8.645  17.886  0.00  0.00    +0.000 C 
ATOM      7  C   UNL     1       1.984   7.454  19.985  0.00  0.00    +0.000 C 
ATOM      8  S   UNL     1       3.915   5.132  19.293  0.00  0.00    +0.000 S 
ATOM      9  S   UNL     1       4.566   4.014  17.745  0.00  0.00    +0.000 S 
ENDROOT
BRANCH   1  10
ATOM     10  C   UNL     1       6.937   4.588  16.015  0.00  0.00    +0.000 C 
ATOM     11  O   UNL     1       7.906   4.475  16.752  0.00  0.00    +0.000 OA
BRANCH  10  12
ATOM     12  O   UNL     1       6.675   3.728  14.989  0.00  0.00    +0.000 OA
BRANCH  12  14
ATOM     13  C   UNL     1       5.945   3.451  12.646  0.00  0.00    +0.000 C 
ATOM     14  C   UNL     1       6.606   4.341  13.687  0.00  0.00    +0.000 C 
ENDBRANCH  12  14
ENDBRANCH  10  12
ENDBRANCH   1  10
TORSDOF 3
ENDMDL
MODEL 8
REMARK VINA RESULT:      -5.4      1.993      2.583
REMARK  Name = 
REMARK  6 active torsions:
REMARK  status: ('A' for Active; 'I' for Inactive)
REMARK    1  A    between atoms: C_1  and  C_2
REMARK    2  A    between atoms: C_2  and  O_3
REMARK    3  A    between atoms: O_3  and  C_4
REMARK    4  A    between atoms: C_4  and  N_6
REMARK    5  A    between atoms: N_10  and  C_11
REMARK    6  A    between atoms: N_10  and  C_12
REMARK                            x       y       z     vdW  Elec       q    Type
REMARK                         _______ _______ _______ _____ _____    ______ ____
ROOT
ATOM      1  N   UNL     1       7.089   5.450  17.805  0.00  0.00    +0.000 NA
ATOM      2  C   UNL     1       5.860   5.250  18.163  0.00  0.00    +0.000 A 
ATOM      3  N   UNL     1       5.562   4.142  18.939  0.00  0.00    +0.000 NA
ATOM      4  C   UNL     1       4.331   3.719  18.824  0.00  0.00    +0.000 A 
ATOM      5  N   UNL     1       3.783   2.640  19.505  0.00  0.00    +0.000 N 
ATOM      6  C   UNL     1       4.550   1.892  20.498  0.00  0.00    +0.000 C 
ATOM      7  C   UNL     1       2.400   2.180  19.388  0.00  0.00    +0.000 C 
ATOM      8  S   UNL     1       3.289   4.617  17.694  0.00  0.00    +0.000 S 
ATOM      9  S   UNL     1       4.466   6.253  17.759  0.00  0.00    +0.000 S 
ENDROOT
BRANCH   1  10
ATOM     10  C   UNL     1       7.319   6.422  16.876  0.00  0.00    +0.000 C 
ATOM     11  O   UNL     1       7.493   7.606  17.127  0.00  0.00    +0.000 OA
BRANCH  10  12
ATOM     12  O   UNL     1       7.264   5.928  15.606  0.00  0.00    +0.000 OA
BRANCH  12  14
ATOM     13  C   UNL     1       6.157   4.097  14.372  0.00  0.00    +0.000 C 
ATOM     14  C   UNL     1       7.070   4.503  15.518  0.00  0.00    +0.000 C 
ENDBRANCH  12  14
ENDBRANCH  10  12
ENDBRANCH   1  10
TORSDOF 3
ENDMDL
MODEL 9
REMARK VINA RESULT:      -5.4      2.925      3.435
REMARK  Name = 
REMARK  6 active torsions:
REMARK  status: ('A' for Active; 'I' for Inactive)
REMARK    1  A    between atoms: C_1  and  C_2
REMARK    2  A    between atoms: C_2  and  O_3
REMARK    3  A    between atoms: O_3  and  C_4
REMARK    4  A    between atoms: C_4  and  N_6
REMARK    5  A    between atoms: N_10  and  C_11
REMARK    6  A    between atoms: N_10  and  C_12
REMARK                            x       y       z     vdW  Elec       q    Type
REMARK                         _______ _______ _______ _____ _____    ______ ____
ROOT
ATOM      1  N   UNL     1       4.653   4.390  15.874  0.00  0.00    +0.000 NA
ATOM      2  C   UNL     1       4.392   4.318  17.141  0.00  0.00    +0.000 A 
ATOM      3  N   UNL     1       3.259   3.637  17.553  0.00  0.00    +0.000 NA
ATOM      4  C   UNL     1       2.784   4.027  18.706  0.00  0.00    +0.000 A 
ATOM      5  N   UNL     1       1.670   3.494  19.341  0.00  0.00    +0.000 N 
ATOM      6  C   UNL     1       0.940   2.360  18.781  0.00  0.00    +0.000 C 
ATOM      7  C   UNL     1       1.153   3.921  20.640  0.00  0.00    +0.000 C 
ATOM      8  S   UNL     1       3.656   5.355  19.510  0.00  0.00    +0.000 S 
ATOM      9  S   UNL     1       5.340   5.016  18.455  0.00  0.00    +0.000 S 
ENDROOT
BRANCH   1  10
ATOM     10  C   UNL     1       5.650   5.237  15.488  0.00  0.00    +0.000 C 
ATOM     11  O   UNL     1       5.551   6.453  15.418  0.00  0.00    +0.000 OA
BRANCH  10  12
ATOM     12  O   UNL     1       6.773   4.557  15.115  0.00  0.00    +0.000 OA
BRANCH  12  14
ATOM     13  C   UNL     1       6.273   3.668  12.865  0.00  0.00    +0.000 C 
ATOM     14  C   UNL     1       7.089   4.634  13.712  0.00  0.00    +0.000 C 
ENDBRANCH  12  14
ENDBRANCH  10  12
ENDBRANCH   1  10
TORSDOF 3
ENDMDL
