MODEL 1
REMARK VINA RESULT:      -7.5      0.000      0.000
REMARK  Name = 
REMARK  5 active torsions:
REMARK  status: ('A' for Active; 'I' for Inactive)
REMARK    1  A    between atoms: C_2  and  O_3
REMARK    2  A    between atoms: C_2  and  C_4
REMARK    3  A    between atoms: C_5  and  C_6
REMARK    4  A    between atoms: N_8  and  C_9
REMARK    5  A    between atoms: C_12  and  C_13
REMARK                            x       y       z     vdW  Elec       q    Type
REMARK                         _______ _______ _______ _____ _____    ______ ____
ROOT
ATOM      1  C   UNL     1       3.003   7.193  18.324  0.00  0.00    +0.000 A 
ATOM      2  C   UNL     1       2.602   6.949  19.644  0.00  0.00    +0.000 A 
ATOM      3  C   UNL     1       1.689   7.793  20.298  0.00  0.00    +0.000 A 
ATOM      4  C   UNL     1       1.168   8.907  19.640  0.00  0.00    +0.000 A 
ATOM      5  C   UNL     1       1.584   9.154  18.321  0.00  0.00    +0.000 A 
ATOM      6  C   UNL     1       2.493   8.314  17.672  0.00  0.00    +0.000 A 
ENDROOT
BRANCH   4   7
ATOM      7  C   UNL     1       0.278   9.880  20.280  0.00  0.00    +0.000 A 
ATOM      8  N   UNL     1      -0.524  10.686  19.609  0.00  0.00    +0.000 NA
ATOM      9  C   UNL     1      -1.148  11.468  20.536  0.00  0.00    +0.000 A 
ATOM     10  C   UNL     1      -2.067  12.504  20.337  0.00  0.00    +0.000 A 
ATOM     11  C   UNL     1      -2.567  13.176  21.456  0.00  0.00    +0.000 A 
ATOM     12  C   UNL     1      -2.163  12.814  22.742  0.00  0.00    +0.000 A 
ATOM     13  C   UNL     1      -1.249  11.770  22.960  0.00  0.00    +0.000 A 
ATOM     14  C   UNL     1      -0.757  11.121  21.821  0.00  0.00    +0.000 A 
ATOM     15  N   UNL     1       0.136  10.089  21.634  0.00  0.00    +0.000 N 
ATOM     16  H   UNL     1       0.597   9.569  22.364  0.00  0.00    +0.000 HD
ENDBRANCH   4   7
BRANCH   1  19
ATOM     17  C   UNL     1       3.695   5.042  17.306  0.00  0.00    +0.000 C 
ATOM     18  O   UNL     1       2.690   4.388  17.565  0.00  0.00    +0.000 OA
ATOM     19  N   UNL     1       3.908   6.367  17.612  0.00  0.00    +0.000 N 
ATOM     20  H   UNL     1       4.733   6.820  17.244  0.00  0.00    +0.000 HD
BRANCH  17  22
ATOM     21  C   UNL     1       5.495   5.213  15.726  0.00  0.00    +0.000 C 
ATOM     22  C   UNL     1       4.805   4.405  16.547  0.00  0.00    +0.000 C 
BRANCH  21  24
ATOM     23  O   UNL     1       7.632   5.312  14.687  0.00  0.00    +0.000 OA
ATOM     24  C   UNL     1       6.596   4.706  14.900  0.00  0.00    +0.000 C 
BRANCH  24  25
ATOM     25  O   UNL     1       6.327   3.483  14.403  0.00  0.00    +0.000 OA
ATOM     26  H   UNL     1       6.198   3.434  13.436  0.00  0.00    +0.000 HD
ENDBRANCH  24  25
ENDBRANCH  21  24
ENDBRANCH  17  22
ENDBRANCH   1  19
TORSDOF 5
ENDMDL
MODEL 2
REMARK VINA RESULT:      -7.5      1.821      2.469
REMARK  Name = 
REMARK  5 active torsions:
REMARK  status: ('A' for Active; 'I' for Inactive)
REMARK    1  A    between atoms: C_2  and  O_3
REMARK    2  A    between atoms: C_2  and  C_4
REMARK    3  A    between atoms: C_5  and  C_6
REMARK    4  A    between atoms: N_8  and  C_9
REMARK    5  A    between atoms: C_12  and  C_13
REMARK                            x       y       z     vdW  Elec       q    Type
REMARK                         _______ _______ _______ _____ _____    ______ ____
ROOT
ATOM      1  C   UNL     1       4.084   6.070  17.240  0.00  0.00    +0.000 A 
ATOM      2  C   UNL     1       3.590   5.448  18.395  0.00  0.00    +0.000 A 
ATOM      3  C   UNL     1       2.748   6.129  19.290  0.00  0.00    +0.000 A 
ATOM      4  C   UNL     1       2.393   7.455  19.047  0.00  0.00    +0.000 A 
ATOM      5  C   UNL     1       2.902   8.080  17.895  0.00  0.00    +0.000 A 
ATOM      6  C   UNL     1       3.741   7.401  17.006  0.00  0.00    +0.000 A 
ENDROOT
BRANCH   4   7
ATOM      7  C   UNL     1       1.590   8.259  19.973  0.00  0.00    +0.000 A 
ATOM      8  N   UNL     1       0.957   9.362  19.619  0.00  0.00    +0.000 NA
ATOM      9  C   UNL     1       0.368   9.847  20.751  0.00  0.00    +0.000 A 
ATOM     10  C   UNL     1      -0.389  11.012  20.917  0.00  0.00    +0.000 A 
ATOM     11  C   UNL     1      -0.884  11.309  22.190  0.00  0.00    +0.000 A 
ATOM     12  C   UNL     1      -0.634  10.456  23.267  0.00  0.00    +0.000 A 
ATOM     13  C   UNL     1       0.116   9.279  23.115  0.00  0.00    +0.000 A 
ATOM     14  C   UNL     1       0.608   9.011  21.831  0.00  0.00    +0.000 A 
ATOM     15  N   UNL     1       1.370   7.992  21.306  0.00  0.00    +0.000 N 
ATOM     16  H   UNL     1       1.700   7.183  21.809  0.00  0.00    +0.000 HD
ENDBRANCH   4   7
BRANCH   1  19
ATOM     17  C   UNL     1       6.255   5.705  16.104  0.00  0.00    +0.000 C 
ATOM     18  O   UNL     1       6.927   6.517  16.733  0.00  0.00    +0.000 OA
ATOM     19  N   UNL     1       4.922   5.426  16.297  0.00  0.00    +0.000 N 
ATOM     20  H   UNL     1       4.512   4.655  15.788  0.00  0.00    +0.000 HD
BRANCH  17  22
ATOM     21  C   UNL     1       6.221   4.747  13.903  0.00  0.00    +0.000 C 
ATOM     22  C   UNL     1       6.905   4.881  15.050  0.00  0.00    +0.000 C 
BRANCH  21  24
ATOM     23  O   UNL     1       7.559   4.327  11.982  0.00  0.00    +0.000 OA
ATOM     24  C   UNL     1       6.736   3.938  12.793  0.00  0.00    +0.000 C 
BRANCH  24  25
ATOM     25  O   UNL     1       6.189   2.708  12.775  0.00  0.00    +0.000 OA
ATOM     26  H   UNL     1       6.537   2.075  13.432  0.00  0.00    +0.000 HD
ENDBRANCH  24  25
ENDBRANCH  21  24
ENDBRANCH  17  22
ENDBRANCH   1  19
TORSDOF 5
ENDMDL
MODEL 3
REMARK VINA RESULT:      -7.5      0.618      1.682
REMARK  Name = 
REMARK  5 active torsions:
REMARK  status: ('A' for Active; 'I' for Inactive)
REMARK    1  A    between atoms: C_2  and  O_3
REMARK    2  A    between atoms: C_2  and  C_4
REMARK    3  A    between atoms: C_5  and  C_6
REMARK    4  A    between atoms: N_8  and  C_9
REMARK    5  A    between atoms: C_12  and  C_13
REMARK                            x       y       z     vdW  Elec       q    Type
REMARK                         _______ _______ _______ _____ _____    ______ ____
ROOT
ATOM      1  C   UNL     1       2.813   7.353  18.379  0.00  0.00    +0.000 A 
ATOM      2  C   UNL     1       2.339   8.479  17.693  0.00  0.00    +0.000 A 
ATOM      3  C   UNL     1       1.501   9.418  18.318  0.00  0.00    +0.000 A 
ATOM      4  C   UNL     1       1.114   9.237  19.646  0.00  0.00    +0.000 A 
ATOM      5  C   UNL     1       1.581   8.098  20.325  0.00  0.00    +0.000 A 
ATOM      6  C   UNL     1       2.414   7.165  19.701  0.00  0.00    +0.000 A 
ENDROOT
BRANCH   4   7
ATOM      7  C   UNL     1       0.177  10.123  20.342  0.00  0.00    +0.000 A 
ATOM      8  N   UNL     1       0.026  10.139  21.653  0.00  0.00    +0.000 NA
ATOM      9  C   UNL     1      -0.957  11.048  21.917  0.00  0.00    +0.000 A 
ATOM     10  C   UNL     1      -1.513  11.408  23.149  0.00  0.00    +0.000 A 
ATOM     11  C   UNL     1      -2.530  12.367  23.166  0.00  0.00    +0.000 A 
ATOM     12  C   UNL     1      -2.973  12.955  21.980  0.00  0.00    +0.000 A 
ATOM     13  C   UNL     1      -2.419  12.612  20.736  0.00  0.00    +0.000 A 
ATOM     14  C   UNL     1      -1.409  11.642  20.747  0.00  0.00    +0.000 A 
ATOM     15  N   UNL     1      -0.655  11.053  19.758  0.00  0.00    +0.000 N 
ATOM     16  H   UNL     1      -0.696  11.274  18.775  0.00  0.00    +0.000 HD
ENDBRANCH   4   7
BRANCH   1  19
ATOM     17  C   UNL     1       3.325   5.081  17.533  0.00  0.00    +0.000 C 
ATOM     18  O   UNL     1       2.225   4.569  17.711  0.00  0.00    +0.000 OA
ATOM     19  N   UNL     1       3.672   6.385  17.803  0.00  0.00    +0.000 N 
ATOM     20  H   UNL     1       4.580   6.714  17.505  0.00  0.00    +0.000 HD
BRANCH  17  22
ATOM     21  C   UNL     1       5.515   4.951  16.557  0.00  0.00    +0.000 C 
ATOM     22  C   UNL     1       4.415   4.273  16.923  0.00  0.00    +0.000 C 
BRANCH  21  24
ATOM     23  O   UNL     1       7.818   4.455  16.230  0.00  0.00    +0.000 OA
ATOM     24  C   UNL     1       6.653   4.279  15.920  0.00  0.00    +0.000 C 
BRANCH  24  25
ATOM     25  O   UNL     1       6.255   3.439  14.945  0.00  0.00    +0.000 OA
ATOM     26  H   UNL     1       6.637   3.598  14.061  0.00  0.00    +0.000 HD
ENDBRANCH  24  25
ENDBRANCH  21  24
ENDBRANCH  17  22
ENDBRANCH   1  19
TORSDOF 5
ENDMDL
MODEL 4
REMARK VINA RESULT:      -7.4      1.405      1.861
REMARK  Name = 
REMARK  5 active torsions:
REMARK  status: ('A' for Active; 'I' for Inactive)
REMARK    1  A    between atoms: C_2  and  O_3
REMARK    2  A    between atoms: C_2  and  C_4
REMARK    3  A    between atoms: C_5  and  C_6
REMARK    4  A    between atoms: N_8  and  C_9
REMARK    5  A    between atoms: C_12  and  C_13
REMARK                            x       y       z     vdW  Elec       q    Type
REMARK                         _______ _______ _______ _____ _____    ______ ____
ROOT
ATOM      1  C   UNL     1       3.936   6.269  17.533  0.00  0.00    +0.000 A 
ATOM      2  C   UNL     1       3.590   5.766  18.794  0.00  0.00    +0.000 A 
ATOM      3  C   UNL     1       2.723   6.467  19.648  0.00  0.00    +0.000 A 
ATOM      4  C   UNL     1       2.193   7.696  19.255  0.00  0.00    +0.000 A 
ATOM      5  C   UNL     1       2.554   8.203  17.995  0.00  0.00    +0.000 A 
ATOM      6  C   UNL     1       3.418   7.504  17.146  0.00  0.00    +0.000 A 
ENDROOT
BRANCH   4   7
ATOM      7  C   UNL     1       1.350   8.526  20.120  0.00  0.00    +0.000 A 
ATOM      8  N   UNL     1       0.894   9.714  19.769  0.00  0.00    +0.000 NA
ATOM      9  C   UNL     1       0.199  10.192  20.842  0.00  0.00    +0.000 A 
ATOM     10  C   UNL     1      -0.449  11.423  20.993  0.00  0.00    +0.000 A 
ATOM     11  C   UNL     1      -1.093  11.694  22.203  0.00  0.00    +0.000 A 
ATOM     12  C   UNL     1      -1.093  10.752  23.235  0.00  0.00    +0.000 A 
ATOM     13  C   UNL     1      -0.456   9.509  23.096  0.00  0.00    +0.000 A 
ATOM     14  C   UNL     1       0.189   9.268  21.877  0.00  0.00    +0.000 A 
ATOM     15  N   UNL     1       0.910   8.203  21.384  0.00  0.00    +0.000 N 
ATOM     16  H   UNL     1       1.076   7.332  21.863  0.00  0.00    +0.000 HD
ENDBRANCH   4   7
BRANCH   1  19
ATOM     17  C   UNL     1       4.838   4.234  16.445  0.00  0.00    +0.000 C 
ATOM     18  O   UNL     1       4.130   3.402  17.003  0.00  0.00    +0.000 OA
ATOM     19  N   UNL     1       4.793   5.597  16.627  0.00  0.00    +0.000 N 
ATOM     20  H   UNL     1       5.353   6.183  16.023  0.00  0.00    +0.000 HD
BRANCH  17  22
ATOM     21  C   UNL     1       5.723   4.354  14.216  0.00  0.00    +0.000 C 
ATOM     22  C   UNL     1       5.827   3.786  15.428  0.00  0.00    +0.000 C 
BRANCH  21  24
ATOM     23  O   UNL     1       7.478   4.711  12.652  0.00  0.00    +0.000 OA
ATOM     24  C   UNL     1       6.618   3.982  13.115  0.00  0.00    +0.000 C 
BRANCH  24  25
ATOM     25  O   UNL     1       6.377   2.732  12.675  0.00  0.00    +0.000 OA
ATOM     26  H   UNL     1       5.609   2.629  12.081  0.00  0.00    +0.000 HD
ENDBRANCH  24  25
ENDBRANCH  21  24
ENDBRANCH  17  22
ENDBRANCH   1  19
TORSDOF 5
ENDMDL
MODEL 5
REMARK VINA RESULT:      -7.4      1.699      2.521
REMARK  Name = 
REMARK  5 active torsions:
REMARK  status: ('A' for Active; 'I' for Inactive)
REMARK    1  A    between atoms: C_2  and  O_3
REMARK    2  A    between atoms: C_2  and  C_4
REMARK    3  A    between atoms: C_5  and  C_6
REMARK    4  A    between atoms: N_8  and  C_9
REMARK    5  A    between atoms: C_12  and  C_13
REMARK                            x       y       z     vdW  Elec       q    Type
REMARK                         _______ _______ _______ _____ _____    ______ ____
ROOT
ATOM      1  C   UNL     1       3.940   6.150  17.347  0.00  0.00    +0.000 A 
ATOM      2  C   UNL     1       3.436   5.572  18.520  0.00  0.00    +0.000 A 
ATOM      3  C   UNL     1       2.608   6.296  19.394  0.00  0.00    +0.000 A 
ATOM      4  C   UNL     1       2.278   7.621  19.111  0.00  0.00    +0.000 A 
ATOM      5  C   UNL     1       2.798   8.201  17.941  0.00  0.00    +0.000 A 
ATOM      6  C   UNL     1       3.622   7.479  17.073  0.00  0.00    +0.000 A 
ENDROOT
BRANCH   4   7
ATOM      7  C   UNL     1       1.491   8.468  20.013  0.00  0.00    +0.000 A 
ATOM      8  N   UNL     1       1.251   8.163  21.274  0.00  0.00    +0.000 NA
ATOM      9  C   UNL     1       0.454   9.156  21.766  0.00  0.00    +0.000 A 
ATOM     10  C   UNL     1      -0.107   9.283  23.041  0.00  0.00    +0.000 A 
ATOM     11  C   UNL     1      -0.907  10.397  23.310  0.00  0.00    +0.000 A 
ATOM     12  C   UNL     1      -1.134  11.363  22.328  0.00  0.00    +0.000 A 
ATOM     13  C   UNL     1      -0.571  11.255  21.046  0.00  0.00    +0.000 A 
ATOM     14  C   UNL     1       0.219  10.125  20.801  0.00  0.00    +0.000 A 
ATOM     15  N   UNL     1       0.910   9.676  19.698  0.00  0.00    +0.000 N 
ATOM     16  H   UNL     1       0.986  10.157  18.815  0.00  0.00    +0.000 HD
ENDBRANCH   4   7
BRANCH   1  19
ATOM     17  C   UNL     1       6.139   5.411  16.476  0.00  0.00    +0.000 C 
ATOM     18  O   UNL     1       6.853   5.914  17.337  0.00  0.00    +0.000 OA
ATOM     19  N   UNL     1       4.765   5.462  16.424  0.00  0.00    +0.000 N 
ATOM     20  H   UNL     1       4.289   4.911  15.723  0.00  0.00    +0.000 HD
BRANCH  17  22
ATOM     21  C   UNL     1       6.236   4.784  14.160  0.00  0.00    +0.000 C 
ATOM     22  C   UNL     1       6.763   4.617  15.384  0.00  0.00    +0.000 C 
BRANCH  21  24
ATOM     23  O   UNL     1       7.534   4.486  12.191  0.00  0.00    +0.000 OA
ATOM     24  C   UNL     1       6.739   4.041  13.001  0.00  0.00    +0.000 C 
BRANCH  24  25
ATOM     25  O   UNL     1       6.217   2.801  12.936  0.00  0.00    +0.000 OA
ATOM     26  H   UNL     1       5.984   2.481  12.043  0.00  0.00    +0.000 HD
ENDBRANCH  24  25
ENDBRANCH  21  24
ENDBRANCH  17  22
ENDBRANCH   1  19
TORSDOF 5
ENDMDL
MODEL 6
REMARK VINA RESULT:      -7.4      4.250      9.719
REMARK  Name = 
REMARK  5 active torsions:
REMARK  status: ('A' for Active; 'I' for Inactive)
REMARK    1  A    between atoms: C_2  and  O_3
REMARK    2  A    between atoms: C_2  and  C_4
REMARK    3  A    between atoms: C_5  and  C_6
REMARK    4  A    between atoms: N_8  and  C_9
REMARK    5  A    between atoms: C_12  and  C_13
REMARK                            x       y       z     vdW  Elec       q    Type
REMARK                         _______ _______ _______ _____ _____    ______ ____
ROOT
ATOM      1  C   UNL     1       0.259   9.671  20.460  0.00  0.00    +0.000 A 
ATOM      2  C   UNL     1       0.821   8.563  21.108  0.00  0.00    +0.000 A 
ATOM      3  C   UNL     1       1.721   7.710  20.449  0.00  0.00    +0.000 A 
ATOM      4  C   UNL     1       2.068   7.949  19.119  0.00  0.00    +0.000 A 
ATOM      5  C   UNL     1       1.491   9.054  18.470  0.00  0.00    +0.000 A 
ATOM      6  C   UNL     1       0.595   9.901  19.127  0.00  0.00    +0.000 A 
ENDROOT
BRANCH   4   7
ATOM      7  C   UNL     1       2.933   7.060  18.337  0.00  0.00    +0.000 A 
ATOM      8  N   UNL     1       3.830   7.492  17.472  0.00  0.00    +0.000 NA
ATOM      9  C   UNL     1       4.394   6.382  16.915  0.00  0.00    +0.000 A 
ATOM     10  C   UNL     1       5.372   6.299  15.917  0.00  0.00    +0.000 A 
ATOM     11  C   UNL     1       5.790   5.033  15.496  0.00  0.00    +0.000 A 
ATOM     12  C   UNL     1       5.246   3.880  16.065  0.00  0.00    +0.000 A 
ATOM     13  C   UNL     1       4.271   3.945  17.073  0.00  0.00    +0.000 A 
ATOM     14  C   UNL     1       3.865   5.226  17.469  0.00  0.00    +0.000 A 
ATOM     15  N   UNL     1       2.951   5.683  18.391  0.00  0.00    +0.000 N 
ATOM     16  H   UNL     1       2.398   5.109  19.009  0.00  0.00    +0.000 HD
ENDBRANCH   4   7
BRANCH   1  19
ATOM     17  C   UNL     1      -0.290  11.779  21.641  0.00  0.00    +0.000 C 
ATOM     18  O   UNL     1       0.832  12.275  21.658  0.00  0.00    +0.000 OA
ATOM     19  N   UNL     1      -0.640  10.572  21.081  0.00  0.00    +0.000 N 
ATOM     20  H   UNL     1      -1.620  10.329  21.035  0.00  0.00    +0.000 HD
BRANCH  17  22
ATOM     21  C   UNL     1      -2.141  11.891  23.167  0.00  0.00    +0.000 C 
ATOM     22  C   UNL     1      -1.430  12.534  22.227  0.00  0.00    +0.000 C 
BRANCH  21  24
ATOM     23  O   UNL     1      -4.307  11.906  24.148  0.00  0.00    +0.000 OA
ATOM     24  C   UNL     1      -3.307  12.511  23.805  0.00  0.00    +0.000 C 
BRANCH  24  25
ATOM     25  O   UNL     1      -3.139  13.838  23.970  0.00  0.00    +0.000 OA
ATOM     26  H   UNL     1      -3.957  14.370  24.007  0.00  0.00    +0.000 HD
ENDBRANCH  24  25
ENDBRANCH  21  24
ENDBRANCH  17  22
ENDBRANCH   1  19
TORSDOF 5
ENDMDL
MODEL 7
REMARK VINA RESULT:      -7.4      4.226      9.743
REMARK  Name = 
REMARK  5 active torsions:
REMARK  status: ('A' for Active; 'I' for Inactive)
REMARK    1  A    between atoms: C_2  and  O_3
REMARK    2  A    between atoms: C_2  and  C_4
REMARK    3  A    between atoms: C_5  and  C_6
REMARK    4  A    between atoms: N_8  and  C_9
REMARK    5  A    between atoms: C_12  and  C_13
REMARK                            x       y       z     vdW  Elec       q    Type
REMARK                         _______ _______ _______ _____ _____    ______ ____
ROOT
ATOM      1  C   UNL     1       0.314   9.675  20.432  0.00  0.00    +0.000 A 
ATOM      2  C   UNL     1       0.907   8.578  21.071  0.00  0.00    +0.000 A 
ATOM      3  C   UNL     1       1.792   7.726  20.391  0.00  0.00    +0.000 A 
ATOM      4  C   UNL     1       2.092   7.954  19.048  0.00  0.00    +0.000 A 
ATOM      5  C   UNL     1       1.484   9.047  18.407  0.00  0.00    +0.000 A 
ATOM      6  C   UNL     1       0.602   9.893  19.086  0.00  0.00    +0.000 A 
ENDROOT
BRANCH   4   7
ATOM      7  C   UNL     1       2.938   7.064  18.246  0.00  0.00    +0.000 A 
ATOM      8  N   UNL     1       2.828   5.749  18.258  0.00  0.00    +0.000 NA
ATOM      9  C   UNL     1       3.806   5.274  17.433  0.00  0.00    +0.000 A 
ATOM     10  C   UNL     1       4.134   3.947  17.132  0.00  0.00    +0.000 A 
ATOM     11  C   UNL     1       5.196   3.705  16.257  0.00  0.00    +0.000 A 
ATOM     12  C   UNL     1       5.908   4.766  15.693  0.00  0.00    +0.000 A 
ATOM     13  C   UNL     1       5.586   6.103  15.977  0.00  0.00    +0.000 A 
ATOM     14  C   UNL     1       4.523   6.315  16.864  0.00  0.00    +0.000 A 
ATOM     15  N   UNL     1       3.936   7.449  17.379  0.00  0.00    +0.000 N 
ATOM     16  H   UNL     1       4.186   8.399  17.151  0.00  0.00    +0.000 HD
ENDBRANCH   4   7
BRANCH   1  19
ATOM     17  C   UNL     1      -0.212  11.787  21.616  0.00  0.00    +0.000 C 
ATOM     18  O   UNL     1       0.907  12.289  21.596  0.00  0.00    +0.000 OA
ATOM     19  N   UNL     1      -0.572  10.574  21.074  0.00  0.00    +0.000 N 
ATOM     20  H   UNL     1      -1.552  10.325  21.058  0.00  0.00    +0.000 HD
BRANCH  17  22
ATOM     21  C   UNL     1      -2.103  11.852  23.095  0.00  0.00    +0.000 C 
ATOM     22  C   UNL     1      -1.339  12.539  22.231  0.00  0.00    +0.000 C 
BRANCH  21  24
ATOM     23  O   UNL     1      -4.214  11.846  24.189  0.00  0.00    +0.000 OA
ATOM     24  C   UNL     1      -3.261  12.467  23.751  0.00  0.00    +0.000 C 
BRANCH  24  25
ATOM     25  O   UNL     1      -3.147  13.808  23.813  0.00  0.00    +0.000 OA
ATOM     26  H   UNL     1      -3.396  14.295  23.004  0.00  0.00    +0.000 HD
ENDBRANCH  24  25
ENDBRANCH  21  24
ENDBRANCH  17  22
ENDBRANCH   1  19
TORSDOF 5
ENDMDL
MODEL 8
REMARK VINA RESULT:      -7.4      4.132      9.713
REMARK  Name = 
REMARK  5 active torsions:
REMARK  status: ('A' for Active; 'I' for Inactive)
REMARK    1  A    between atoms: C_2  and  O_3
REMARK    2  A    between atoms: C_2  and  C_4
REMARK    3  A    between atoms: C_5  and  C_6
REMARK    4  A    between atoms: N_8  and  C_9
REMARK    5  A    between atoms: C_12  and  C_13
REMARK                            x       y       z     vdW  Elec       q    Type
REMARK                         _______ _______ _______ _____ _____    ______ ____
ROOT
ATOM      1  C   UNL     1       0.525   9.812  20.037  0.00  0.00    +0.000 A 
ATOM      2  C   UNL     1       0.805   9.978  18.674  0.00  0.00    +0.000 A 
ATOM      3  C   UNL     1       1.609   9.062  17.976  0.00  0.00    +0.000 A 
ATOM      4  C   UNL     1       2.157   7.963  18.637  0.00  0.00    +0.000 A 
ATOM      5  C   UNL     1       1.885   7.809  20.008  0.00  0.00    +0.000 A 
ATOM      6  C   UNL     1       1.085   8.722  20.701  0.00  0.00    +0.000 A 
ENDROOT
BRANCH   4   7
ATOM      7  C   UNL     1       3.072   7.011  18.002  0.00  0.00    +0.000 A 
ATOM      8  N   UNL     1       4.115   7.374  17.279  0.00  0.00    +0.000 NA
ATOM      9  C   UNL     1       4.686   6.223  16.821  0.00  0.00    +0.000 A 
ATOM     10  C   UNL     1       5.795   6.065  15.983  0.00  0.00    +0.000 A 
ATOM     11  C   UNL     1       6.192   4.770  15.639  0.00  0.00    +0.000 A 
ATOM     12  C   UNL     1       5.497   3.660  16.126  0.00  0.00    +0.000 A 
ATOM     13  C   UNL     1       4.388   3.801  16.975  0.00  0.00    +0.000 A 
ATOM     14  C   UNL     1       4.007   5.110  17.296  0.00  0.00    +0.000 A 
ATOM     15  N   UNL     1       2.995   5.637  18.066  0.00  0.00    +0.000 N 
ATOM     16  H   UNL     1       2.321   5.107  18.597  0.00  0.00    +0.000 HD
ENDBRANCH   4   7
BRANCH   1  19
ATOM     17  C   UNL     1       0.148  11.838  21.413  0.00  0.00    +0.000 C 
ATOM     18  O   UNL     1       1.291  12.284  21.394  0.00  0.00    +0.000 OA
ATOM     19  N   UNL     1      -0.292  10.695  20.785  0.00  0.00    +0.000 N 
ATOM     20  H   UNL     1      -1.283  10.497  20.784  0.00  0.00    +0.000 HD
BRANCH  17  22
ATOM     21  C   UNL     1      -1.838  11.844  22.762  0.00  0.00    +0.000 C 
ATOM     22  C   UNL     1      -0.917  12.589  22.130  0.00  0.00    +0.000 C 
BRANCH  21  24
ATOM     23  O   UNL     1      -3.820  11.834  24.075  0.00  0.00    +0.000 OA
ATOM     24  C   UNL     1      -2.957  12.459  23.484  0.00  0.00    +0.000 C 
BRANCH  24  25
ATOM     25  O   UNL     1      -2.916  13.803  23.417  0.00  0.00    +0.000 OA
ATOM     26  H   UNL     1      -2.508  14.179  22.614  0.00  0.00    +0.000 HD
ENDBRANCH  24  25
ENDBRANCH  21  24
ENDBRANCH  17  22
ENDBRANCH   1  19
TORSDOF 5
ENDMDL
MODEL 9
REMARK VINA RESULT:      -7.3      0.478      1.406
REMARK  Name = 
REMARK  5 active torsions:
REMARK  status: ('A' for Active; 'I' for Inactive)
REMARK    1  A    between atoms: C_2  and  O_3
REMARK    2  A    between atoms: C_2  and  C_4
REMARK    3  A    between atoms: C_5  and  C_6
REMARK    4  A    between atoms: N_8  and  C_9
REMARK    5  A    between atoms: C_12  and  C_13
REMARK                            x       y       z     vdW  Elec       q    Type
REMARK                         _______ _______ _______ _____ _____    ______ ____
ROOT
ATOM      1  C   UNL     1       2.876   7.093  18.508  0.00  0.00    +0.000 A 
ATOM      2  C   UNL     1       2.453   6.896  19.829  0.00  0.00    +0.000 A 
ATOM      3  C   UNL     1       1.577   7.796  20.459  0.00  0.00    +0.000 A 
ATOM      4  C   UNL     1       1.117   8.921  19.774  0.00  0.00    +0.000 A 
ATOM      5  C   UNL     1       1.556   9.121  18.454  0.00  0.00    +0.000 A 
ATOM      6  C   UNL     1       2.427   8.225  17.830  0.00  0.00    +0.000 A 
ENDROOT
BRANCH   4   7
ATOM      7  C   UNL     1       0.271   9.949  20.387  0.00  0.00    +0.000 A 
ATOM      8  N   UNL     1       0.096  10.067  21.690  0.00  0.00    +0.000 NA
ATOM      9  C   UNL     1      -0.785  11.094  21.868  0.00  0.00    +0.000 A 
ATOM     10  C   UNL     1      -1.323  11.594  23.059  0.00  0.00    +0.000 A 
ATOM     11  C   UNL     1      -2.225  12.659  22.989  0.00  0.00    +0.000 A 
ATOM     12  C   UNL     1      -2.575  13.213  21.756  0.00  0.00    +0.000 A 
ATOM     13  C   UNL     1      -2.037  12.730  20.552  0.00  0.00    +0.000 A 
ATOM     14  C   UNL     1      -1.142  11.657  20.652  0.00  0.00    +0.000 A 
ATOM     15  N   UNL     1      -0.438  10.925  19.723  0.00  0.00    +0.000 N 
ATOM     16  H   UNL     1      -0.433  11.085  18.727  0.00  0.00    +0.000 HD
ENDBRANCH   4   7
BRANCH   1  19
ATOM     17  C   UNL     1       3.437   4.915  17.468  0.00  0.00    +0.000 C 
ATOM     18  O   UNL     1       2.368   4.343  17.658  0.00  0.00    +0.000 OA
ATOM     19  N   UNL     1       3.744   6.209  17.821  0.00  0.00    +0.000 N 
ATOM     20  H   UNL     1       4.622   6.598  17.507  0.00  0.00    +0.000 HD
BRANCH  17  22
ATOM     21  C   UNL     1       5.537   4.969  16.305  0.00  0.00    +0.000 C 
ATOM     22  C   UNL     1       4.528   4.203  16.750  0.00  0.00    +0.000 C 
BRANCH  21  24
ATOM     23  O   UNL     1       6.560   3.849  14.473  0.00  0.00    +0.000 OA
ATOM     24  C   UNL     1       6.661   4.397  15.557  0.00  0.00    +0.000 C 
BRANCH  24  25
ATOM     25  O   UNL     1       7.828   4.550  16.214  0.00  0.00    +0.000 OA
ATOM     26  H   UNL     1       8.266   5.417  16.111  0.00  0.00    +0.000 HD
ENDBRANCH  24  25
ENDBRANCH  21  24
ENDBRANCH  17  22
ENDBRANCH   1  19
TORSDOF 5
ENDMDL
