MODEL 1
REMARK VINA RESULT:      -7.6      0.000      0.000
REMARK  Name = 
REMARK  9 active torsions:
REMARK  status: ('A' for Active; 'I' for Inactive)
REMARK    1  A    between atoms: C_1  and  C_2
REMARK    2  A    between atoms: C_4  and  C_5
REMARK    3  A    between atoms: N_7  and  C_8
REMARK    4  A    between atoms: C_8  and  C_9
REMARK    5  A    between atoms: C_12  and  C_13
REMARK    6  A    between atoms: C_13  and  C_14
REMARK    7  A    between atoms: C_13  and  C_15
REMARK    8  A    between atoms: C_13  and  C_16
REMARK    9  A    between atoms: N_19  and  C_20
REMARK                            x       y       z     vdW  Elec       q    Type
REMARK                         _______ _______ _______ _____ _____    ______ ____
ROOT
ATOM      1  C   UNL     1       4.973   5.120  18.266  0.00  0.00    +0.000 C 
ATOM      2  O   UNL     1       5.406   4.609  19.294  0.00  0.00    +0.000 OA
ATOM      3  N   UNL     1       3.802   5.838  18.272  0.00  0.00    +0.000 N 
ATOM      4  H   UNL     1       3.436   6.230  17.419  0.00  0.00    +0.000 HD
ENDROOT
BRANCH   1   8
ATOM      5  C   UNL     1       6.439   3.963  13.536  0.00  0.00    +0.000 C 
ATOM      6  C   UNL     1       6.303   4.528  14.902  0.00  0.00    +0.000 A 
ATOM      7  C   UNL     1       5.347   4.213  15.888  0.00  0.00    +0.000 A 
ATOM      8  C   UNL     1       5.636   5.018  16.980  0.00  0.00    +0.000 A 
ATOM      9  N   UNL     1       6.727   5.755  16.580  0.00  0.00    +0.000 N 
ATOM     10  C   UNL     1       7.479   6.765  17.294  0.00  0.00    +0.000 C 
ATOM     11  N   UNL     1       7.146   5.468  15.324  0.00  0.00    +0.000 NA
ENDBRANCH   1   8
BRANCH   3  12
ATOM     12  C   UNL     1       3.037   6.047  19.480  0.00  0.00    +0.000 C 
BRANCH  12  13
ATOM     13  C   UNL     1       2.283   7.351  19.452  0.00  0.00    +0.000 A 
ATOM     14  C   UNL     1       2.185   8.083  18.269  0.00  0.00    +0.000 A 
ATOM     15  C   UNL     1       1.429   9.257  18.220  0.00  0.00    +0.000 A 
ATOM     16  C   UNL     1       0.738   9.750  19.343  0.00  0.00    +0.000 A 
ATOM     17  C   UNL     1       0.858   9.011  20.534  0.00  0.00    +0.000 A 
ATOM     18  C   UNL     1       1.611   7.828  20.585  0.00  0.00    +0.000 A 
BRANCH  16  19
ATOM     19  C   UNL     1      -0.148  11.008  19.263  0.00  0.00    +0.000 C 
ATOM     20  C   UNL     1      -1.340  10.824  18.293  0.00  0.00    +0.000 C 
ATOM     21  C   UNL     1      -0.724  11.335  20.659  0.00  0.00    +0.000 C 
ATOM     22  C   UNL     1       0.651  12.234  18.771  0.00  0.00    +0.000 C 
ENDBRANCH  16  19
ENDBRANCH  12  13
ENDBRANCH   3  12
TORSDOF 4
ENDMDL
MODEL 2
REMARK VINA RESULT:      -7.5      0.342      1.100
REMARK  Name = 
REMARK  9 active torsions:
REMARK  status: ('A' for Active; 'I' for Inactive)
REMARK    1  A    between atoms: C_1  and  C_2
REMARK    2  A    between atoms: C_4  and  C_5
REMARK    3  A    between atoms: N_7  and  C_8
REMARK    4  A    between atoms: C_8  and  C_9
REMARK    5  A    between atoms: C_12  and  C_13
REMARK    6  A    between atoms: C_13  and  C_14
REMARK    7  A    between atoms: C_13  and  C_15
REMARK    8  A    between atoms: C_13  and  C_16
REMARK    9  A    between atoms: N_19  and  C_20
REMARK                            x       y       z     vdW  Elec       q    Type
REMARK                         _______ _______ _______ _____ _____    ______ ____
ROOT
ATOM      1  C   UNL     1       5.110   4.903  18.257  0.00  0.00    +0.000 C 
ATOM      2  O   UNL     1       5.499   4.267  19.232  0.00  0.00    +0.000 OA
ATOM      3  N   UNL     1       3.990   5.694  18.328  0.00  0.00    +0.000 N 
ATOM      4  H   UNL     1       3.660   6.191  17.517  0.00  0.00    +0.000 HD
ENDROOT
BRANCH   1   8
ATOM      5  C   UNL     1       6.647   3.975  13.499  0.00  0.00    +0.000 C 
ATOM      6  C   UNL     1       6.474   4.494  14.879  0.00  0.00    +0.000 A 
ATOM      7  C   UNL     1       5.544   4.088  15.856  0.00  0.00    +0.000 A 
ATOM      8  C   UNL     1       5.778   4.881  16.969  0.00  0.00    +0.000 A 
ATOM      9  N   UNL     1       6.814   5.702  16.589  0.00  0.00    +0.000 N 
ATOM     10  C   UNL     1       7.495   6.743  17.330  0.00  0.00    +0.000 C 
ATOM     11  N   UNL     1       7.250   5.478  15.326  0.00  0.00    +0.000 NA
ENDBRANCH   1   8
BRANCH   3  12
ATOM     12  C   UNL     1       3.230   5.838  19.550  0.00  0.00    +0.000 C 
BRANCH  12  13
ATOM     13  C   UNL     1       2.383   7.083  19.544  0.00  0.00    +0.000 A 
ATOM     14  C   UNL     1       1.715   7.488  20.699  0.00  0.00    +0.000 A 
ATOM     15  C   UNL     1       0.985   8.678  20.719  0.00  0.00    +0.000 A 
ATOM     16  C   UNL     1       0.890   9.517  19.593  0.00  0.00    +0.000 A 
ATOM     17  C   UNL     1       1.555   9.090  18.429  0.00  0.00    +0.000 A 
ATOM     18  C   UNL     1       2.294   7.898  18.408  0.00  0.00    +0.000 A 
BRANCH  16  19
ATOM     19  C   UNL     1       0.140  10.862  19.643  0.00  0.00    +0.000 C 
ATOM     20  C   UNL     1      -1.078  10.888  18.688  0.00  0.00    +0.000 C 
ATOM     21  C   UNL     1      -0.381  11.122  21.074  0.00  0.00    +0.000 C 
ATOM     22  C   UNL     1       1.055  12.037  19.241  0.00  0.00    +0.000 C 
ENDBRANCH  16  19
ENDBRANCH  12  13
ENDBRANCH   3  12
TORSDOF 4
ENDMDL
MODEL 3
REMARK VINA RESULT:      -7.4      0.366      1.459
REMARK  Name = 
REMARK  9 active torsions:
REMARK  status: ('A' for Active; 'I' for Inactive)
REMARK    1  A    between atoms: C_1  and  C_2
REMARK    2  A    between atoms: C_4  and  C_5
REMARK    3  A    between atoms: N_7  and  C_8
REMARK    4  A    between atoms: C_8  and  C_9
REMARK    5  A    between atoms: C_12  and  C_13
REMARK    6  A    between atoms: C_13  and  C_14
REMARK    7  A    between atoms: C_13  and  C_15
REMARK    8  A    between atoms: C_13  and  C_16
REMARK    9  A    between atoms: N_19  and  C_20
REMARK                            x       y       z     vdW  Elec       q    Type
REMARK                         _______ _______ _______ _____ _____    ______ ____
ROOT
ATOM      1  C   UNL     1       5.126   5.435  18.528  0.00  0.00    +0.000 C 
ATOM      2  O   UNL     1       5.712   5.332  19.602  0.00  0.00    +0.000 OA
ATOM      3  N   UNL     1       3.787   5.736  18.478  0.00  0.00    +0.000 N 
ATOM      4  H   UNL     1       3.306   5.790  17.595  0.00  0.00    +0.000 HD
ENDROOT
BRANCH   1   8
ATOM      5  C   UNL     1       6.537   3.973  13.866  0.00  0.00    +0.000 C 
ATOM      6  C   UNL     1       6.415   4.628  15.193  0.00  0.00    +0.000 A 
ATOM      7  C   UNL     1       5.475   4.373  16.211  0.00  0.00    +0.000 A 
ATOM      8  C   UNL     1       5.773   5.252  17.243  0.00  0.00    +0.000 A 
ATOM      9  N   UNL     1       6.852   5.968  16.779  0.00  0.00    +0.000 N 
ATOM     10  C   UNL     1       7.605   7.029  17.413  0.00  0.00    +0.000 C 
ATOM     11  N   UNL     1       7.256   5.601  15.539  0.00  0.00    +0.000 NA
ENDBRANCH   1   8
BRANCH   3  12
ATOM     12  C   UNL     1       3.009   5.970  19.674  0.00  0.00    +0.000 C 
BRANCH  12  13
ATOM     13  C   UNL     1       2.222   7.252  19.593  0.00  0.00    +0.000 A 
ATOM     14  C   UNL     1       1.552   7.740  20.714  0.00  0.00    +0.000 A 
ATOM     15  C   UNL     1       0.878   8.963  20.664  0.00  0.00    +0.000 A 
ATOM     16  C   UNL     1       0.845   9.752  19.499  0.00  0.00    +0.000 A 
ATOM     17  C   UNL     1       1.511   9.241  18.370  0.00  0.00    +0.000 A 
ATOM     18  C   UNL     1       2.194   8.016  18.419  0.00  0.00    +0.000 A 
BRANCH  16  19
ATOM     19  C   UNL     1       0.158  11.130  19.471  0.00  0.00    +0.000 C 
ATOM     20  C   UNL     1       1.127  12.259  19.041  0.00  0.00    +0.000 C 
ATOM     21  C   UNL     1      -1.017  11.113  18.468  0.00  0.00    +0.000 C 
ATOM     22  C   UNL     1      -0.397  11.516  20.859  0.00  0.00    +0.000 C 
ENDBRANCH  16  19
ENDBRANCH  12  13
ENDBRANCH   3  12
TORSDOF 4
ENDMDL
MODEL 4
REMARK VINA RESULT:      -7.4      1.103      1.134
REMARK  Name = 
REMARK  9 active torsions:
REMARK  status: ('A' for Active; 'I' for Inactive)
REMARK    1  A    between atoms: C_1  and  C_2
REMARK    2  A    between atoms: C_4  and  C_5
REMARK    3  A    between atoms: N_7  and  C_8
REMARK    4  A    between atoms: C_8  and  C_9
REMARK    5  A    between atoms: C_12  and  C_13
REMARK    6  A    between atoms: C_13  and  C_14
REMARK    7  A    between atoms: C_13  and  C_15
REMARK    8  A    between atoms: C_13  and  C_16
REMARK    9  A    between atoms: N_19  and  C_20
REMARK                            x       y       z     vdW  Elec       q    Type
REMARK                         _______ _______ _______ _____ _____    ______ ____
ROOT
ATOM      1  C   UNL     1       4.563   4.305  17.218  0.00  0.00    +0.000 C 
ATOM      2  O   UNL     1       4.167   3.217  17.627  0.00  0.00    +0.000 OA
ATOM      3  N   UNL     1       4.031   5.477  17.697  0.00  0.00    +0.000 N 
ATOM      4  H   UNL     1       4.340   6.365  17.336  0.00  0.00    +0.000 HD
ENDROOT
BRANCH   1   8
ATOM      5  C   UNL     1       7.287   4.766  12.949  0.00  0.00    +0.000 C 
ATOM      6  C   UNL     1       6.825   4.658  14.356  0.00  0.00    +0.000 A 
ATOM      7  C   UNL     1       5.512   4.480  14.834  0.00  0.00    +0.000 A 
ATOM      8  C   UNL     1       5.602   4.454  16.218  0.00  0.00    +0.000 A 
ATOM      9  N   UNL     1       6.944   4.621  16.473  0.00  0.00    +0.000 N 
ATOM     10  C   UNL     1       7.649   4.677  17.737  0.00  0.00    +0.000 C 
ATOM     11  N   UNL     1       7.699   4.744  15.356  0.00  0.00    +0.000 NA
ENDBRANCH   1   8
BRANCH   3  12
ATOM     12  C   UNL     1       3.003   5.494  18.713  0.00  0.00    +0.000 C 
BRANCH  12  13
ATOM     13  C   UNL     1       2.459   6.879  18.942  0.00  0.00    +0.000 A 
ATOM     14  C   UNL     1       2.467   7.820  17.913  0.00  0.00    +0.000 A 
ATOM     15  C   UNL     1       1.901   9.084  18.099  0.00  0.00    +0.000 A 
ATOM     16  C   UNL     1       1.303   9.464  19.314  0.00  0.00    +0.000 A 
ATOM     17  C   UNL     1       1.315   8.512  20.350  0.00  0.00    +0.000 A 
ATOM     18  C   UNL     1       1.877   7.240  20.165  0.00  0.00    +0.000 A 
BRANCH  16  19
ATOM     19  C   UNL     1       0.621  10.834  19.490  0.00  0.00    +0.000 C 
ATOM     20  C   UNL     1      -0.818  10.850  18.918  0.00  0.00    +0.000 C 
ATOM     21  C   UNL     1       0.533  11.191  20.991  0.00  0.00    +0.000 C 
ATOM     22  C   UNL     1       1.404  11.953  18.772  0.00  0.00    +0.000 C 
ENDBRANCH  16  19
ENDBRANCH  12  13
ENDBRANCH   3  12
TORSDOF 4
ENDMDL
MODEL 5
REMARK VINA RESULT:      -7.3      3.907      5.350
REMARK  Name = 
REMARK  9 active torsions:
REMARK  status: ('A' for Active; 'I' for Inactive)
REMARK    1  A    between atoms: C_1  and  C_2
REMARK    2  A    between atoms: C_4  and  C_5
REMARK    3  A    between atoms: N_7  and  C_8
REMARK    4  A    between atoms: C_8  and  C_9
REMARK    5  A    between atoms: C_12  and  C_13
REMARK    6  A    between atoms: C_13  and  C_14
REMARK    7  A    between atoms: C_13  and  C_15
REMARK    8  A    between atoms: C_13  and  C_16
REMARK    9  A    between atoms: N_19  and  C_20
REMARK                            x       y       z     vdW  Elec       q    Type
REMARK                         _______ _______ _______ _____ _____    ______ ____
ROOT
ATOM      1  C   UNL     1       6.360   5.140  15.289  0.00  0.00    +0.000 C 
ATOM      2  O   UNL     1       5.852   6.248  15.436  0.00  0.00    +0.000 OA
ATOM      3  N   UNL     1       6.900   4.462  16.354  0.00  0.00    +0.000 N 
ATOM      4  H   UNL     1       7.341   3.567  16.221  0.00  0.00    +0.000 HD
ENDROOT
BRANCH   1   8
ATOM      5  C   UNL     1       5.707   2.133  11.240  0.00  0.00    +0.000 C 
ATOM      6  C   UNL     1       6.173   3.150  12.216  0.00  0.00    +0.000 A 
ATOM      7  C   UNL     1       5.680   3.411  13.510  0.00  0.00    +0.000 A 
ATOM      8  C   UNL     1       6.438   4.459  14.011  0.00  0.00    +0.000 A 
ATOM      9  N   UNL     1       7.319   4.756  12.996  0.00  0.00    +0.000 N 
ATOM     10  C   UNL     1       8.360   5.761  12.933  0.00  0.00    +0.000 C 
ATOM     11  N   UNL     1       7.174   3.970  11.903  0.00  0.00    +0.000 NA
ENDBRANCH   1   8
BRANCH   3  12
ATOM     12  C   UNL     1       6.878   4.999  17.696  0.00  0.00    +0.000 C 
BRANCH  12  13
ATOM     13  C   UNL     1       5.609   4.645  18.425  0.00  0.00    +0.000 A 
ATOM     14  C   UNL     1       4.887   5.626  19.104  0.00  0.00    +0.000 A 
ATOM     15  C   UNL     1       3.674   5.316  19.724  0.00  0.00    +0.000 A 
ATOM     16  C   UNL     1       3.127   4.020  19.692  0.00  0.00    +0.000 A 
ATOM     17  C   UNL     1       3.871   3.036  19.017  0.00  0.00    +0.000 A 
ATOM     18  C   UNL     1       5.087   3.345  18.388  0.00  0.00    +0.000 A 
BRANCH  16  19
ATOM     19  C   UNL     1       1.756   3.702  20.318  0.00  0.00    +0.000 C 
ATOM     20  C   UNL     1       0.923   4.979  20.584  0.00  0.00    +0.000 C 
ATOM     21  C   UNL     1       0.939   2.798  19.368  0.00  0.00    +0.000 C 
ATOM     22  C   UNL     1       1.906   2.971  21.669  0.00  0.00    +0.000 C 
ENDBRANCH  16  19
ENDBRANCH  12  13
ENDBRANCH   3  12
TORSDOF 4
ENDMDL
MODEL 6
REMARK VINA RESULT:      -7.2      1.026      1.414
REMARK  Name = 
REMARK  9 active torsions:
REMARK  status: ('A' for Active; 'I' for Inactive)
REMARK    1  A    between atoms: C_1  and  C_2
REMARK    2  A    between atoms: C_4  and  C_5
REMARK    3  A    between atoms: N_7  and  C_8
REMARK    4  A    between atoms: C_8  and  C_9
REMARK    5  A    between atoms: C_12  and  C_13
REMARK    6  A    between atoms: C_13  and  C_14
REMARK    7  A    between atoms: C_13  and  C_15
REMARK    8  A    between atoms: C_13  and  C_16
REMARK    9  A    between atoms: N_19  and  C_20
REMARK                            x       y       z     vdW  Elec       q    Type
REMARK                         _______ _______ _______ _____ _____    ______ ____
ROOT
ATOM      1  C   UNL     1       4.375   4.706  17.355  0.00  0.00    +0.000 C 
ATOM      2  O   UNL     1       3.509   3.836  17.335  0.00  0.00    +0.000 OA
ATOM      3  N   UNL     1       4.350   5.708  18.294  0.00  0.00    +0.000 N 
ATOM      4  H   UNL     1       5.047   6.435  18.286  0.00  0.00    +0.000 HD
ENDROOT
BRANCH   1   8
ATOM      5  C   UNL     1       7.361   4.933  13.245  0.00  0.00    +0.000 C 
ATOM      6  C   UNL     1       6.814   4.859  14.623  0.00  0.00    +0.000 A 
ATOM      7  C   UNL     1       5.465   4.808  15.027  0.00  0.00    +0.000 A 
ATOM      8  C   UNL     1       5.477   4.760  16.413  0.00  0.00    +0.000 A 
ATOM      9  N   UNL     1       6.812   4.790  16.743  0.00  0.00    +0.000 N 
ATOM     10  C   UNL     1       7.450   4.764  18.043  0.00  0.00    +0.000 C 
ATOM     11  N   UNL     1       7.636   4.848  15.670  0.00  0.00    +0.000 NA
ENDBRANCH   1   8
BRANCH   3  12
ATOM     12  C   UNL     1       3.328   5.777  19.314  0.00  0.00    +0.000 C 
BRANCH  12  13
ATOM     13  C   UNL     1       2.547   7.063  19.243  0.00  0.00    +0.000 A 
ATOM     14  C   UNL     1       2.436   7.756  18.037  0.00  0.00    +0.000 A 
ATOM     15  C   UNL     1       1.657   8.912  17.950  0.00  0.00    +0.000 A 
ATOM     16  C   UNL     1       0.953   9.425  19.055  0.00  0.00    +0.000 A 
ATOM     17  C   UNL     1       1.086   8.727  20.269  0.00  0.00    +0.000 A 
ATOM     18  C   UNL     1       1.863   7.562  20.359  0.00  0.00    +0.000 A 
BRANCH  16  19
ATOM     19  C   UNL     1       0.041  10.661  18.935  0.00  0.00    +0.000 C 
ATOM     20  C   UNL     1       0.829  11.934  18.542  0.00  0.00    +0.000 C 
ATOM     21  C   UNL     1      -1.032  10.420  17.850  0.00  0.00    +0.000 C 
ATOM     22  C   UNL     1      -0.677  10.968  20.266  0.00  0.00    +0.000 C 
ENDBRANCH  16  19
ENDBRANCH  12  13
ENDBRANCH   3  12
TORSDOF 4
ENDMDL
MODEL 7
REMARK VINA RESULT:      -7.2      0.945      1.734
REMARK  Name = 
REMARK  9 active torsions:
REMARK  status: ('A' for Active; 'I' for Inactive)
REMARK    1  A    between atoms: C_1  and  C_2
REMARK    2  A    between atoms: C_4  and  C_5
REMARK    3  A    between atoms: N_7  and  C_8
REMARK    4  A    between atoms: C_8  and  C_9
REMARK    5  A    between atoms: C_12  and  C_13
REMARK    6  A    between atoms: C_13  and  C_14
REMARK    7  A    between atoms: C_13  and  C_15
REMARK    8  A    between atoms: C_13  and  C_16
REMARK    9  A    between atoms: N_19  and  C_20
REMARK                            x       y       z     vdW  Elec       q    Type
REMARK                         _______ _______ _______ _____ _____    ______ ____
ROOT
ATOM      1  C   UNL     1       4.625   4.457  17.325  0.00  0.00    +0.000 C 
ATOM      2  O   UNL     1       4.226   3.353  17.683  0.00  0.00    +0.000 OA
ATOM      3  N   UNL     1       4.149   5.605  17.910  0.00  0.00    +0.000 N 
ATOM      4  H   UNL     1       4.459   6.509  17.592  0.00  0.00    +0.000 HD
ENDROOT
BRANCH   1   8
ATOM      5  C   UNL     1       7.211   4.718  12.954  0.00  0.00    +0.000 C 
ATOM      6  C   UNL     1       6.771   4.777  14.371  0.00  0.00    +0.000 A 
ATOM      7  C   UNL     1       5.533   4.389  14.919  0.00  0.00    +0.000 A 
ATOM      8  C   UNL     1       5.611   4.652  16.279  0.00  0.00    +0.000 A 
ATOM      9  N   UNL     1       6.871   5.177  16.452  0.00  0.00    +0.000 N 
ATOM     10  C   UNL     1       7.527   5.641  17.656  0.00  0.00    +0.000 C 
ATOM     11  N   UNL     1       7.588   5.258  15.306  0.00  0.00    +0.000 NA
ENDBRANCH   1   8
BRANCH   3  12
ATOM     12  C   UNL     1       3.180   5.575  18.982  0.00  0.00    +0.000 C 
BRANCH  12  13
ATOM     13  C   UNL     1       2.442   6.881  19.113  0.00  0.00    +0.000 A 
ATOM     14  C   UNL     1       1.877   7.253  20.333  0.00  0.00    +0.000 A 
ATOM     15  C   UNL     1       1.252   8.494  20.478  0.00  0.00    +0.000 A 
ATOM     16  C   UNL     1       1.164   9.416  19.419  0.00  0.00    +0.000 A 
ATOM     17  C   UNL     1       1.723   9.023  18.189  0.00  0.00    +0.000 A 
ATOM     18  C   UNL     1       2.358   7.780  18.042  0.00  0.00    +0.000 A 
BRANCH  16  19
ATOM     19  C   UNL     1       0.533  10.809  19.606  0.00  0.00    +0.000 C 
ATOM     20  C   UNL     1       0.583  11.282  21.079  0.00  0.00    +0.000 C 
ATOM     21  C   UNL     1       1.293  11.850  18.753  0.00  0.00    +0.000 C 
ATOM     22  C   UNL     1      -0.949  10.822  19.177  0.00  0.00    +0.000 C 
ENDBRANCH  16  19
ENDBRANCH  12  13
ENDBRANCH   3  12
TORSDOF 4
ENDMDL
MODEL 8
REMARK VINA RESULT:      -7.2      1.398      2.153
REMARK  Name = 
REMARK  9 active torsions:
REMARK  status: ('A' for Active; 'I' for Inactive)
REMARK    1  A    between atoms: C_1  and  C_2
REMARK    2  A    between atoms: C_4  and  C_5
REMARK    3  A    between atoms: N_7  and  C_8
REMARK    4  A    between atoms: C_8  and  C_9
REMARK    5  A    between atoms: C_12  and  C_13
REMARK    6  A    between atoms: C_13  and  C_14
REMARK    7  A    between atoms: C_13  and  C_15
REMARK    8  A    between atoms: C_13  and  C_16
REMARK    9  A    between atoms: N_19  and  C_20
REMARK                            x       y       z     vdW  Elec       q    Type
REMARK                         _______ _______ _______ _____ _____    ______ ____
ROOT
ATOM      1  C   UNL     1       5.179   4.177  17.499  0.00  0.00    +0.000 C 
ATOM      2  O   UNL     1       5.691   3.915  18.584  0.00  0.00    +0.000 OA
ATOM      3  N   UNL     1       3.815   4.173  17.341  0.00  0.00    +0.000 N 
ATOM      4  H   UNL     1       3.403   4.359  16.441  0.00  0.00    +0.000 HD
ENDROOT
BRANCH   1   8
ATOM      5  C   UNL     1       7.221   4.448  12.850  0.00  0.00    +0.000 C 
ATOM      6  C   UNL     1       6.860   4.648  14.275  0.00  0.00    +0.000 A 
ATOM      7  C   UNL     1       5.925   3.931  15.050  0.00  0.00    +0.000 A 
ATOM      8  C   UNL     1       5.944   4.506  16.312  0.00  0.00    +0.000 A 
ATOM      9  N   UNL     1       6.871   5.518  16.210  0.00  0.00    +0.000 N 
ATOM     10  C   UNL     1       7.323   6.469  17.205  0.00  0.00    +0.000 C 
ATOM     11  N   UNL     1       7.437   5.616  14.983  0.00  0.00    +0.000 NA
ENDBRANCH   1   8
BRANCH   3  12
ATOM     12  C   UNL     1       2.917   3.886  18.437  0.00  0.00    +0.000 C 
BRANCH  12  13
ATOM     13  C   UNL     1       2.471   5.139  19.143  0.00  0.00    +0.000 A 
ATOM     14  C   UNL     1       2.604   6.383  18.525  0.00  0.00    +0.000 A 
ATOM     15  C   UNL     1       2.129   7.540  19.147  0.00  0.00    +0.000 A 
ATOM     16  C   UNL     1       1.501   7.510  20.405  0.00  0.00    +0.000 A 
ATOM     17  C   UNL     1       1.387   6.252  21.025  0.00  0.00    +0.000 A 
ATOM     18  C   UNL     1       1.857   5.087  20.401  0.00  0.00    +0.000 A 
BRANCH  16  19
ATOM     19  C   UNL     1       0.919   8.781  21.053  0.00  0.00    +0.000 C 
ATOM     20  C   UNL     1      -0.534   8.575  21.544  0.00  0.00    +0.000 C 
ATOM     21  C   UNL     1       1.773   9.188  22.274  0.00  0.00    +0.000 C 
ATOM     22  C   UNL     1       0.898   9.964  20.062  0.00  0.00    +0.000 C 
ENDBRANCH  16  19
ENDBRANCH  12  13
ENDBRANCH   3  12
TORSDOF 4
ENDMDL
MODEL 9
REMARK VINA RESULT:      -7.2      3.804      5.184
REMARK  Name = 
REMARK  9 active torsions:
REMARK  status: ('A' for Active; 'I' for Inactive)
REMARK    1  A    between atoms: C_1  and  C_2
REMARK    2  A    between atoms: C_4  and  C_5
REMARK    3  A    between atoms: N_7  and  C_8
REMARK    4  A    between atoms: C_8  and  C_9
REMARK    5  A    between atoms: C_12  and  C_13
REMARK    6  A    between atoms: C_13  and  C_14
REMARK    7  A    between atoms: C_13  and  C_15
REMARK    8  A    between atoms: C_13  and  C_16
REMARK    9  A    between atoms: N_19  and  C_20
REMARK                            x       y       z     vdW  Elec       q    Type
REMARK                         _______ _______ _______ _____ _____    ______ ____
ROOT
ATOM      1  C   UNL     1       6.171   5.357  15.150  0.00  0.00    +0.000 C 
ATOM      2  O   UNL     1       5.593   6.439  15.192  0.00  0.00    +0.000 OA
ATOM      3  N   UNL     1       6.730   4.809  16.278  0.00  0.00    +0.000 N 
ATOM      4  H   UNL     1       7.228   3.935  16.231  0.00  0.00    +0.000 HD
ENDROOT
BRANCH   1   8
ATOM      5  C   UNL     1       5.708   2.051  11.313  0.00  0.00    +0.000 C 
ATOM      6  C   UNL     1       6.136   3.131  12.237  0.00  0.00    +0.000 A 
ATOM      7  C   UNL     1       5.563   3.507  13.468  0.00  0.00    +0.000 A 
ATOM      8  C   UNL     1       6.316   4.574  13.937  0.00  0.00    +0.000 A 
ATOM      9  N   UNL     1       7.273   4.767  12.968  0.00  0.00    +0.000 N 
ATOM     10  C   UNL     1       8.345   5.738  12.900  0.00  0.00    +0.000 C 
ATOM     11  N   UNL     1       7.180   3.900  11.932  0.00  0.00    +0.000 NA
ENDBRANCH   1   8
BRANCH   3  12
ATOM     12  C   UNL     1       6.648   5.458  17.567  0.00  0.00    +0.000 C 
BRANCH  12  13
ATOM     13  C   UNL     1       5.417   5.044  18.330  0.00  0.00    +0.000 A 
ATOM     14  C   UNL     1       4.312   5.892  18.399  0.00  0.00    +0.000 A 
ATOM     15  C   UNL     1       3.143   5.485  19.047  0.00  0.00    +0.000 A 
ATOM     16  C   UNL     1       3.024   4.219  19.650  0.00  0.00    +0.000 A 
ATOM     17  C   UNL     1       4.151   3.379  19.588  0.00  0.00    +0.000 A 
ATOM     18  C   UNL     1       5.324   3.783  18.932  0.00  0.00    +0.000 A 
BRANCH  16  19
ATOM     19  C   UNL     1       1.709   3.751  20.303  0.00  0.00    +0.000 C 
ATOM     20  C   UNL     1       0.942   2.741  19.416  0.00  0.00    +0.000 C 
ATOM     21  C   UNL     1       2.007   3.059  21.652  0.00  0.00    +0.000 C 
ATOM     22  C   UNL     1       0.755   4.935  20.568  0.00  0.00    +0.000 C 
ENDBRANCH  16  19
ENDBRANCH  12  13
ENDBRANCH   3  12
TORSDOF 4
ENDMDL
