MODEL 1
REMARK VINA RESULT:      -6.3      0.000      0.000
REMARK  Name = 
REMARK  15 active torsions:
REMARK  status: ('A' for Active; 'I' for Inactive)
REMARK    1  A    between atoms: O_1  and  C_2
REMARK    2  A    between atoms: C_2  and  C_3
REMARK    3  A    between atoms: C_3  and  O_4
REMARK    4  A    between atoms: C_3  and  C_5
REMARK    5  A    between atoms: C_5  and  O_6
REMARK    6  A    between atoms: C_5  and  C_7
REMARK    7  A    between atoms: C_7  and  O_8
REMARK    8  A    between atoms: C_7  and  C_9
REMARK    9  A    between atoms: C_9  and  O_10
REMARK   10  A    between atoms: C_9  and  C_11
REMARK   11  A    between atoms: C_11  and  S_12
REMARK   12  A    between atoms: C_14  and  O_15
REMARK   13  A    between atoms: C_16  and  O_17
REMARK   14  A    between atoms: C_18  and  C_19
REMARK   15  A    between atoms: C_19  and  O_20
REMARK                            x       y       z     vdW  Elec       q    Type
REMARK                         _______ _______ _______ _____ _____    ______ ____
ROOT
ATOM      1  C   UNL     1       5.572   5.638  18.365  0.00  0.00    +0.000 C 
ENDROOT
BRANCH   1   2
ATOM      2  O   UNL     1       6.400   5.012  19.357  0.00  0.00    +0.000 OA
ATOM      3  H   UNL     1       7.257   4.799  18.955  0.00  0.00    +0.000 HD
ENDBRANCH   1   2
BRANCH   1   4
ATOM      4  C   UNL     1       6.389   5.749  17.051  0.00  0.00    +0.000 C 
BRANCH   4   5
ATOM      5  O   UNL     1       7.098   7.007  17.038  0.00  0.00    +0.000 OA
ATOM      6  H   UNL     1       6.411   7.709  17.059  0.00  0.00    +0.000 HD
ENDBRANCH   4   5
BRANCH   4   7
ATOM      7  C   UNL     1       5.539   5.657  15.762  0.00  0.00    +0.000 C 
BRANCH   7   8
ATOM      8  O   UNL     1       5.073   6.971  15.434  0.00  0.00    +0.000 OA
ATOM      9  H   UNL     1       4.775   6.948  14.501  0.00  0.00    +0.000 HD
ENDBRANCH   7   8
BRANCH   7  10
ATOM     10  C   UNL     1       6.312   5.070  14.557  0.00  0.00    +0.000 C 
BRANCH  10  11
ATOM     11  O   UNL     1       7.718   5.320  14.679  0.00  0.00    +0.000 OA
ATOM     12  H   UNL     1       8.150   4.450  14.837  0.00  0.00    +0.000 HD
ENDBRANCH  10  11
BRANCH  10  13
ATOM     13  C   UNL     1       6.068   3.575  14.352  0.00  0.00    +0.000 C 
BRANCH  13  14
ATOM     14  O   UNL     1       6.351   3.195  13.012  0.00  0.00    +0.000 OA
ATOM     15  H   UNL     1       5.862   2.375  12.841  0.00  0.00    +0.000 HD
ENDBRANCH  13  14
ENDBRANCH  10  13
ENDBRANCH   7  10
ENDBRANCH   4   7
ENDBRANCH   1   4
BRANCH   1  16
ATOM     16  C   UNL     1       4.251   4.864  18.189  0.00  0.00    +0.000 C 
BRANCH  16  17
ATOM     17  S   UNL     1       3.255   4.859  19.713  0.00  0.00    +0.000 S 
ATOM     18  C   UNL     1       1.680   4.347  18.939  0.00  0.00    +0.000 C 
ATOM     19  C   UNL     1       0.987   3.565  20.040  0.00  0.00    +0.000 C 
ATOM     20  C   UNL     1       2.037   2.593  20.623  0.00  0.00    +0.000 C 
ATOM     21  C   UNL     1       3.465   3.156  20.384  0.00  0.00    +0.000 C 
BRANCH  19  22
ATOM     22  O   UNL     1      -0.158   2.867  19.568  0.00  0.00    +0.000 OA
ATOM     23  H   UNL     1       0.125   2.078  19.073  0.00  0.00    +0.000 HD
ENDBRANCH  19  22
BRANCH  20  24
ATOM     24  O   UNL     1       1.829   2.424  22.035  0.00  0.00    +0.000 OA
ATOM     25  H   UNL     1       1.786   1.468  22.213  0.00  0.00    +0.000 HD
ENDBRANCH  20  24
BRANCH  21  26
ATOM     26  C   UNL     1       4.311   2.189  19.552  0.00  0.00    +0.000 C 
BRANCH  26  27
ATOM     27  O   UNL     1       5.319   1.550  20.334  0.00  0.00    +0.000 OA
ATOM     28  H   UNL     1       5.564   2.140  21.065  0.00  0.00    +0.000 HD
ENDBRANCH  26  27
ENDBRANCH  21  26
ENDBRANCH  16  17
ENDBRANCH   1  16
TORSDOF 15
ENDMDL
MODEL 2
REMARK VINA RESULT:      -6.3      1.447      2.932
REMARK  Name = 
REMARK  15 active torsions:
REMARK  status: ('A' for Active; 'I' for Inactive)
REMARK    1  A    between atoms: O_1  and  C_2
REMARK    2  A    between atoms: C_2  and  C_3
REMARK    3  A    between atoms: C_3  and  O_4
REMARK    4  A    between atoms: C_3  and  C_5
REMARK    5  A    between atoms: C_5  and  O_6
REMARK    6  A    between atoms: C_5  and  C_7
REMARK    7  A    between atoms: C_7  and  O_8
REMARK    8  A    between atoms: C_7  and  C_9
REMARK    9  A    between atoms: C_9  and  O_10
REMARK   10  A    between atoms: C_9  and  C_11
REMARK   11  A    between atoms: C_11  and  S_12
REMARK   12  A    between atoms: C_14  and  O_15
REMARK   13  A    between atoms: C_16  and  O_17
REMARK   14  A    between atoms: C_18  and  C_19
REMARK   15  A    between atoms: C_19  and  O_20
REMARK                            x       y       z     vdW  Elec       q    Type
REMARK                         _______ _______ _______ _____ _____    ______ ____
ROOT
ATOM      1  C   UNL     1       4.490   6.098  16.788  0.00  0.00    +0.000 C 
ENDROOT
BRANCH   1   2
ATOM      2  O   UNL     1       4.424   7.176  17.734  0.00  0.00    +0.000 OA
ATOM      3  H   UNL     1       4.406   8.015  17.247  0.00  0.00    +0.000 HD
ENDBRANCH   1   2
BRANCH   1   4
ATOM      4  C   UNL     1       5.940   6.022  16.242  0.00  0.00    +0.000 C 
BRANCH   4   5
ATOM      5  O   UNL     1       5.907   5.569  14.871  0.00  0.00    +0.000 OA
ATOM      6  H   UNL     1       6.843   5.493  14.584  0.00  0.00    +0.000 HD
ENDBRANCH   4   5
BRANCH   4   7
ATOM      7  C   UNL     1       6.874   5.084  17.041  0.00  0.00    +0.000 C 
BRANCH   7   8
ATOM      8  O   UNL     1       7.836   4.527  16.137  0.00  0.00    +0.000 OA
ATOM      9  H   UNL     1       7.921   3.575  16.354  0.00  0.00    +0.000 HD
ENDBRANCH   7   8
BRANCH   7  10
ATOM     10  C   UNL     1       7.612   5.793  18.201  0.00  0.00    +0.000 C 
BRANCH  10  11
ATOM     11  O   UNL     1       7.627   7.214  18.007  0.00  0.00    +0.000 OA
ATOM     12  H   UNL     1       8.557   7.509  18.135  0.00  0.00    +0.000 HD
ENDBRANCH  10  11
BRANCH  10  13
ATOM     13  C   UNL     1       7.031   5.466  19.577  0.00  0.00    +0.000 C 
BRANCH  13  14
ATOM     14  O   UNL     1       8.053   5.441  20.565  0.00  0.00    +0.000 OA
ATOM     15  H   UNL     1       7.680   5.001  21.346  0.00  0.00    +0.000 HD
ENDBRANCH  13  14
ENDBRANCH  10  13
ENDBRANCH   7  10
ENDBRANCH   4   7
ENDBRANCH   1   4
BRANCH   1  16
ATOM     16  C   UNL     1       4.019   4.779  17.431  0.00  0.00    +0.000 C 
BRANCH  16  17
ATOM     17  S   UNL     1       3.176   5.057  19.020  0.00  0.00    +0.000 S 
ATOM     18  C   UNL     1       1.599   4.248  18.571  0.00  0.00    +0.000 C 
ATOM     19  C   UNL     1       1.099   3.698  19.895  0.00  0.00    +0.000 C 
ATOM     20  C   UNL     1       2.296   2.981  20.558  0.00  0.00    +0.000 C 
ATOM     21  C   UNL     1       3.628   3.585  20.034  0.00  0.00    +0.000 C 
BRANCH  19  22
ATOM     22  O   UNL     1      -0.005   2.817  19.731  0.00  0.00    +0.000 OA
ATOM     23  H   UNL     1       0.321   1.907  19.617  0.00  0.00    +0.000 HD
ENDBRANCH  19  22
BRANCH  20  24
ATOM     24  O   UNL     1       2.241   3.138  21.986  0.00  0.00    +0.000 OA
ATOM     25  H   UNL     1       2.937   3.770  22.239  0.00  0.00    +0.000 HD
ENDBRANCH  20  24
BRANCH  21  26
ATOM     26  C   UNL     1       4.490   2.520  19.352  0.00  0.00    +0.000 C 
BRANCH  26  27
ATOM     27  O   UNL     1       5.213   1.732  20.296  0.00  0.00    +0.000 OA
ATOM     28  H   UNL     1       5.107   2.129  21.176  0.00  0.00    +0.000 HD
ENDBRANCH  26  27
ENDBRANCH  21  26
ENDBRANCH  16  17
ENDBRANCH   1  16
TORSDOF 15
ENDMDL
MODEL 3
REMARK VINA RESULT:      -6.2      1.879      6.656
REMARK  Name = 
REMARK  15 active torsions:
REMARK  status: ('A' for Active; 'I' for Inactive)
REMARK    1  A    between atoms: O_1  and  C_2
REMARK    2  A    between atoms: C_2  and  C_3
REMARK    3  A    between atoms: C_3  and  O_4
REMARK    4  A    between atoms: C_3  and  C_5
REMARK    5  A    between atoms: C_5  and  O_6
REMARK    6  A    between atoms: C_5  and  C_7
REMARK    7  A    between atoms: C_7  and  O_8
REMARK    8  A    between atoms: C_7  and  C_9
REMARK    9  A    between atoms: C_9  and  O_10
REMARK   10  A    between atoms: C_9  and  C_11
REMARK   11  A    between atoms: C_11  and  S_12
REMARK   12  A    between atoms: C_14  and  O_15
REMARK   13  A    between atoms: C_16  and  O_17
REMARK   14  A    between atoms: C_18  and  C_19
REMARK   15  A    between atoms: C_19  and  O_20
REMARK                            x       y       z     vdW  Elec       q    Type
REMARK                         _______ _______ _______ _____ _____    ______ ____
ROOT
ATOM      1  C   UNL     1       2.893   3.995  17.843  0.00  0.00    +0.000 C 
ENDROOT
BRANCH   1   2
ATOM      2  O   UNL     1       1.667   4.207  17.126  0.00  0.00    +0.000 OA
ATOM      3  H   UNL     1       1.096   4.787  17.654  0.00  0.00    +0.000 HD
ENDBRANCH   1   2
BRANCH   1   4
ATOM      4  C   UNL     1       3.024   2.478  18.139  0.00  0.00    +0.000 C 
BRANCH   4   5
ATOM      5  O   UNL     1       2.130   1.747  17.272  0.00  0.00    +0.000 OA
ATOM      6  H   UNL     1       2.670   1.041  16.853  0.00  0.00    +0.000 HD
ENDBRANCH   4   5
BRANCH   4   7
ATOM      7  C   UNL     1       2.712   2.084  19.602  0.00  0.00    +0.000 C 
BRANCH   7   8
ATOM      8  O   UNL     1       3.878   2.334  20.395  0.00  0.00    +0.000 OA
ATOM      9  H   UNL     1       4.654   2.261  19.801  0.00  0.00    +0.000 HD
ENDBRANCH   7   8
BRANCH   7  10
ATOM     10  C   UNL     1       1.509   2.851  20.201  0.00  0.00    +0.000 C 
BRANCH  10  11
ATOM     11  O   UNL     1       0.296   2.523  19.511  0.00  0.00    +0.000 OA
ATOM     12  H   UNL     1       0.454   1.669  19.048  0.00  0.00    +0.000 HD
ENDBRANCH  10  11
BRANCH  10  13
ATOM     13  C   UNL     1       1.330   2.618  21.702  0.00  0.00    +0.000 C 
BRANCH  13  14
ATOM     14  O   UNL     1       2.334   3.299  22.443  0.00  0.00    +0.000 OA
ATOM     15  H   UNL     1       3.007   2.641  22.677  0.00  0.00    +0.000 HD
ENDBRANCH  13  14
ENDBRANCH  10  13
ENDBRANCH   7  10
ENDBRANCH   4   7
ENDBRANCH   1   4
BRANCH   1  16
ATOM     16  C   UNL     1       4.090   4.561  17.055  0.00  0.00    +0.000 C 
BRANCH  16  17
ATOM     17  S   UNL     1       4.830   6.005  17.882  0.00  0.00    +0.000 S 
ATOM     18  C   UNL     1       5.726   5.075  19.177  0.00  0.00    +0.000 C 
ATOM     19  C   UNL     1       6.944   5.940  19.447  0.00  0.00    +0.000 C 
ATOM     20  C   UNL     1       7.534   6.319  18.071  0.00  0.00    +0.000 C 
ATOM     21  C   UNL     1       6.420   6.270  16.989  0.00  0.00    +0.000 C 
BRANCH  19  22
ATOM     22  O   UNL     1       7.907   5.277  20.257  0.00  0.00    +0.000 OA
ATOM     23  H   UNL     1       7.961   4.342  19.995  0.00  0.00    +0.000 HD
ENDBRANCH  19  22
BRANCH  20  24
ATOM     24  O   UNL     1       8.087   7.645  18.115  0.00  0.00    +0.000 OA
ATOM     25  H   UNL     1       9.008   7.590  17.805  0.00  0.00    +0.000 HD
ENDBRANCH  20  24
BRANCH  21  26
ATOM     26  C   UNL     1       6.764   5.268  15.884  0.00  0.00    +0.000 C 
BRANCH  26  27
ATOM     27  O   UNL     1       7.831   4.399  16.262  0.00  0.00    +0.000 OA
ATOM     28  H   UNL     1       8.537   4.470  15.598  0.00  0.00    +0.000 HD
ENDBRANCH  26  27
ENDBRANCH  21  26
ENDBRANCH  16  17
ENDBRANCH   1  16
TORSDOF 15
ENDMDL
MODEL 4
REMARK VINA RESULT:      -6.2      1.084      1.516
REMARK  Name = 
REMARK  15 active torsions:
REMARK  status: ('A' for Active; 'I' for Inactive)
REMARK    1  A    between atoms: O_1  and  C_2
REMARK    2  A    between atoms: C_2  and  C_3
REMARK    3  A    between atoms: C_3  and  O_4
REMARK    4  A    between atoms: C_3  and  C_5
REMARK    5  A    between atoms: C_5  and  O_6
REMARK    6  A    between atoms: C_5  and  C_7
REMARK    7  A    between atoms: C_7  and  O_8
REMARK    8  A    between atoms: C_7  and  C_9
REMARK    9  A    between atoms: C_9  and  O_10
REMARK   10  A    between atoms: C_9  and  C_11
REMARK   11  A    between atoms: C_11  and  S_12
REMARK   12  A    between atoms: C_14  and  O_15
REMARK   13  A    between atoms: C_16  and  O_17
REMARK   14  A    between atoms: C_18  and  C_19
REMARK   15  A    between atoms: C_19  and  O_20
REMARK                            x       y       z     vdW  Elec       q    Type
REMARK                         _______ _______ _______ _____ _____    ______ ____
ROOT
ATOM      1  C   UNL     1       5.990   4.929  17.761  0.00  0.00    +0.000 C 
ENDROOT
BRANCH   1   2
ATOM      2  O   UNL     1       6.819   4.493  18.849  0.00  0.00    +0.000 OA
ATOM      3  H   UNL     1       7.042   5.262  19.395  0.00  0.00    +0.000 HD
ENDBRANCH   1   2
BRANCH   1   4
ATOM      4  C   UNL     1       6.871   5.021  16.487  0.00  0.00    +0.000 C 
BRANCH   4   5
ATOM      5  O   UNL     1       7.557   6.291  16.476  0.00  0.00    +0.000 OA
ATOM      6  H   UNL     1       7.995   6.359  15.599  0.00  0.00    +0.000 HD
ENDBRANCH   4   5
BRANCH   4   7
ATOM      7  C   UNL     1       6.090   4.878  15.159  0.00  0.00    +0.000 C 
BRANCH   7   8
ATOM      8  O   UNL     1       5.706   6.186  14.719  0.00  0.00    +0.000 OA
ATOM      9  H   UNL     1       5.366   6.667  15.502  0.00  0.00    +0.000 HD
ENDBRANCH   7   8
BRANCH   7  10
ATOM     10  C   UNL     1       6.900   4.178  14.042  0.00  0.00    +0.000 C 
BRANCH  10  11
ATOM     11  O   UNL     1       6.102   3.192  13.373  0.00  0.00    +0.000 OA
ATOM     12  H   UNL     1       6.355   2.318  13.747  0.00  0.00    +0.000 HD
ENDBRANCH  10  11
BRANCH  10  13
ATOM     13  C   UNL     1       7.485   5.151  13.019  0.00  0.00    +0.000 C 
BRANCH  13  14
ATOM     14  O   UNL     1       8.570   5.881  13.577  0.00  0.00    +0.000 OA
ATOM     15  H   UNL     1       8.237   6.769  13.781  0.00  0.00    +0.000 HD
ENDBRANCH  13  14
ENDBRANCH  10  13
ENDBRANCH   7  10
ENDBRANCH   4   7
ENDBRANCH   1   4
BRANCH   1  16
ATOM     16  C   UNL     1       4.778   3.992  17.588  0.00  0.00    +0.000 C 
BRANCH  16  17
ATOM     17  S   UNL     1       3.397   4.454  18.679  0.00  0.00    +0.000 S 
ATOM     18  C   UNL     1       2.108   3.486  17.816  0.00  0.00    +0.000 C 
ATOM     19  C   UNL     1       1.146   3.114  18.931  0.00  0.00    +0.000 C 
ATOM     20  C   UNL     1       2.005   2.586  20.101  0.00  0.00    +0.000 C 
ATOM     21  C   UNL     1       3.435   3.188  20.018  0.00  0.00    +0.000 C 
BRANCH  19  22
ATOM     22  O   UNL     1       0.188   2.149  18.516  0.00  0.00    +0.000 OA
ATOM     23  H   UNL     1       0.197   2.080  17.546  0.00  0.00    +0.000 HD
ENDBRANCH  19  22
BRANCH  20  24
ATOM     24  O   UNL     1       1.414   2.956  21.358  0.00  0.00    +0.000 OA
ATOM     25  H   UNL     1       1.344   2.149  21.898  0.00  0.00    +0.000 HD
ENDBRANCH  20  24
BRANCH  21  26
ATOM     26  C   UNL     1       4.493   2.088  19.893  0.00  0.00    +0.000 C 
BRANCH  26  27
ATOM     27  O   UNL     1       5.066   1.750  21.155  0.00  0.00    +0.000 OA
ATOM     28  H   UNL     1       4.468   1.134  21.611  0.00  0.00    +0.000 HD
ENDBRANCH  26  27
ENDBRANCH  21  26
ENDBRANCH  16  17
ENDBRANCH   1  16
TORSDOF 15
ENDMDL
MODEL 5
REMARK VINA RESULT:      -6.1      1.268      1.970
REMARK  Name = 
REMARK  15 active torsions:
REMARK  status: ('A' for Active; 'I' for Inactive)
REMARK    1  A    between atoms: O_1  and  C_2
REMARK    2  A    between atoms: C_2  and  C_3
REMARK    3  A    between atoms: C_3  and  O_4
REMARK    4  A    between atoms: C_3  and  C_5
REMARK    5  A    between atoms: C_5  and  O_6
REMARK    6  A    between atoms: C_5  and  C_7
REMARK    7  A    between atoms: C_7  and  O_8
REMARK    8  A    between atoms: C_7  and  C_9
REMARK    9  A    between atoms: C_9  and  O_10
REMARK   10  A    between atoms: C_9  and  C_11
REMARK   11  A    between atoms: C_11  and  S_12
REMARK   12  A    between atoms: C_14  and  O_15
REMARK   13  A    between atoms: C_16  and  O_17
REMARK   14  A    between atoms: C_18  and  C_19
REMARK   15  A    between atoms: C_19  and  O_20
REMARK                            x       y       z     vdW  Elec       q    Type
REMARK                         _______ _______ _______ _____ _____    ______ ____
ROOT
ATOM      1  C   UNL     1       5.791   5.356  17.429  0.00  0.00    +0.000 C 
ENDROOT
BRANCH   1   2
ATOM      2  O   UNL     1       6.630   6.519  17.490  0.00  0.00    +0.000 OA
ATOM      3  H   UNL     1       6.073   7.294  17.664  0.00  0.00    +0.000 HD
ENDBRANCH   1   2
BRANCH   1   4
ATOM      4  C   UNL     1       6.382   4.388  16.370  0.00  0.00    +0.000 C 
BRANCH   4   5
ATOM      5  O   UNL     1       7.822   4.495  16.381  0.00  0.00    +0.000 OA
ATOM      6  H   UNL     1       8.165   3.575  16.420  0.00  0.00    +0.000 HD
ENDBRANCH   4   5
BRANCH   4   7
ATOM      7  C   UNL     1       5.887   4.643  14.926  0.00  0.00    +0.000 C 
BRANCH   7   8
ATOM      8  O   UNL     1       5.751   6.057  14.739  0.00  0.00    +0.000 OA
ATOM      9  H   UNL     1       5.631   6.212  13.779  0.00  0.00    +0.000 HD
ENDBRANCH   7   8
BRANCH   7  10
ATOM     10  C   UNL     1       6.831   4.070  13.843  0.00  0.00    +0.000 C 
BRANCH  10  11
ATOM     11  O   UNL     1       6.142   3.133  13.006  0.00  0.00    +0.000 OA
ATOM     12  H   UNL     1       6.175   3.490  12.090  0.00  0.00    +0.000 HD
ENDBRANCH  10  11
BRANCH  10  13
ATOM     13  C   UNL     1       7.487   5.149  12.980  0.00  0.00    +0.000 C 
BRANCH  13  14
ATOM     14  O   UNL     1       8.508   5.825  13.703  0.00  0.00    +0.000 OA
ATOM     15  H   UNL     1       8.935   6.436  13.083  0.00  0.00    +0.000 HD
ENDBRANCH  13  14
ENDBRANCH  10  13
ENDBRANCH   7  10
ENDBRANCH   4   7
ENDBRANCH   1   4
BRANCH   1  16
ATOM     16  C   UNL     1       5.648   4.711  18.821  0.00  0.00    +0.000 C 
BRANCH  16  17
ATOM     17  S   UNL     1       3.989   4.967  19.525  0.00  0.00    +0.000 S 
ATOM     18  C   UNL     1       3.086   5.012  17.935  0.00  0.00    +0.000 C 
ATOM     19  C   UNL     1       1.721   4.451  18.293  0.00  0.00    +0.000 C 
ATOM     20  C   UNL     1       1.970   3.174  19.126  0.00  0.00    +0.000 C 
ATOM     21  C   UNL     1       3.357   3.261  19.822  0.00  0.00    +0.000 C 
BRANCH  19  22
ATOM     22  O   UNL     1       0.934   4.173  17.142  0.00  0.00    +0.000 OA
ATOM     23  H   UNL     1       0.043   4.543  17.262  0.00  0.00    +0.000 HD
ENDBRANCH  19  22
BRANCH  20  24
ATOM     24  O   UNL     1       0.951   3.028  20.129  0.00  0.00    +0.000 OA
ATOM     25  H   UNL     1       0.215   3.618  19.888  0.00  0.00    +0.000 HD
ENDBRANCH  20  24
BRANCH  21  26
ATOM     26  C   UNL     1       4.265   2.107  19.392  0.00  0.00    +0.000 C 
BRANCH  26  27
ATOM     27  O   UNL     1       5.176   1.730  20.424  0.00  0.00    +0.000 OA
ATOM     28  H   UNL     1       5.778   1.053  20.072  0.00  0.00    +0.000 HD
ENDBRANCH  26  27
ENDBRANCH  21  26
ENDBRANCH  16  17
ENDBRANCH   1  16
TORSDOF 15
ENDMDL
MODEL 6
REMARK VINA RESULT:      -6.1      1.424      1.794
REMARK  Name = 
REMARK  15 active torsions:
REMARK  status: ('A' for Active; 'I' for Inactive)
REMARK    1  A    between atoms: O_1  and  C_2
REMARK    2  A    between atoms: C_2  and  C_3
REMARK    3  A    between atoms: C_3  and  O_4
REMARK    4  A    between atoms: C_3  and  C_5
REMARK    5  A    between atoms: C_5  and  O_6
REMARK    6  A    between atoms: C_5  and  C_7
REMARK    7  A    between atoms: C_7  and  O_8
REMARK    8  A    between atoms: C_7  and  C_9
REMARK    9  A    between atoms: C_9  and  O_10
REMARK   10  A    between atoms: C_9  and  C_11
REMARK   11  A    between atoms: C_11  and  S_12
REMARK   12  A    between atoms: C_14  and  O_15
REMARK   13  A    between atoms: C_16  and  O_17
REMARK   14  A    between atoms: C_18  and  C_19
REMARK   15  A    between atoms: C_19  and  O_20
REMARK                            x       y       z     vdW  Elec       q    Type
REMARK                         _______ _______ _______ _____ _____    ______ ____
ROOT
ATOM      1  C   UNL     1       5.613   5.758  17.588  0.00  0.00    +0.000 C 
ENDROOT
BRANCH   1   2
ATOM      2  O   UNL     1       5.525   7.186  17.465  0.00  0.00    +0.000 OA
ATOM      3  H   UNL     1       4.853   7.398  16.799  0.00  0.00    +0.000 HD
ENDBRANCH   1   2
BRANCH   1   4
ATOM      4  C   UNL     1       6.944   5.298  16.936  0.00  0.00    +0.000 C 
BRANCH   4   5
ATOM      5  O   UNL     1       7.617   6.444  16.372  0.00  0.00    +0.000 OA
ATOM      6  H   UNL     1       7.664   6.286  15.404  0.00  0.00    +0.000 HD
ENDBRANCH   4   5
BRANCH   4   7
ATOM      7  C   UNL     1       6.774   4.237  15.823  0.00  0.00    +0.000 C 
BRANCH   7   8
ATOM      8  O   UNL     1       5.785   3.292  16.247  0.00  0.00    +0.000 OA
ATOM      9  H   UNL     1       6.257   2.561  16.698  0.00  0.00    +0.000 HD
ENDBRANCH   7   8
BRANCH   7  10
ATOM     10  C   UNL     1       6.358   4.839  14.459  0.00  0.00    +0.000 C 
BRANCH  10  11
ATOM     11  O   UNL     1       7.497   5.356  13.758  0.00  0.00    +0.000 OA
ATOM     12  H   UNL     1       7.737   4.691  13.074  0.00  0.00    +0.000 HD
ENDBRANCH  10  11
BRANCH  10  13
ATOM     13  C   UNL     1       5.606   3.851  13.567  0.00  0.00    +0.000 C 
BRANCH  13  14
ATOM     14  O   UNL     1       6.513   3.084  12.784  0.00  0.00    +0.000 OA
ATOM     15  H   UNL     1       6.571   2.209  13.197  0.00  0.00    +0.000 HD
ENDBRANCH  13  14
ENDBRANCH  10  13
ENDBRANCH   7  10
ENDBRANCH   4   7
ENDBRANCH   1   4
BRANCH   1  16
ATOM     16  C   UNL     1       5.485   5.328  19.062  0.00  0.00    +0.000 C 
BRANCH  16  17
ATOM     17  S   UNL     1       3.760   5.386  19.642  0.00  0.00    +0.000 S 
ATOM     18  C   UNL     1       2.975   5.252  17.996  0.00  0.00    +0.000 C 
ATOM     19  C   UNL     1       1.673   4.528  18.288  0.00  0.00    +0.000 C 
ATOM     20  C   UNL     1       2.027   3.326  19.192  0.00  0.00    +0.000 C 
ATOM     21  C   UNL     1       3.337   3.623  19.974  0.00  0.00    +0.000 C 
BRANCH  19  22
ATOM     22  O   UNL     1       1.014   4.105  17.101  0.00  0.00    +0.000 OA
ATOM     23  H   UNL     1       0.430   4.816  16.784  0.00  0.00    +0.000 HD
ENDBRANCH  19  22
BRANCH  20  24
ATOM     24  O   UNL     1       0.966   3.082  20.132  0.00  0.00    +0.000 OA
ATOM     25  H   UNL     1       0.794   3.916  20.604  0.00  0.00    +0.000 HD
ENDBRANCH  20  24
BRANCH  21  26
ATOM     26  C   UNL     1       4.417   2.586  19.659  0.00  0.00    +0.000 C 
BRANCH  26  27
ATOM     27  O   UNL     1       4.171   1.914  18.425  0.00  0.00    +0.000 OA
ATOM     28  H   UNL     1       3.217   1.938  18.245  0.00  0.00    +0.000 HD
ENDBRANCH  26  27
ENDBRANCH  21  26
ENDBRANCH  16  17
ENDBRANCH   1  16
TORSDOF 15
ENDMDL
MODEL 7
REMARK VINA RESULT:      -6.1      1.396      2.830
REMARK  Name = 
REMARK  15 active torsions:
REMARK  status: ('A' for Active; 'I' for Inactive)
REMARK    1  A    between atoms: O_1  and  C_2
REMARK    2  A    between atoms: C_2  and  C_3
REMARK    3  A    between atoms: C_3  and  O_4
REMARK    4  A    between atoms: C_3  and  C_5
REMARK    5  A    between atoms: C_5  and  O_6
REMARK    6  A    between atoms: C_5  and  C_7
REMARK    7  A    between atoms: C_7  and  O_8
REMARK    8  A    between atoms: C_7  and  C_9
REMARK    9  A    between atoms: C_9  and  O_10
REMARK   10  A    between atoms: C_9  and  C_11
REMARK   11  A    between atoms: C_11  and  S_12
REMARK   12  A    between atoms: C_14  and  O_15
REMARK   13  A    between atoms: C_16  and  O_17
REMARK   14  A    between atoms: C_18  and  C_19
REMARK   15  A    between atoms: C_19  and  O_20
REMARK                            x       y       z     vdW  Elec       q    Type
REMARK                         _______ _______ _______ _____ _____    ______ ____
ROOT
ATOM      1  C   UNL     1       4.573   5.414  16.507  0.00  0.00    +0.000 C 
ENDROOT
BRANCH   1   2
ATOM      2  O   UNL     1       4.754   6.511  17.415  0.00  0.00    +0.000 OA
ATOM      3  H   UNL     1       5.249   6.195  18.187  0.00  0.00    +0.000 HD
ENDBRANCH   1   2
BRANCH   1   4
ATOM      4  C   UNL     1       5.951   5.075  15.878  0.00  0.00    +0.000 C 
BRANCH   4   5
ATOM      5  O   UNL     1       6.114   3.641  15.839  0.00  0.00    +0.000 OA
ATOM      6  H   UNL     1       5.220   3.266  15.679  0.00  0.00    +0.000 HD
ENDBRANCH   4   5
BRANCH   4   7
ATOM      7  C   UNL     1       7.160   5.682  16.626  0.00  0.00    +0.000 C 
BRANCH   7   8
ATOM      8  O   UNL     1       6.920   7.082  16.812  0.00  0.00    +0.000 OA
ATOM      9  H   UNL     1       7.002   7.509  15.934  0.00  0.00    +0.000 HD
ENDBRANCH   7   8
BRANCH   7  10
ATOM     10  C   UNL     1       7.429   5.021  17.999  0.00  0.00    +0.000 C 
BRANCH  10  11
ATOM     11  O   UNL     1       8.439   4.009  17.892  0.00  0.00    +0.000 OA
ATOM     12  H   UNL     1       9.252   4.372  18.310  0.00  0.00    +0.000 HD
ENDBRANCH  10  11
BRANCH  10  13
ATOM     13  C   UNL     1       7.813   6.022  19.088  0.00  0.00    +0.000 C 
BRANCH  13  14
ATOM     14  O   UNL     1       7.990   5.369  20.338  0.00  0.00    +0.000 OA
ATOM     15  H   UNL     1       7.626   4.475  20.243  0.00  0.00    +0.000 HD
ENDBRANCH  13  14
ENDBRANCH  10  13
ENDBRANCH   7  10
ENDBRANCH   4   7
ENDBRANCH   1   4
BRANCH   1  16
ATOM     16  C   UNL     1       3.927   4.212  17.224  0.00  0.00    +0.000 C 
BRANCH  16  17
ATOM     17  S   UNL     1       3.100   4.704  18.769  0.00  0.00    +0.000 S 
ATOM     18  C   UNL     1       1.524   3.831  18.456  0.00  0.00    +0.000 C 
ATOM     19  C   UNL     1       1.042   3.468  19.849  0.00  0.00    +0.000 C 
ATOM     20  C   UNL     1       2.252   2.858  20.591  0.00  0.00    +0.000 C 
ATOM     21  C   UNL     1       3.574   3.391  19.972  0.00  0.00    +0.000 C 
BRANCH  19  22
ATOM     22  O   UNL     1      -0.057   2.566  19.822  0.00  0.00    +0.000 OA
ATOM     23  H   UNL     1       0.251   1.690  19.532  0.00  0.00    +0.000 HD
ENDBRANCH  19  22
BRANCH  20  24
ATOM     24  O   UNL     1       2.211   3.212  21.984  0.00  0.00    +0.000 OA
ATOM     25  H   UNL     1       2.900   3.882  22.137  0.00  0.00    +0.000 HD
ENDBRANCH  20  24
BRANCH  21  26
ATOM     26  C   UNL     1       4.436   2.245  19.435  0.00  0.00    +0.000 C 
BRANCH  26  27
ATOM     27  O   UNL     1       5.235   1.652  20.457  0.00  0.00    +0.000 OA
ATOM     28  H   UNL     1       5.944   1.139  20.036  0.00  0.00    +0.000 HD
ENDBRANCH  26  27
ENDBRANCH  21  26
ENDBRANCH  16  17
ENDBRANCH   1  16
TORSDOF 15
ENDMDL
MODEL 8
REMARK VINA RESULT:      -6.1      1.561      2.262
REMARK  Name = 
REMARK  15 active torsions:
REMARK  status: ('A' for Active; 'I' for Inactive)
REMARK    1  A    between atoms: O_1  and  C_2
REMARK    2  A    between atoms: C_2  and  C_3
REMARK    3  A    between atoms: C_3  and  O_4
REMARK    4  A    between atoms: C_3  and  C_5
REMARK    5  A    between atoms: C_5  and  O_6
REMARK    6  A    between atoms: C_5  and  C_7
REMARK    7  A    between atoms: C_7  and  O_8
REMARK    8  A    between atoms: C_7  and  C_9
REMARK    9  A    between atoms: C_9  and  O_10
REMARK   10  A    between atoms: C_9  and  C_11
REMARK   11  A    between atoms: C_11  and  S_12
REMARK   12  A    between atoms: C_14  and  O_15
REMARK   13  A    between atoms: C_16  and  O_17
REMARK   14  A    between atoms: C_18  and  C_19
REMARK   15  A    between atoms: C_19  and  O_20
REMARK                            x       y       z     vdW  Elec       q    Type
REMARK                         _______ _______ _______ _____ _____    ______ ____
ROOT
ATOM      1  C   UNL     1       6.163   5.603  18.964  0.00  0.00    +0.000 C 
ENDROOT
BRANCH   1   2
ATOM      2  O   UNL     1       7.011   4.992  19.948  0.00  0.00    +0.000 OA
ATOM      3  H   UNL     1       6.913   5.475  20.784  0.00  0.00    +0.000 HD
ENDBRANCH   1   2
BRANCH   1   4
ATOM      4  C   UNL     1       6.553   5.038  17.572  0.00  0.00    +0.000 C 
BRANCH   4   5
ATOM      5  O   UNL     1       7.902   4.526  17.629  0.00  0.00    +0.000 OA
ATOM      6  H   UNL     1       7.916   3.871  18.362  0.00  0.00    +0.000 HD
ENDBRANCH   4   5
BRANCH   4   7
ATOM      7  C   UNL     1       6.473   6.069  16.421  0.00  0.00    +0.000 C 
BRANCH   7   8
ATOM      8  O   UNL     1       7.570   6.980  16.555  0.00  0.00    +0.000 OA
ATOM      9  H   UNL     1       7.215   7.883  16.417  0.00  0.00    +0.000 HD
ENDBRANCH   7   8
BRANCH   7  10
ATOM     10  C   UNL     1       6.510   5.424  15.015  0.00  0.00    +0.000 C 
BRANCH  10  11
ATOM     11  O   UNL     1       7.861   5.231  14.575  0.00  0.00    +0.000 OA
ATOM     12  H   UNL     1       8.279   6.121  14.539  0.00  0.00    +0.000 HD
ENDBRANCH  10  11
BRANCH  10  13
ATOM     13  C   UNL     1       5.747   4.101  14.936  0.00  0.00    +0.000 C 
BRANCH  13  14
ATOM     14  O   UNL     1       6.292   3.262  13.927  0.00  0.00    +0.000 OA
ATOM     15  H   UNL     1       6.215   2.349  14.247  0.00  0.00    +0.000 HD
ENDBRANCH  13  14
ENDBRANCH  10  13
ENDBRANCH   7  10
ENDBRANCH   4   7
ENDBRANCH   1   4
BRANCH   1  16
ATOM     16  C   UNL     1       4.678   5.382  19.309  0.00  0.00    +0.000 C 
BRANCH  16  17
ATOM     17  S   UNL     1       4.302   3.627  19.615  0.00  0.00    +0.000 S 
ATOM     18  C   UNL     1       2.981   3.902  20.848  0.00  0.00    +0.000 C 
ATOM     19  C   UNL     1       2.061   2.711  20.645  0.00  0.00    +0.000 C 
ATOM     20  C   UNL     1       1.829   2.583  19.123  0.00  0.00    +0.000 C 
ATOM     21  C   UNL     1       3.023   3.213  18.354  0.00  0.00    +0.000 C 
BRANCH  19  22
ATOM     22  O   UNL     1       0.831   2.855  21.345  0.00  0.00    +0.000 OA
ATOM     23  H   UNL     1       0.142   2.334  20.898  0.00  0.00    +0.000 HD
ENDBRANCH  19  22
BRANCH  20  24
ATOM     24  O   UNL     1       1.711   1.199  18.753  0.00  0.00    +0.000 OA
ATOM     25  H   UNL     1       0.785   0.935  18.898  0.00  0.00    +0.000 HD
ENDBRANCH  20  24
BRANCH  21  26
ATOM     26  C   UNL     1       2.558   4.354  17.446  0.00  0.00    +0.000 C 
BRANCH  26  27
ATOM     27  O   UNL     1       1.139   4.377  17.298  0.00  0.00    +0.000 OA
ATOM     28  H   UNL     1       0.801   3.476  17.431  0.00  0.00    +0.000 HD
ENDBRANCH  26  27
ENDBRANCH  21  26
ENDBRANCH  16  17
ENDBRANCH   1  16
TORSDOF 15
ENDMDL
MODEL 9
REMARK VINA RESULT:      -6.1      0.924      1.170
REMARK  Name = 
REMARK  15 active torsions:
REMARK  status: ('A' for Active; 'I' for Inactive)
REMARK    1  A    between atoms: O_1  and  C_2
REMARK    2  A    between atoms: C_2  and  C_3
REMARK    3  A    between atoms: C_3  and  O_4
REMARK    4  A    between atoms: C_3  and  C_5
REMARK    5  A    between atoms: C_5  and  O_6
REMARK    6  A    between atoms: C_5  and  C_7
REMARK    7  A    between atoms: C_7  and  O_8
REMARK    8  A    between atoms: C_7  and  C_9
REMARK    9  A    between atoms: C_9  and  O_10
REMARK   10  A    between atoms: C_9  and  C_11
REMARK   11  A    between atoms: C_11  and  S_12
REMARK   12  A    between atoms: C_14  and  O_15
REMARK   13  A    between atoms: C_16  and  O_17
REMARK   14  A    between atoms: C_18  and  C_19
REMARK   15  A    between atoms: C_19  and  O_20
REMARK                            x       y       z     vdW  Elec       q    Type
REMARK                         _______ _______ _______ _____ _____    ______ ____
ROOT
ATOM      1  C   UNL     1       5.460   5.911  18.571  0.00  0.00    +0.000 C 
ENDROOT
BRANCH   1   2
ATOM      2  O   UNL     1       6.275   5.432  19.651  0.00  0.00    +0.000 OA
ATOM      3  H   UNL     1       7.204   5.610  19.440  0.00  0.00    +0.000 HD
ENDBRANCH   1   2
BRANCH   1   4
ATOM      4  C   UNL     1       6.363   6.074  17.319  0.00  0.00    +0.000 C 
BRANCH   4   5
ATOM      5  O   UNL     1       6.609   7.478  17.092  0.00  0.00    +0.000 OA
ATOM      6  H   UNL     1       6.965   7.835  17.936  0.00  0.00    +0.000 HD
ENDBRANCH   4   5
BRANCH   4   7
ATOM      7  C   UNL     1       5.772   5.468  16.024  0.00  0.00    +0.000 C 
BRANCH   7   8
ATOM      8  O   UNL     1       5.495   6.538  15.112  0.00  0.00    +0.000 OA
ATOM      9  H   UNL     1       5.623   6.187  14.206  0.00  0.00    +0.000 HD
ENDBRANCH   7   8
BRANCH   7  10
ATOM     10  C   UNL     1       6.708   4.442  15.343  0.00  0.00    +0.000 C 
BRANCH  10  11
ATOM     11  O   UNL     1       6.199   3.109  15.488  0.00  0.00    +0.000 OA
ATOM     12  H   UNL     1       5.409   3.040  14.906  0.00  0.00    +0.000 HD
ENDBRANCH  10  11
BRANCH  10  13
ATOM     13  C   UNL     1       6.960   4.741  13.865  0.00  0.00    +0.000 C 
BRANCH  13  14
ATOM     14  O   UNL     1       8.037   5.655  13.710  0.00  0.00    +0.000 OA
ATOM     15  H   UNL     1       8.582   5.328  12.977  0.00  0.00    +0.000 HD
ENDBRANCH  13  14
ENDBRANCH  10  13
ENDBRANCH   7  10
ENDBRANCH   4   7
ENDBRANCH   1   4
BRANCH   1  16
ATOM     16  C   UNL     1       4.263   4.971  18.331  0.00  0.00    +0.000 C 
BRANCH  16  17
ATOM     17  S   UNL     1       3.158   4.891  19.776  0.00  0.00    +0.000 S 
ATOM     18  C   UNL     1       1.695   4.241  18.892  0.00  0.00    +0.000 C 
ATOM     19  C   UNL     1       0.989   3.411  19.949  0.00  0.00    +0.000 C 
ATOM     20  C   UNL     1       2.070   2.535  20.621  0.00  0.00    +0.000 C 
ATOM     21  C   UNL     1       3.460   3.216  20.483  0.00  0.00    +0.000 C 
BRANCH  19  22
ATOM     22  O   UNL     1      -0.054   2.615  19.401  0.00  0.00    +0.000 OA
ATOM     23  H   UNL     1       0.259   1.700  19.294  0.00  0.00    +0.000 HD
ENDBRANCH  19  22
BRANCH  20  24
ATOM     24  O   UNL     1       1.771   2.359  22.016  0.00  0.00    +0.000 OA
ATOM     25  H   UNL     1       0.840   2.081  22.083  0.00  0.00    +0.000 HD
ENDBRANCH  20  24
BRANCH  21  26
ATOM     26  C   UNL     1       4.444   2.319  19.729  0.00  0.00    +0.000 C 
BRANCH  26  27
ATOM     27  O   UNL     1       3.780   1.427  18.836  0.00  0.00    +0.000 OA
ATOM     28  H   UNL     1       4.431   1.083  18.202  0.00  0.00    +0.000 HD
ENDBRANCH  26  27
ENDBRANCH  21  26
ENDBRANCH  16  17
ENDBRANCH   1  16
TORSDOF 15
ENDMDL
