MODEL 1
REMARK VINA RESULT:      -6.7      0.000      0.000
REMARK  Name = 
REMARK  8 active torsions:
REMARK  status: ('A' for Active; 'I' for Inactive)
REMARK    1  A    between atoms: C_1  and  C_2
REMARK    2  A    between atoms: C_3  and  C_4
REMARK    3  A    between atoms: C_7  and  C_8
REMARK    4  A    between atoms: C_9  and  O_10
REMARK    5  A    between atoms: C_11  and  C_12
REMARK    6  A    between atoms: C_12  and  O_14
REMARK    7  A    between atoms: C_15  and  C_16
REMARK    8  A    between atoms: C_15  and  C_17
REMARK                            x       y       z     vdW  Elec       q    Type
REMARK                         _______ _______ _______ _____ _____    ______ ____
ROOT
ATOM      1  C   UNL     1       2.279   3.575  21.581  0.00  0.00    +0.000 C 
ATOM      2  C   UNL     1       2.857   4.032  20.264  0.00  0.00    +0.000 A 
ATOM      3  C   UNL     1       3.754   3.257  19.501  0.00  0.00    +0.000 A 
ATOM      4  C   UNL     1       4.224   1.876  19.853  0.00  0.00    +0.000 C 
ATOM      5  C   UNL     1       4.239   3.830  18.326  0.00  0.00    +0.000 A 
ATOM      6  C   UNL     1       3.875   5.094  17.878  0.00  0.00    +0.000 A 
ATOM      7  C   UNL     1       2.919   5.839  18.562  0.00  0.00    +0.000 A 
ATOM      8  C   UNL     1       2.402   7.141  18.019  0.00  0.00    +0.000 C 
ATOM      9  C   UNL     1       2.464   5.310  19.784  0.00  0.00    +0.000 A 
ATOM     10  C   UNL     1       4.592   5.362  16.588  0.00  0.00    +0.000 C 
ATOM     11  C   UNL     1       5.622   4.207  16.589  0.00  0.00    +0.000 C 
ATOM     12  C   UNL     1       5.759   3.595  15.192  0.00  0.00    +0.000 C 
ATOM     13  C   UNL     1       7.024   4.553  17.123  0.00  0.00    +0.000 C 
ATOM     14  O   UNL     1       5.111   3.178  17.483  0.00  0.00    +0.000 OA
ENDROOT
BRANCH   9  15
ATOM     15  O   UNL     1       1.600   6.019  20.581  0.00  0.00    +0.000 OA
ATOM     16  H   UNL     1       1.559   5.620  21.463  0.00  0.00    +0.000 HD
ENDBRANCH   9  15
BRANCH  10  17
ATOM     17  C   UNL     1       5.245   6.712  16.409  0.00  0.00    +0.000 C 
ATOM     18  O   UNL     1       5.743   7.327  17.343  0.00  0.00    +0.000 OA
BRANCH  17  19
ATOM     19  O   UNL     1       5.201   7.241  15.167  0.00  0.00    +0.000 OA
ATOM     20  H   UNL     1       5.488   8.173  15.107  0.00  0.00    +0.000 HD
ENDBRANCH  17  19
ENDBRANCH  10  17
TORSDOF 3
ENDMDL
MODEL 2
REMARK VINA RESULT:      -6.3      0.932      1.167
REMARK  Name = 
REMARK  8 active torsions:
REMARK  status: ('A' for Active; 'I' for Inactive)
REMARK    1  A    between atoms: C_1  and  C_2
REMARK    2  A    between atoms: C_3  and  C_4
REMARK    3  A    between atoms: C_7  and  C_8
REMARK    4  A    between atoms: C_9  and  O_10
REMARK    5  A    between atoms: C_11  and  C_12
REMARK    6  A    between atoms: C_12  and  O_14
REMARK    7  A    between atoms: C_15  and  C_16
REMARK    8  A    between atoms: C_15  and  C_17
REMARK                            x       y       z     vdW  Elec       q    Type
REMARK                         _______ _______ _______ _____ _____    ______ ____
ROOT
ATOM      1  C   UNL     1       1.539   2.790  20.509  0.00  0.00    +0.000 C 
ATOM      2  C   UNL     1       2.354   3.542  19.485  0.00  0.00    +0.000 A 
ATOM      3  C   UNL     1       3.163   2.907  18.520  0.00  0.00    +0.000 A 
ATOM      4  C   UNL     1       3.300   1.424  18.343  0.00  0.00    +0.000 C 
ATOM      5  C   UNL     1       3.894   3.735  17.669  0.00  0.00    +0.000 A 
ATOM      6  C   UNL     1       3.849   5.123  17.717  0.00  0.00    +0.000 A 
ATOM      7  C   UNL     1       2.985   5.773  18.595  0.00  0.00    +0.000 A 
ATOM      8  C   UNL     1       2.811   7.264  18.564  0.00  0.00    +0.000 C 
ATOM      9  C   UNL     1       2.288   4.960  19.509  0.00  0.00    +0.000 A 
ATOM     10  C   UNL     1       4.757   5.663  16.652  0.00  0.00    +0.000 C 
ATOM     11  C   UNL     1       5.526   4.379  16.257  0.00  0.00    +0.000 C 
ATOM     12  C   UNL     1       5.707   4.296  14.739  0.00  0.00    +0.000 C 
ATOM     13  C   UNL     1       6.893   4.175  16.935  0.00  0.00    +0.000 C 
ATOM     14  O   UNL     1       4.713   3.247  16.676  0.00  0.00    +0.000 OA
ENDROOT
BRANCH   9  15
ATOM     15  O   UNL     1       1.493   5.515  20.480  0.00  0.00    +0.000 OA
ATOM     16  H   UNL     1       0.831   6.097  20.076  0.00  0.00    +0.000 HD
ENDBRANCH   9  15
BRANCH  10  17
ATOM     17  C   UNL     1       5.684   6.796  17.022  0.00  0.00    +0.000 C 
ATOM     18  O   UNL     1       5.919   7.725  16.260  0.00  0.00    +0.000 OA
BRANCH  17  19
ATOM     19  O   UNL     1       6.295   6.704  18.224  0.00  0.00    +0.000 OA
ATOM     20  H   UNL     1       6.370   5.796  18.578  0.00  0.00    +0.000 HD
ENDBRANCH  17  19
ENDBRANCH  10  17
TORSDOF 3
ENDMDL
MODEL 3
REMARK VINA RESULT:      -6.3      1.479      4.645
REMARK  Name = 
REMARK  8 active torsions:
REMARK  status: ('A' for Active; 'I' for Inactive)
REMARK    1  A    between atoms: C_1  and  C_2
REMARK    2  A    between atoms: C_3  and  C_4
REMARK    3  A    between atoms: C_7  and  C_8
REMARK    4  A    between atoms: C_9  and  O_10
REMARK    5  A    between atoms: C_11  and  C_12
REMARK    6  A    between atoms: C_12  and  O_14
REMARK    7  A    between atoms: C_15  and  C_16
REMARK    8  A    between atoms: C_15  and  C_17
REMARK                            x       y       z     vdW  Elec       q    Type
REMARK                         _______ _______ _______ _____ _____    ______ ____
ROOT
ATOM      1  C   UNL     1       4.816   7.106  15.843  0.00  0.00    +0.000 C 
ATOM      2  C   UNL     1       4.413   6.259  17.025  0.00  0.00    +0.000 A 
ATOM      3  C   UNL     1       4.900   4.954  17.246  0.00  0.00    +0.000 A 
ATOM      4  C   UNL     1       5.900   4.243  16.381  0.00  0.00    +0.000 C 
ATOM      5  C   UNL     1       4.403   4.277  18.359  0.00  0.00    +0.000 A 
ATOM      6  C   UNL     1       3.484   4.823  19.247  0.00  0.00    +0.000 A 
ATOM      7  C   UNL     1       3.063   6.142  19.106  0.00  0.00    +0.000 A 
ATOM      8  C   UNL     1       2.187   6.800  20.134  0.00  0.00    +0.000 C 
ATOM      9  C   UNL     1       3.499   6.823  17.954  0.00  0.00    +0.000 A 
ATOM     10  C   UNL     1       3.193   3.806  20.310  0.00  0.00    +0.000 C 
ATOM     11  C   UNL     1       3.834   2.545  19.681  0.00  0.00    +0.000 C 
ATOM     12  C   UNL     1       4.583   1.728  20.737  0.00  0.00    +0.000 C 
ATOM     13  C   UNL     1       2.878   1.614  18.914  0.00  0.00    +0.000 C 
ATOM     14  O   UNL     1       4.802   3.003  18.696  0.00  0.00    +0.000 OA
ENDROOT
BRANCH   9  15
ATOM     15  O   UNL     1       3.054   8.091  17.675  0.00  0.00    +0.000 OA
ATOM     16  H   UNL     1       2.354   8.057  17.005  0.00  0.00    +0.000 HD
ENDBRANCH   9  15
BRANCH  10  17
ATOM     17  C   UNL     1       1.752   3.583  20.699  0.00  0.00    +0.000 C 
ATOM     18  O   UNL     1       0.821   3.864  19.955  0.00  0.00    +0.000 OA
BRANCH  17  19
ATOM     19  O   UNL     1       1.532   3.108  21.945  0.00  0.00    +0.000 OA
ATOM     20  H   UNL     1       2.277   2.607  22.331  0.00  0.00    +0.000 HD
ENDBRANCH  17  19
ENDBRANCH  10  17
TORSDOF 3
ENDMDL
MODEL 4
REMARK VINA RESULT:      -6.2      2.076      4.705
REMARK  Name = 
REMARK  8 active torsions:
REMARK  status: ('A' for Active; 'I' for Inactive)
REMARK    1  A    between atoms: C_1  and  C_2
REMARK    2  A    between atoms: C_3  and  C_4
REMARK    3  A    between atoms: C_7  and  C_8
REMARK    4  A    between atoms: C_9  and  O_10
REMARK    5  A    between atoms: C_11  and  C_12
REMARK    6  A    between atoms: C_12  and  O_14
REMARK    7  A    between atoms: C_15  and  C_16
REMARK    8  A    between atoms: C_15  and  C_17
REMARK                            x       y       z     vdW  Elec       q    Type
REMARK                         _______ _______ _______ _____ _____    ______ ____
ROOT
ATOM      1  C   UNL     1       3.603   8.052  16.968  0.00  0.00    +0.000 C 
ATOM      2  C   UNL     1       3.427   6.916  17.946  0.00  0.00    +0.000 A 
ATOM      3  C   UNL     1       4.133   5.698  17.855  0.00  0.00    +0.000 A 
ATOM      4  C   UNL     1       5.169   5.372  16.820  0.00  0.00    +0.000 C 
ATOM      5  C   UNL     1       3.832   4.724  18.806  0.00  0.00    +0.000 A 
ATOM      6  C   UNL     1       2.903   4.901  19.824  0.00  0.00    +0.000 A 
ATOM      7  C   UNL     1       2.266   6.127  19.994  0.00  0.00    +0.000 A 
ATOM      8  C   UNL     1       1.371   6.389  21.172  0.00  0.00    +0.000 C 
ATOM      9  C   UNL     1       2.503   7.103  19.008  0.00  0.00    +0.000 A 
ATOM     10  C   UNL     1       2.857   3.647  20.645  0.00  0.00    +0.000 C 
ATOM     11  C   UNL     1       3.646   2.679  19.730  0.00  0.00    +0.000 C 
ATOM     12  C   UNL     1       4.591   1.797  20.551  0.00  0.00    +0.000 C 
ATOM     13  C   UNL     1       2.800   1.781  18.808  0.00  0.00    +0.000 C 
ATOM     14  O   UNL     1       4.455   3.496  18.838  0.00  0.00    +0.000 OA
ENDROOT
BRANCH   9  15
ATOM     15  O   UNL     1       1.840   8.304  19.033  0.00  0.00    +0.000 OA
ATOM     16  H   UNL     1       0.884   8.157  18.984  0.00  0.00    +0.000 HD
ENDBRANCH   9  15
BRANCH  10  17
ATOM     17  C   UNL     1       1.502   3.100  21.024  0.00  0.00    +0.000 C 
ATOM     18  O   UNL     1       1.312   2.481  22.064  0.00  0.00    +0.000 OA
BRANCH  17  19
ATOM     19  O   UNL     1       0.509   3.278  20.125  0.00  0.00    +0.000 OA
ATOM     20  H   UNL     1       0.702   2.940  19.229  0.00  0.00    +0.000 HD
ENDBRANCH  17  19
ENDBRANCH  10  17
TORSDOF 3
ENDMDL
MODEL 5
REMARK VINA RESULT:      -6.0      1.339      1.440
REMARK  Name = 
REMARK  8 active torsions:
REMARK  status: ('A' for Active; 'I' for Inactive)
REMARK    1  A    between atoms: C_1  and  C_2
REMARK    2  A    between atoms: C_3  and  C_4
REMARK    3  A    between atoms: C_7  and  C_8
REMARK    4  A    between atoms: C_9  and  O_10
REMARK    5  A    between atoms: C_11  and  C_12
REMARK    6  A    between atoms: C_12  and  O_14
REMARK    7  A    between atoms: C_15  and  C_16
REMARK    8  A    between atoms: C_15  and  C_17
REMARK                            x       y       z     vdW  Elec       q    Type
REMARK                         _______ _______ _______ _____ _____    ______ ____
ROOT
ATOM      1  C   UNL     1       1.942   2.262  21.576  0.00  0.00    +0.000 C 
ATOM      2  C   UNL     1       2.611   2.976  20.427  0.00  0.00    +0.000 A 
ATOM      3  C   UNL     1       3.974   2.816  20.103  0.00  0.00    +0.000 A 
ATOM      4  C   UNL     1       4.932   1.901  20.808  0.00  0.00    +0.000 C 
ATOM      5  C   UNL     1       4.462   3.575  19.040  0.00  0.00    +0.000 A 
ATOM      6  C   UNL     1       3.681   4.451  18.296  0.00  0.00    +0.000 A 
ATOM      7  C   UNL     1       2.313   4.554  18.533  0.00  0.00    +0.000 A 
ATOM      8  C   UNL     1       1.423   5.380  17.648  0.00  0.00    +0.000 C 
ATOM      9  C   UNL     1       1.811   3.848  19.642  0.00  0.00    +0.000 A 
ATOM     10  C   UNL     1       4.546   5.079  17.244  0.00  0.00    +0.000 C 
ATOM     11  C   UNL     1       5.950   4.660  17.744  0.00  0.00    +0.000 C 
ATOM     12  C   UNL     1       6.843   4.237  16.575  0.00  0.00    +0.000 C 
ATOM     13  C   UNL     1       6.702   5.700  18.596  0.00  0.00    +0.000 C 
ATOM     14  O   UNL     1       5.769   3.506  18.613  0.00  0.00    +0.000 OA
ENDROOT
BRANCH   9  15
ATOM     15  O   UNL     1       0.497   3.970  20.018  0.00  0.00    +0.000 OA
ATOM     16  H   UNL     1       0.024   3.141  19.847  0.00  0.00    +0.000 HD
ENDBRANCH   9  15
BRANCH  10  17
ATOM     17  C   UNL     1       4.434   6.571  17.035  0.00  0.00    +0.000 C 
ATOM     18  O   UNL     1       3.873   7.304  17.839  0.00  0.00    +0.000 OA
BRANCH  17  19
ATOM     19  O   UNL     1       4.936   7.054  15.878  0.00  0.00    +0.000 OA
ATOM     20  H   UNL     1       5.134   8.012  15.885  0.00  0.00    +0.000 HD
ENDBRANCH  17  19
ENDBRANCH  10  17
TORSDOF 3
ENDMDL
MODEL 6
REMARK VINA RESULT:      -6.0      1.822      3.312
REMARK  Name = 
REMARK  8 active torsions:
REMARK  status: ('A' for Active; 'I' for Inactive)
REMARK    1  A    between atoms: C_1  and  C_2
REMARK    2  A    between atoms: C_3  and  C_4
REMARK    3  A    between atoms: C_7  and  C_8
REMARK    4  A    between atoms: C_9  and  O_10
REMARK    5  A    between atoms: C_11  and  C_12
REMARK    6  A    between atoms: C_12  and  O_14
REMARK    7  A    between atoms: C_15  and  C_16
REMARK    8  A    between atoms: C_15  and  C_17
REMARK                            x       y       z     vdW  Elec       q    Type
REMARK                         _______ _______ _______ _____ _____    ______ ____
ROOT
ATOM      1  C   UNL     1       0.620   3.763  20.246  0.00  0.00    +0.000 C 
ATOM      2  C   UNL     1       1.925   3.942  19.510  0.00  0.00    +0.000 A 
ATOM      3  C   UNL     1       2.631   5.162  19.468  0.00  0.00    +0.000 A 
ATOM      4  C   UNL     1       2.222   6.425  20.169  0.00  0.00    +0.000 C 
ATOM      5  C   UNL     1       3.801   5.187  18.710  0.00  0.00    +0.000 A 
ATOM      6  C   UNL     1       4.297   4.087  18.022  0.00  0.00    +0.000 A 
ATOM      7  C   UNL     1       3.672   2.847  18.126  0.00  0.00    +0.000 A 
ATOM      8  C   UNL     1       4.271   1.613  17.513  0.00  0.00    +0.000 C 
ATOM      9  C   UNL     1       2.455   2.813  18.831  0.00  0.00    +0.000 A 
ATOM     10  C   UNL     1       5.565   4.494  17.331  0.00  0.00    +0.000 C 
ATOM     11  C   UNL     1       5.490   6.033  17.485  0.00  0.00    +0.000 C 
ATOM     12  C   UNL     1       6.864   6.614  17.833  0.00  0.00    +0.000 C 
ATOM     13  C   UNL     1       4.911   6.804  16.284  0.00  0.00    +0.000 C 
ATOM     14  O   UNL     1       4.590   6.309  18.594  0.00  0.00    +0.000 OA
ENDROOT
BRANCH   9  15
ATOM     15  O   UNL     1       1.713   1.660  18.900  0.00  0.00    +0.000 OA
ATOM     16  H   UNL     1       2.169   0.943  18.434  0.00  0.00    +0.000 HD
ENDBRANCH   9  15
BRANCH  10  17
ATOM     17  C   UNL     1       5.754   4.070  15.894  0.00  0.00    +0.000 C 
ATOM     18  O   UNL     1       4.810   3.871  15.140  0.00  0.00    +0.000 OA
BRANCH  17  19
ATOM     19  O   UNL     1       7.027   3.861  15.492  0.00  0.00    +0.000 OA
ATOM     20  H   UNL     1       7.708   4.079  16.158  0.00  0.00    +0.000 HD
ENDBRANCH  17  19
ENDBRANCH  10  17
TORSDOF 3
ENDMDL
MODEL 7
REMARK VINA RESULT:      -5.9      1.741      4.549
REMARK  Name = 
REMARK  8 active torsions:
REMARK  status: ('A' for Active; 'I' for Inactive)
REMARK    1  A    between atoms: C_1  and  C_2
REMARK    2  A    between atoms: C_3  and  C_4
REMARK    3  A    between atoms: C_7  and  C_8
REMARK    4  A    between atoms: C_9  and  O_10
REMARK    5  A    between atoms: C_11  and  C_12
REMARK    6  A    between atoms: C_12  and  O_14
REMARK    7  A    between atoms: C_15  and  C_16
REMARK    8  A    between atoms: C_15  and  C_17
REMARK                            x       y       z     vdW  Elec       q    Type
REMARK                         _______ _______ _______ _____ _____    ______ ____
ROOT
ATOM      1  C   UNL     1       6.205   7.244  16.704  0.00  0.00    +0.000 C 
ATOM      2  C   UNL     1       5.383   6.325  17.574  0.00  0.00    +0.000 A 
ATOM      3  C   UNL     1       5.845   5.076  18.038  0.00  0.00    +0.000 A 
ATOM      4  C   UNL     1       7.208   4.505  17.777  0.00  0.00    +0.000 C 
ATOM      5  C   UNL     1       4.955   4.318  18.797  0.00  0.00    +0.000 A 
ATOM      6  C   UNL     1       3.669   4.734  19.121  0.00  0.00    +0.000 A 
ATOM      7  C   UNL     1       3.224   6.002  18.758  0.00  0.00    +0.000 A 
ATOM      8  C   UNL     1       1.896   6.530  19.223  0.00  0.00    +0.000 C 
ATOM      9  C   UNL     1       4.080   6.759  17.936  0.00  0.00    +0.000 A 
ATOM     10  C   UNL     1       3.020   3.662  19.945  0.00  0.00    +0.000 C 
ATOM     11  C   UNL     1       4.018   2.497  19.735  0.00  0.00    +0.000 C 
ATOM     12  C   UNL     1       4.256   1.739  21.043  0.00  0.00    +0.000 C 
ATOM     13  C   UNL     1       3.654   1.488  18.631  0.00  0.00    +0.000 C 
ATOM     14  O   UNL     1       5.282   3.087  19.320  0.00  0.00    +0.000 OA
ENDROOT
BRANCH   9  15
ATOM     15  O   UNL     1       3.685   7.977  17.442  0.00  0.00    +0.000 OA
ATOM     16  H   UNL     1       3.800   8.662  18.117  0.00  0.00    +0.000 HD
ENDBRANCH   9  15
BRANCH  10  17
ATOM     17  C   UNL     1       1.602   3.270  19.604  0.00  0.00    +0.000 C 
ATOM     18  O   UNL     1       1.179   3.276  18.454  0.00  0.00    +0.000 OA
BRANCH  17  19
ATOM     19  O   UNL     1       0.796   2.965  20.644  0.00  0.00    +0.000 OA
ATOM     20  H   UNL     1      -0.135   2.790  20.405  0.00  0.00    +0.000 HD
ENDBRANCH  17  19
ENDBRANCH  10  17
TORSDOF 3
ENDMDL
MODEL 8
REMARK VINA RESULT:      -5.8      1.526      5.000
REMARK  Name = 
REMARK  8 active torsions:
REMARK  status: ('A' for Active; 'I' for Inactive)
REMARK    1  A    between atoms: C_1  and  C_2
REMARK    2  A    between atoms: C_3  and  C_4
REMARK    3  A    between atoms: C_7  and  C_8
REMARK    4  A    between atoms: C_9  and  O_10
REMARK    5  A    between atoms: C_11  and  C_12
REMARK    6  A    between atoms: C_12  and  O_14
REMARK    7  A    between atoms: C_15  and  C_16
REMARK    8  A    between atoms: C_15  and  C_17
REMARK                            x       y       z     vdW  Elec       q    Type
REMARK                         _______ _______ _______ _____ _____    ______ ____
ROOT
ATOM      1  C   UNL     1       4.015   8.657  17.431  0.00  0.00    +0.000 C 
ATOM      2  C   UNL     1       3.704   7.199  17.666  0.00  0.00    +0.000 A 
ATOM      3  C   UNL     1       2.683   6.753  18.530  0.00  0.00    +0.000 A 
ATOM      4  C   UNL     1       1.747   7.641  19.296  0.00  0.00    +0.000 C 
ATOM      5  C   UNL     1       2.543   5.375  18.681  0.00  0.00    +0.000 A 
ATOM      6  C   UNL     1       3.335   4.442  18.021  0.00  0.00    +0.000 A 
ATOM      7  C   UNL     1       4.284   4.854  17.090  0.00  0.00    +0.000 A 
ATOM      8  C   UNL     1       5.048   3.864  16.258  0.00  0.00    +0.000 C 
ATOM      9  C   UNL     1       4.489   6.241  16.970  0.00  0.00    +0.000 A 
ATOM     10  C   UNL     1       2.888   3.070  18.428  0.00  0.00    +0.000 C 
ATOM     11  C   UNL     1       1.975   3.413  19.631  0.00  0.00    +0.000 C 
ATOM     12  C   UNL     1       0.706   2.557  19.615  0.00  0.00    +0.000 C 
ATOM     13  C   UNL     1       2.627   3.316  21.022  0.00  0.00    +0.000 C 
ATOM     14  O   UNL     1       1.580   4.806  19.484  0.00  0.00    +0.000 OA
ENDROOT
BRANCH   9  15
ATOM     15  O   UNL     1       5.475   6.740  16.155  0.00  0.00    +0.000 OA
ATOM     16  H   UNL     1       5.244   7.635  15.864  0.00  0.00    +0.000 HD
ENDBRANCH   9  15
BRANCH  10  17
ATOM     17  C   UNL     1       3.950   2.058  18.786  0.00  0.00    +0.000 C 
ATOM     18  O   UNL     1       3.816   0.861  18.564  0.00  0.00    +0.000 OA
BRANCH  17  19
ATOM     19  O   UNL     1       5.043   2.534  19.422  0.00  0.00    +0.000 OA
ATOM     20  H   UNL     1       4.942   3.430  19.798  0.00  0.00    +0.000 HD
ENDBRANCH  17  19
ENDBRANCH  10  17
TORSDOF 3
ENDMDL
MODEL 9
REMARK VINA RESULT:      -5.7      1.502      3.440
REMARK  Name = 
REMARK  8 active torsions:
REMARK  status: ('A' for Active; 'I' for Inactive)
REMARK    1  A    between atoms: C_1  and  C_2
REMARK    2  A    between atoms: C_3  and  C_4
REMARK    3  A    between atoms: C_7  and  C_8
REMARK    4  A    between atoms: C_9  and  O_10
REMARK    5  A    between atoms: C_11  and  C_12
REMARK    6  A    between atoms: C_12  and  O_14
REMARK    7  A    between atoms: C_15  and  C_16
REMARK    8  A    between atoms: C_15  and  C_17
REMARK                            x       y       z     vdW  Elec       q    Type
REMARK                         _______ _______ _______ _____ _____    ______ ____
ROOT
ATOM      1  C   UNL     1       0.827   5.254  20.410  0.00  0.00    +0.000 C 
ATOM      2  C   UNL     1       2.192   5.264  19.767  0.00  0.00    +0.000 A 
ATOM      3  C   UNL     1       2.749   6.402  19.148  0.00  0.00    +0.000 A 
ATOM      4  C   UNL     1       2.101   7.753  19.072  0.00  0.00    +0.000 C 
ATOM      5  C   UNL     1       4.003   6.247  18.558  0.00  0.00    +0.000 A 
ATOM      6  C   UNL     1       4.717   5.055  18.567  0.00  0.00    +0.000 A 
ATOM      7  C   UNL     1       4.233   3.946  19.255  0.00  0.00    +0.000 A 
ATOM      8  C   UNL     1       5.053   2.696  19.403  0.00  0.00    +0.000 C 
ATOM      9  C   UNL     1       2.941   4.058  19.801  0.00  0.00    +0.000 A 
ATOM     10  C   UNL     1       6.013   5.276  17.845  0.00  0.00    +0.000 C 
ATOM     11  C   UNL     1       5.738   6.647  17.180  0.00  0.00    +0.000 C 
ATOM     12  C   UNL     1       6.971   7.551  17.263  0.00  0.00    +0.000 C 
ATOM     13  C   UNL     1       5.248   6.603  15.721  0.00  0.00    +0.000 C 
ATOM     14  O   UNL     1       4.664   7.279  17.931  0.00  0.00    +0.000 OA
ENDROOT
BRANCH   9  15
ATOM     15  O   UNL     1       2.337   2.984  20.407  0.00  0.00    +0.000 OA
ATOM     16  H   UNL     1       1.414   3.195  20.611  0.00  0.00    +0.000 HD
ENDBRANCH   9  15
BRANCH  10  17
ATOM     17  C   UNL     1       6.452   4.232  16.845  0.00  0.00    +0.000 C 
ATOM     18  O   UNL     1       5.652   3.572  16.194  0.00  0.00    +0.000 OA
BRANCH  17  19
ATOM     19  O   UNL     1       7.782   4.017  16.746  0.00  0.00    +0.000 OA
ATOM     20  H   UNL     1       8.288   4.193  17.563  0.00  0.00    +0.000 HD
ENDBRANCH  17  19
ENDBRANCH  10  17
TORSDOF 3
ENDMDL
