MODEL 1
REMARK VINA RESULT:      -7.9      0.000      0.000
REMARK  Name = 
REMARK  10 active torsions:
REMARK  status: ('A' for Active; 'I' for Inactive)
REMARK    1  A    between atoms: C_1  and  O_2
REMARK    2  A    between atoms: O_2  and  C_3
REMARK    3  A    between atoms: C_6  and  N_7
REMARK    4  A    between atoms: N_10  and  C_11
REMARK    5  A    between atoms: C_14  and  O_15
REMARK    6  A    between atoms: O_15  and  C_16
REMARK    7  A    between atoms: C_16  and  C_17
REMARK    8  A    between atoms: C_16  and  C_18
REMARK    9  A    between atoms: C_16  and  C_19
REMARK   10  A    between atoms: C_19  and  O_21
REMARK                            x       y       z     vdW  Elec       q    Type
REMARK                         _______ _______ _______ _____ _____    ______ ____
ROOT
ATOM      1  N   UNL     1       0.750   7.855  21.559  0.00  0.00    +0.000 N 
ATOM      2  C   UNL     1       1.546   7.513  20.480  0.00  0.00    +0.000 C 
ATOM      3  O   UNL     1       1.858   8.276  19.573  0.00  0.00    +0.000 OA
ATOM      4  N   UNL     1       1.921   6.178  20.523  0.00  0.00    +0.000 N 
ATOM      5  H   UNL     1       0.949   7.365  22.417  0.00  0.00    +0.000 HD
ATOM      6  H   UNL     1       1.252   5.581  20.982  0.00  0.00    +0.000 HD
ENDROOT
BRANCH   1  10
ATOM      7  C   UNL     1      -1.207  11.581  21.941  0.00  0.00    +0.000 A 
ATOM      8  C   UNL     1      -0.851  11.109  20.681  0.00  0.00    +0.000 A 
ATOM      9  C   UNL     1      -0.238   9.864  20.539  0.00  0.00    +0.000 A 
ATOM     10  C   UNL     1       0.062   9.086  21.660  0.00  0.00    +0.000 A 
ATOM     11  C   UNL     1      -0.331   9.540  22.921  0.00  0.00    +0.000 A 
ATOM     12  C   UNL     1      -0.952  10.792  23.064  0.00  0.00    +0.000 A 
BRANCH   7  14
ATOM     13  C   UNL     1      -2.952  12.991  22.689  0.00  0.00    +0.000 C 
ATOM     14  O   UNL     1      -1.753  12.833  21.945  0.00  0.00    +0.000 OA
ENDBRANCH   7  14
ENDBRANCH   1  10
BRANCH   4  15
ATOM     15  C   UNL     1       2.714   5.594  19.513  0.00  0.00    +0.000 A 
ATOM     16  C   UNL     1       2.183   4.979  18.376  0.00  0.00    +0.000 A 
ATOM     17  C   UNL     1       3.033   4.408  17.414  0.00  0.00    +0.000 A 
ATOM     18  C   UNL     1       4.420   4.448  17.572  0.00  0.00    +0.000 A 
ATOM     19  C   UNL     1       4.932   5.052  18.720  0.00  0.00    +0.000 A 
ATOM     20  C   UNL     1       4.092   5.637  19.672  0.00  0.00    +0.000 A 
BRANCH  18  21
ATOM     21  O   UNL     1       5.155   3.852  16.582  0.00  0.00    +0.000 OA
BRANCH  21  22
ATOM     22  C   UNL     1       5.890   4.644  15.618  0.00  0.00    +0.000 C 
ATOM     23  C   UNL     1       6.252   3.841  14.361  0.00  0.00    +0.000 C 
ATOM     24  C   UNL     1       5.241   6.010  15.364  0.00  0.00    +0.000 C 
BRANCH  22  25
ATOM     25  C   UNL     1       7.250   4.990  16.278  0.00  0.00    +0.000 C 
ATOM     26  O   UNL     1       7.977   4.181  16.842  0.00  0.00    +0.000 OA
BRANCH  25  27
ATOM     27  O   UNL     1       7.583   6.303  16.170  0.00  0.00    +0.000 OA
ATOM     28  H   UNL     1       7.381   6.761  17.011  0.00  0.00    +0.000 HD
ENDBRANCH  25  27
ENDBRANCH  22  25
ENDBRANCH  21  22
ENDBRANCH  18  21
ENDBRANCH   4  15
TORSDOF 7
ENDMDL
MODEL 2
REMARK VINA RESULT:      -7.9      0.484      1.439
REMARK  Name = 
REMARK  10 active torsions:
REMARK  status: ('A' for Active; 'I' for Inactive)
REMARK    1  A    between atoms: C_1  and  O_2
REMARK    2  A    between atoms: O_2  and  C_3
REMARK    3  A    between atoms: C_6  and  N_7
REMARK    4  A    between atoms: N_10  and  C_11
REMARK    5  A    between atoms: C_14  and  O_15
REMARK    6  A    between atoms: O_15  and  C_16
REMARK    7  A    between atoms: C_16  and  C_17
REMARK    8  A    between atoms: C_16  and  C_18
REMARK    9  A    between atoms: C_16  and  C_19
REMARK   10  A    between atoms: C_19  and  O_21
REMARK                            x       y       z     vdW  Elec       q    Type
REMARK                         _______ _______ _______ _____ _____    ______ ____
ROOT
ATOM      1  N   UNL     1       0.889   7.862  21.467  0.00  0.00    +0.000 N 
ATOM      2  C   UNL     1       1.718   7.518  20.413  0.00  0.00    +0.000 C 
ATOM      3  O   UNL     1       2.078   8.288  19.530  0.00  0.00    +0.000 OA
ATOM      4  N   UNL     1       2.066   6.176  20.451  0.00  0.00    +0.000 N 
ATOM      5  H   UNL     1       1.047   7.355  22.325  0.00  0.00    +0.000 HD
ATOM      6  H   UNL     1       1.368   5.585  20.877  0.00  0.00    +0.000 HD
ENDROOT
BRANCH   1  10
ATOM      7  C   UNL     1      -1.207  11.524  21.676  0.00  0.00    +0.000 A 
ATOM      8  C   UNL     1      -0.839  10.866  22.846  0.00  0.00    +0.000 A 
ATOM      9  C   UNL     1      -0.115   9.675  22.790  0.00  0.00    +0.000 A 
ATOM     10  C   UNL     1       0.222   9.104  21.561  0.00  0.00    +0.000 A 
ATOM     11  C   UNL     1      -0.110   9.784  20.386  0.00  0.00    +0.000 A 
ATOM     12  C   UNL     1      -0.836  10.985  20.443  0.00  0.00    +0.000 A 
BRANCH   7  14
ATOM     13  C   UNL     1      -3.168  12.483  22.585  0.00  0.00    +0.000 C 
ATOM     14  O   UNL     1      -1.955  12.651  21.868  0.00  0.00    +0.000 OA
ENDBRANCH   7  14
ENDBRANCH   1  10
BRANCH   4  15
ATOM     15  C   UNL     1       2.883   5.590  19.462  0.00  0.00    +0.000 A 
ATOM     16  C   UNL     1       4.277   5.541  19.543  0.00  0.00    +0.000 A 
ATOM     17  C   UNL     1       5.030   4.950  18.515  0.00  0.00    +0.000 A 
ATOM     18  C   UNL     1       4.401   4.399  17.397  0.00  0.00    +0.000 A 
ATOM     19  C   UNL     1       3.012   4.471  17.323  0.00  0.00    +0.000 A 
ATOM     20  C   UNL     1       2.255   5.042  18.352  0.00  0.00    +0.000 A 
BRANCH  18  21
ATOM     21  O   UNL     1       5.229   3.859  16.448  0.00  0.00    +0.000 OA
BRANCH  21  22
ATOM     22  C   UNL     1       5.742   4.666  15.359  0.00  0.00    +0.000 C 
ATOM     23  C   UNL     1       5.611   3.963  14.002  0.00  0.00    +0.000 C 
ATOM     24  C   UNL     1       5.228   6.111  15.407  0.00  0.00    +0.000 C 
BRANCH  22  25
ATOM     25  C   UNL     1       7.269   4.803  15.595  0.00  0.00    +0.000 C 
ATOM     26  O   UNL     1       7.860   4.395  16.587  0.00  0.00    +0.000 OA
BRANCH  25  27
ATOM     27  O   UNL     1       7.919   5.422  14.574  0.00  0.00    +0.000 OA
ATOM     28  H   UNL     1       7.438   5.260  13.738  0.00  0.00    +0.000 HD
ENDBRANCH  25  27
ENDBRANCH  22  25
ENDBRANCH  21  22
ENDBRANCH  18  21
ENDBRANCH   4  15
TORSDOF 7
ENDMDL
MODEL 3
REMARK VINA RESULT:      -7.8      0.597      1.132
REMARK  Name = 
REMARK  10 active torsions:
REMARK  status: ('A' for Active; 'I' for Inactive)
REMARK    1  A    between atoms: C_1  and  O_2
REMARK    2  A    between atoms: O_2  and  C_3
REMARK    3  A    between atoms: C_6  and  N_7
REMARK    4  A    between atoms: N_10  and  C_11
REMARK    5  A    between atoms: C_14  and  O_15
REMARK    6  A    between atoms: O_15  and  C_16
REMARK    7  A    between atoms: C_16  and  C_17
REMARK    8  A    between atoms: C_16  and  C_18
REMARK    9  A    between atoms: C_16  and  C_19
REMARK   10  A    between atoms: C_19  and  O_21
REMARK                            x       y       z     vdW  Elec       q    Type
REMARK                         _______ _______ _______ _____ _____    ______ ____
ROOT
ATOM      1  N   UNL     1       0.839   7.820  21.575  0.00  0.00    +0.000 N 
ATOM      2  C   UNL     1       1.637   7.497  20.492  0.00  0.00    +0.000 C 
ATOM      3  O   UNL     1       1.984   8.288  19.621  0.00  0.00    +0.000 OA
ATOM      4  N   UNL     1       1.970   6.151  20.482  0.00  0.00    +0.000 N 
ATOM      5  H   UNL     1       1.013   7.287  22.414  0.00  0.00    +0.000 HD
ATOM      6  H   UNL     1       1.276   5.556  20.909  0.00  0.00    +0.000 HD
ENDROOT
BRANCH   1  10
ATOM      7  C   UNL     1      -1.200  11.503  21.930  0.00  0.00    +0.000 A 
ATOM      8  C   UNL     1      -0.917  10.753  23.068  0.00  0.00    +0.000 A 
ATOM      9  C   UNL     1      -0.212   9.553  22.967  0.00  0.00    +0.000 A 
ATOM     10  C   UNL     1       0.190   9.067  21.721  0.00  0.00    +0.000 A 
ATOM     11  C   UNL     1      -0.057   9.838  20.583  0.00  0.00    +0.000 A 
ATOM     12  C   UNL     1      -0.764  11.048  20.685  0.00  0.00    +0.000 A 
BRANCH   7  14
ATOM     13  C   UNL     1      -1.407  13.843  21.652  0.00  0.00    +0.000 C 
ATOM     14  O   UNL     1      -1.938  12.629  22.161  0.00  0.00    +0.000 OA
ENDBRANCH   7  14
ENDBRANCH   1  10
BRANCH   4  15
ATOM     15  C   UNL     1       2.755   5.584  19.457  0.00  0.00    +0.000 A 
ATOM     16  C   UNL     1       2.217   4.965  18.326  0.00  0.00    +0.000 A 
ATOM     17  C   UNL     1       3.060   4.412  17.348  0.00  0.00    +0.000 A 
ATOM     18  C   UNL     1       4.448   4.475  17.484  0.00  0.00    +0.000 A 
ATOM     19  C   UNL     1       4.969   5.082  18.625  0.00  0.00    +0.000 A 
ATOM     20  C   UNL     1       4.135   5.650  19.594  0.00  0.00    +0.000 A 
BRANCH  18  21
ATOM     21  O   UNL     1       5.177   3.895  16.479  0.00  0.00    +0.000 OA
BRANCH  21  22
ATOM     22  C   UNL     1       5.705   4.686  15.387  0.00  0.00    +0.000 C 
ATOM     23  C   UNL     1       5.568   3.975  14.034  0.00  0.00    +0.000 C 
ATOM     24  C   UNL     1       5.210   6.138  15.422  0.00  0.00    +0.000 C 
BRANCH  22  25
ATOM     25  C   UNL     1       7.232   4.804  15.627  0.00  0.00    +0.000 C 
ATOM     26  O   UNL     1       7.823   4.343  16.596  0.00  0.00    +0.000 OA
BRANCH  25  27
ATOM     27  O   UNL     1       7.883   5.472  14.639  0.00  0.00    +0.000 OA
ATOM     28  H   UNL     1       7.255   5.679  13.918  0.00  0.00    +0.000 HD
ENDBRANCH  25  27
ENDBRANCH  22  25
ENDBRANCH  21  22
ENDBRANCH  18  21
ENDBRANCH   4  15
TORSDOF 7
ENDMDL
MODEL 4
REMARK VINA RESULT:      -7.1      5.944      7.931
REMARK  Name = 
REMARK  10 active torsions:
REMARK  status: ('A' for Active; 'I' for Inactive)
REMARK    1  A    between atoms: C_1  and  O_2
REMARK    2  A    between atoms: O_2  and  C_3
REMARK    3  A    between atoms: C_6  and  N_7
REMARK    4  A    between atoms: N_10  and  C_11
REMARK    5  A    between atoms: C_14  and  O_15
REMARK    6  A    between atoms: O_15  and  C_16
REMARK    7  A    between atoms: C_16  and  C_17
REMARK    8  A    between atoms: C_16  and  C_18
REMARK    9  A    between atoms: C_16  and  C_19
REMARK   10  A    between atoms: C_19  and  O_21
REMARK                            x       y       z     vdW  Elec       q    Type
REMARK                         _______ _______ _______ _____ _____    ______ ____
ROOT
ATOM      1  N   UNL     1       9.624   9.904  18.832  0.00  0.00    +0.000 N 
ATOM      2  C   UNL     1       8.550   9.159  18.375  0.00  0.00    +0.000 C 
ATOM      3  O   UNL     1       7.617   9.611  17.720  0.00  0.00    +0.000 OA
ATOM      4  N   UNL     1       8.633   7.836  18.782  0.00  0.00    +0.000 N 
ATOM      5  H   UNL     1      10.495   9.403  18.910  0.00  0.00    +0.000 HD
ATOM      6  H   UNL     1       9.116   7.708  19.658  0.00  0.00    +0.000 HD
ENDROOT
BRANCH   1  10
ATOM      7  C   UNL     1       9.760  14.108  18.437  0.00  0.00    +0.000 A 
ATOM      8  C   UNL     1       9.149  13.534  19.548  0.00  0.00    +0.000 A 
ATOM      9  C   UNL     1       9.129  12.148  19.708  0.00  0.00    +0.000 A 
ATOM     10  C   UNL     1       9.691  11.313  18.740  0.00  0.00    +0.000 A 
ATOM     11  C   UNL     1      10.340  11.888  17.645  0.00  0.00    +0.000 A 
ATOM     12  C   UNL     1      10.362  13.284  17.486  0.00  0.00    +0.000 A 
BRANCH   7  14
ATOM     13  C   UNL     1       8.847  16.085  19.361  0.00  0.00    +0.000 C 
ATOM     14  O   UNL     1       9.664  15.469  18.377  0.00  0.00    +0.000 OA
ENDBRANCH   7  14
ENDBRANCH   1  10
BRANCH   4  15
ATOM     15  C   UNL     1       7.636   6.893  18.457  0.00  0.00    +0.000 A 
ATOM     16  C   UNL     1       6.830   6.984  17.320  0.00  0.00    +0.000 A 
ATOM     17  C   UNL     1       5.848   6.012  17.064  0.00  0.00    +0.000 A 
ATOM     18  C   UNL     1       5.661   4.938  17.937  0.00  0.00    +0.000 A 
ATOM     19  C   UNL     1       6.462   4.872  19.076  0.00  0.00    +0.000 A 
ATOM     20  C   UNL     1       7.453   5.826  19.327  0.00  0.00    +0.000 A 
BRANCH  18  21
ATOM     21  O   UNL     1       4.669   4.056  17.600  0.00  0.00    +0.000 OA
BRANCH  21  22
ATOM     22  C   UNL     1       3.620   3.718  18.540  0.00  0.00    +0.000 C 
ATOM     23  C   UNL     1       4.041   2.601  19.504  0.00  0.00    +0.000 C 
ATOM     24  C   UNL     1       2.999   4.957  19.197  0.00  0.00    +0.000 C 
BRANCH  22  25
ATOM     25  C   UNL     1       2.461   3.113  17.707  0.00  0.00    +0.000 C 
ATOM     26  O   UNL     1       1.600   3.768  17.132  0.00  0.00    +0.000 OA
BRANCH  25  27
ATOM     27  O   UNL     1       2.484   1.755  17.656  0.00  0.00    +0.000 OA
ATOM     28  H   UNL     1       2.817   1.468  16.782  0.00  0.00    +0.000 HD
ENDBRANCH  25  27
ENDBRANCH  22  25
ENDBRANCH  21  22
ENDBRANCH  18  21
ENDBRANCH   4  15
TORSDOF 7
ENDMDL
MODEL 5
REMARK VINA RESULT:      -7.1      6.064      8.080
REMARK  Name = 
REMARK  10 active torsions:
REMARK  status: ('A' for Active; 'I' for Inactive)
REMARK    1  A    between atoms: C_1  and  O_2
REMARK    2  A    between atoms: O_2  and  C_3
REMARK    3  A    between atoms: C_6  and  N_7
REMARK    4  A    between atoms: N_10  and  C_11
REMARK    5  A    between atoms: C_14  and  O_15
REMARK    6  A    between atoms: O_15  and  C_16
REMARK    7  A    between atoms: C_16  and  C_17
REMARK    8  A    between atoms: C_16  and  C_18
REMARK    9  A    between atoms: C_16  and  C_19
REMARK   10  A    between atoms: C_19  and  O_21
REMARK                            x       y       z     vdW  Elec       q    Type
REMARK                         _______ _______ _______ _____ _____    ______ ____
ROOT
ATOM      1  N   UNL     1       9.647   9.933  18.869  0.00  0.00    +0.000 N 
ATOM      2  C   UNL     1       8.579   9.183  18.409  0.00  0.00    +0.000 C 
ATOM      3  O   UNL     1       7.637   9.632  17.766  0.00  0.00    +0.000 OA
ATOM      4  N   UNL     1       8.677   7.856  18.800  0.00  0.00    +0.000 N 
ATOM      5  H   UNL     1      10.524   9.440  18.936  0.00  0.00    +0.000 HD
ATOM      6  H   UNL     1       9.167   7.723  19.671  0.00  0.00    +0.000 HD
ENDROOT
BRANCH   1  10
ATOM      7  C   UNL     1       9.885  14.150  18.749  0.00  0.00    +0.000 A 
ATOM      8  C   UNL     1      10.268  13.400  17.641  0.00  0.00    +0.000 A 
ATOM      9  C   UNL     1      10.160  12.010  17.655  0.00  0.00    +0.000 A 
ATOM     10  C   UNL     1       9.699  11.344  18.793  0.00  0.00    +0.000 A 
ATOM     11  C   UNL     1       9.275  12.097  19.891  0.00  0.00    +0.000 A 
ATOM     12  C   UNL     1       9.382  13.497  19.875  0.00  0.00    +0.000 A 
BRANCH   7  14
ATOM     13  C   UNL     1      11.442  15.921  18.570  0.00  0.00    +0.000 C 
ATOM     14  O   UNL     1      10.089  15.495  18.623  0.00  0.00    +0.000 OA
ENDBRANCH   7  14
ENDBRANCH   1  10
BRANCH   4  15
ATOM     15  C   UNL     1       7.688   6.907  18.470  0.00  0.00    +0.000 A 
ATOM     16  C   UNL     1       6.884   6.995  17.331  0.00  0.00    +0.000 A 
ATOM     17  C   UNL     1       5.911   6.017  17.070  0.00  0.00    +0.000 A 
ATOM     18  C   UNL     1       5.730   4.938  17.939  0.00  0.00    +0.000 A 
ATOM     19  C   UNL     1       6.529   4.875  19.079  0.00  0.00    +0.000 A 
ATOM     20  C   UNL     1       7.512   5.836  19.335  0.00  0.00    +0.000 A 
BRANCH  18  21
ATOM     21  O   UNL     1       4.745   4.050  17.597  0.00  0.00    +0.000 OA
BRANCH  21  22
ATOM     22  C   UNL     1       3.676   3.728  18.520  0.00  0.00    +0.000 C 
ATOM     23  C   UNL     1       4.094   2.668  19.547  0.00  0.00    +0.000 C 
ATOM     24  C   UNL     1       3.006   4.981  19.100  0.00  0.00    +0.000 C 
BRANCH  22  25
ATOM     25  C   UNL     1       2.557   3.058  17.681  0.00  0.00    +0.000 C 
ATOM     26  O   UNL     1       1.708   3.665  17.041  0.00  0.00    +0.000 OA
BRANCH  25  27
ATOM     27  O   UNL     1       2.603   1.700  17.708  0.00  0.00    +0.000 OA
ATOM     28  H   UNL     1       2.119   1.374  18.493  0.00  0.00    +0.000 HD
ENDBRANCH  25  27
ENDBRANCH  22  25
ENDBRANCH  21  22
ENDBRANCH  18  21
ENDBRANCH   4  15
TORSDOF 7
ENDMDL
MODEL 6
REMARK VINA RESULT:      -7.1      6.059      7.939
REMARK  Name = 
REMARK  10 active torsions:
REMARK  status: ('A' for Active; 'I' for Inactive)
REMARK    1  A    between atoms: C_1  and  O_2
REMARK    2  A    between atoms: O_2  and  C_3
REMARK    3  A    between atoms: C_6  and  N_7
REMARK    4  A    between atoms: N_10  and  C_11
REMARK    5  A    between atoms: C_14  and  O_15
REMARK    6  A    between atoms: O_15  and  C_16
REMARK    7  A    between atoms: C_16  and  C_17
REMARK    8  A    between atoms: C_16  and  C_18
REMARK    9  A    between atoms: C_16  and  C_19
REMARK   10  A    between atoms: C_19  and  O_21
REMARK                            x       y       z     vdW  Elec       q    Type
REMARK                         _______ _______ _______ _____ _____    ______ ____
ROOT
ATOM      1  N   UNL     1       9.581   9.959  18.975  0.00  0.00    +0.000 N 
ATOM      2  C   UNL     1       8.561   9.189  18.442  0.00  0.00    +0.000 C 
ATOM      3  O   UNL     1       7.650   9.624  17.748  0.00  0.00    +0.000 OA
ATOM      4  N   UNL     1       8.669   7.860  18.824  0.00  0.00    +0.000 N 
ATOM      5  H   UNL     1      10.464   9.486  19.090  0.00  0.00    +0.000 HD
ATOM      6  H   UNL     1       9.108   7.727  19.721  0.00  0.00    +0.000 HD
ENDROOT
BRANCH   1  10
ATOM      7  C   UNL     1       9.736  14.180  18.906  0.00  0.00    +0.000 A 
ATOM      8  C   UNL     1      10.054  13.454  17.762  0.00  0.00    +0.000 A 
ATOM      9  C   UNL     1       9.972  12.062  17.762  0.00  0.00    +0.000 A 
ATOM     10  C   UNL     1       9.602  11.371  18.918  0.00  0.00    +0.000 A 
ATOM     11  C   UNL     1       9.243  12.099  20.055  0.00  0.00    +0.000 A 
ATOM     12  C   UNL     1       9.323  13.502  20.054  0.00  0.00    +0.000 A 
BRANCH   7  14
ATOM     13  C   UNL     1      11.176  15.963  18.321  0.00  0.00    +0.000 C 
ATOM     14  O   UNL     1       9.907  15.530  18.788  0.00  0.00    +0.000 OA
ENDBRANCH   7  14
ENDBRANCH   1  10
BRANCH   4  15
ATOM     15  C   UNL     1       7.725   6.891  18.423  0.00  0.00    +0.000 A 
ATOM     16  C   UNL     1       6.927   7.017  17.283  0.00  0.00    +0.000 A 
ATOM     17  C   UNL     1       6.000   6.016  16.950  0.00  0.00    +0.000 A 
ATOM     18  C   UNL     1       5.860   4.878  17.746  0.00  0.00    +0.000 A 
ATOM     19  C   UNL     1       6.651   4.776  18.889  0.00  0.00    +0.000 A 
ATOM     20  C   UNL     1       7.589   5.761  19.217  0.00  0.00    +0.000 A 
BRANCH  18  21
ATOM     21  O   UNL     1       4.918   3.971  17.338  0.00  0.00    +0.000 OA
BRANCH  21  22
ATOM     22  C   UNL     1       3.703   3.763  18.098  0.00  0.00    +0.000 C 
ATOM     23  C   UNL     1       3.426   4.911  19.078  0.00  0.00    +0.000 C 
ATOM     24  C   UNL     1       2.519   3.352  17.211  0.00  0.00    +0.000 C 
BRANCH  22  25
ATOM     25  C   UNL     1       3.950   2.521  18.993  0.00  0.00    +0.000 C 
ATOM     26  O   UNL     1       4.027   2.549  20.216  0.00  0.00    +0.000 OA
BRANCH  25  27
ATOM     27  O   UNL     1       4.068   1.365  18.291  0.00  0.00    +0.000 OA
ATOM     28  H   UNL     1       4.746   0.797  18.711  0.00  0.00    +0.000 HD
ENDBRANCH  25  27
ENDBRANCH  22  25
ENDBRANCH  21  22
ENDBRANCH  18  21
ENDBRANCH   4  15
TORSDOF 7
ENDMDL
MODEL 7
REMARK VINA RESULT:      -7.0      6.069      7.984
REMARK  Name = 
REMARK  10 active torsions:
REMARK  status: ('A' for Active; 'I' for Inactive)
REMARK    1  A    between atoms: C_1  and  O_2
REMARK    2  A    between atoms: O_2  and  C_3
REMARK    3  A    between atoms: C_6  and  N_7
REMARK    4  A    between atoms: N_10  and  C_11
REMARK    5  A    between atoms: C_14  and  O_15
REMARK    6  A    between atoms: O_15  and  C_16
REMARK    7  A    between atoms: C_16  and  C_17
REMARK    8  A    between atoms: C_16  and  C_18
REMARK    9  A    between atoms: C_16  and  C_19
REMARK   10  A    between atoms: C_19  and  O_21
REMARK                            x       y       z     vdW  Elec       q    Type
REMARK                         _______ _______ _______ _____ _____    ______ ____
ROOT
ATOM      1  N   UNL     1       9.619   9.982  18.873  0.00  0.00    +0.000 N 
ATOM      2  C   UNL     1       8.577   9.225  18.365  0.00  0.00    +0.000 C 
ATOM      3  O   UNL     1       7.676   9.664  17.660  0.00  0.00    +0.000 OA
ATOM      4  N   UNL     1       8.649   7.905  18.785  0.00  0.00    +0.000 N 
ATOM      5  H   UNL     1      10.490   9.489  18.999  0.00  0.00    +0.000 HD
ATOM      6  H   UNL     1       9.087   7.787  19.685  0.00  0.00    +0.000 HD
ENDROOT
BRANCH   1  10
ATOM      7  C   UNL     1       9.735  14.185  18.460  0.00  0.00    +0.000 A 
ATOM      8  C   UNL     1       9.117  13.612  19.568  0.00  0.00    +0.000 A 
ATOM      9  C   UNL     1       9.105  12.227  19.734  0.00  0.00    +0.000 A 
ATOM     10  C   UNL     1       9.679  11.391  18.774  0.00  0.00    +0.000 A 
ATOM     11  C   UNL     1      10.335  11.965  17.683  0.00  0.00    +0.000 A 
ATOM     12  C   UNL     1      10.350  13.360  17.518  0.00  0.00    +0.000 A 
BRANCH   7  14
ATOM     13  C   UNL     1      10.457  16.281  19.284  0.00  0.00    +0.000 C 
ATOM     14  O   UNL     1       9.632  15.545  18.393  0.00  0.00    +0.000 OA
ENDBRANCH   7  14
ENDBRANCH   1  10
BRANCH   4  15
ATOM     15  C   UNL     1       7.678   6.952  18.415  0.00  0.00    +0.000 A 
ATOM     16  C   UNL     1       6.748   7.155  17.393  0.00  0.00    +0.000 A 
ATOM     17  C   UNL     1       5.802   6.164  17.085  0.00  0.00    +0.000 A 
ATOM     18  C   UNL     1       5.775   4.958  17.789  0.00  0.00    +0.000 A 
ATOM     19  C   UNL     1       6.699   4.778  18.817  0.00  0.00    +0.000 A 
ATOM     20  C   UNL     1       7.655   5.754  19.116  0.00  0.00    +0.000 A 
BRANCH  18  21
ATOM     21  O   UNL     1       4.804   4.066  17.416  0.00  0.00    +0.000 OA
BRANCH  21  22
ATOM     22  C   UNL     1       3.629   3.856  18.237  0.00  0.00    +0.000 C 
ATOM     23  C   UNL     1       3.534   4.867  19.388  0.00  0.00    +0.000 C 
ATOM     24  C   UNL     1       2.353   3.686  17.402  0.00  0.00    +0.000 C 
BRANCH  22  25
ATOM     25  C   UNL     1       3.813   2.479  18.926  0.00  0.00    +0.000 C 
ATOM     26  O   UNL     1       4.337   2.312  20.021  0.00  0.00    +0.000 OA
BRANCH  25  27
ATOM     27  O   UNL     1       3.323   1.442  18.198  0.00  0.00    +0.000 OA
ATOM     28  H   UNL     1       3.157   0.680  18.789  0.00  0.00    +0.000 HD
ENDBRANCH  25  27
ENDBRANCH  22  25
ENDBRANCH  21  22
ENDBRANCH  18  21
ENDBRANCH   4  15
TORSDOF 7
ENDMDL
MODEL 8
REMARK VINA RESULT:      -7.0      2.359      3.424
REMARK  Name = 
REMARK  10 active torsions:
REMARK  status: ('A' for Active; 'I' for Inactive)
REMARK    1  A    between atoms: C_1  and  O_2
REMARK    2  A    between atoms: O_2  and  C_3
REMARK    3  A    between atoms: C_6  and  N_7
REMARK    4  A    between atoms: N_10  and  C_11
REMARK    5  A    between atoms: C_14  and  O_15
REMARK    6  A    between atoms: O_15  and  C_16
REMARK    7  A    between atoms: C_16  and  C_17
REMARK    8  A    between atoms: C_16  and  C_18
REMARK    9  A    between atoms: C_16  and  C_19
REMARK   10  A    between atoms: C_19  and  O_21
REMARK                            x       y       z     vdW  Elec       q    Type
REMARK                         _______ _______ _______ _____ _____    ______ ____
ROOT
ATOM      1  N   UNL     1       0.438  10.440  21.995  0.00  0.00    +0.000 N 
ATOM      2  C   UNL     1       0.520   9.478  21.004  0.00  0.00    +0.000 C 
ATOM      3  O   UNL     1      -0.260   9.376  20.064  0.00  0.00    +0.000 OA
ATOM      4  N   UNL     1       1.576   8.606  21.223  0.00  0.00    +0.000 N 
ATOM      5  H   UNL     1       1.319  10.728  22.393  0.00  0.00    +0.000 HD
ATOM      6  H   UNL     1       1.807   8.479  22.196  0.00  0.00    +0.000 HD
ENDROOT
BRANCH   1  10
ATOM      7  C   UNL     1      -2.877  13.043  22.289  0.00  0.00    +0.000 A 
ATOM      8  C   UNL     1      -2.673  12.066  23.259  0.00  0.00    +0.000 A 
ATOM      9  C   UNL     1      -1.562  11.224  23.193  0.00  0.00    +0.000 A 
ATOM     10  C   UNL     1      -0.656  11.324  22.134  0.00  0.00    +0.000 A 
ATOM     11  C   UNL     1      -0.837  12.331  21.183  0.00  0.00    +0.000 A 
ATOM     12  C   UNL     1      -1.954  13.181  21.252  0.00  0.00    +0.000 A 
BRANCH   7  14
ATOM     13  C   UNL     1      -4.763  13.525  23.633  0.00  0.00    +0.000 C 
ATOM     14  O   UNL     1      -4.027  13.765  22.443  0.00  0.00    +0.000 OA
ENDBRANCH   7  14
ENDBRANCH   1  10
BRANCH   4  15
ATOM     15  C   UNL     1       1.841   7.525  20.356  0.00  0.00    +0.000 A 
ATOM     16  C   UNL     1       2.358   7.678  19.068  0.00  0.00    +0.000 A 
ATOM     17  C   UNL     1       2.588   6.556  18.255  0.00  0.00    +0.000 A 
ATOM     18  C   UNL     1       2.309   5.268  18.719  0.00  0.00    +0.000 A 
ATOM     19  C   UNL     1       1.778   5.134  20.000  0.00  0.00    +0.000 A 
ATOM     20  C   UNL     1       1.563   6.246  20.821  0.00  0.00    +0.000 A 
BRANCH  18  21
ATOM     21  O   UNL     1       2.558   4.247  17.841  0.00  0.00    +0.000 OA
BRANCH  21  22
ATOM     22  C   UNL     1       3.752   3.435  17.960  0.00  0.00    +0.000 C 
ATOM     23  C   UNL     1       4.651   3.539  16.721  0.00  0.00    +0.000 C 
ATOM     24  C   UNL     1       4.461   3.628  19.307  0.00  0.00    +0.000 C 
BRANCH  22  25
ATOM     25  C   UNL     1       3.280   1.958  17.991  0.00  0.00    +0.000 C 
ATOM     26  O   UNL     1       3.944   1.024  18.422  0.00  0.00    +0.000 OA
BRANCH  25  27
ATOM     27  O   UNL     1       2.027   1.782  17.495  0.00  0.00    +0.000 OA
ATOM     28  H   UNL     1       1.561   2.642  17.478  0.00  0.00    +0.000 HD
ENDBRANCH  25  27
ENDBRANCH  22  25
ENDBRANCH  21  22
ENDBRANCH  18  21
ENDBRANCH   4  15
TORSDOF 7
ENDMDL
MODEL 9
REMARK VINA RESULT:      -6.9      0.858      1.604
REMARK  Name = 
REMARK  10 active torsions:
REMARK  status: ('A' for Active; 'I' for Inactive)
REMARK    1  A    between atoms: C_1  and  O_2
REMARK    2  A    between atoms: O_2  and  C_3
REMARK    3  A    between atoms: C_6  and  N_7
REMARK    4  A    between atoms: N_10  and  C_11
REMARK    5  A    between atoms: C_14  and  O_15
REMARK    6  A    between atoms: O_15  and  C_16
REMARK    7  A    between atoms: C_16  and  C_17
REMARK    8  A    between atoms: C_16  and  C_18
REMARK    9  A    between atoms: C_16  and  C_19
REMARK   10  A    between atoms: C_19  and  O_21
REMARK                            x       y       z     vdW  Elec       q    Type
REMARK                         _______ _______ _______ _____ _____    ______ ____
ROOT
ATOM      1  N   UNL     1       0.274   7.853  21.461  0.00  0.00    +0.000 N 
ATOM      2  C   UNL     1       1.326   7.553  20.613  0.00  0.00    +0.000 C 
ATOM      3  O   UNL     1       2.012   8.386  20.030  0.00  0.00    +0.000 OA
ATOM      4  N   UNL     1       1.491   6.184  20.464  0.00  0.00    +0.000 N 
ATOM      5  H   UNL     1       0.119   7.194  22.208  0.00  0.00    +0.000 HD
ATOM      6  H   UNL     1       0.637   5.657  20.564  0.00  0.00    +0.000 HD
ENDROOT
BRANCH   1  10
ATOM      7  C   UNL     1      -1.165  11.783  22.042  0.00  0.00    +0.000 A 
ATOM      8  C   UNL     1      -0.921  11.316  20.754  0.00  0.00    +0.000 A 
ATOM      9  C   UNL     1      -0.480  10.009  20.547  0.00  0.00    +0.000 A 
ATOM     10  C   UNL     1      -0.243   9.158  21.630  0.00  0.00    +0.000 A 
ATOM     11  C   UNL     1      -0.527   9.612  22.920  0.00  0.00    +0.000 A 
ATOM     12  C   UNL     1      -0.973  10.927  23.128  0.00  0.00    +0.000 A 
BRANCH   7  14
ATOM     13  C   UNL     1      -2.557  13.407  23.052  0.00  0.00    +0.000 C 
ATOM     14  O   UNL     1      -1.543  13.094  22.109  0.00  0.00    +0.000 OA
ENDBRANCH   7  14
ENDBRANCH   1  10
BRANCH   4  15
ATOM     15  C   UNL     1       2.485   5.640  19.625  0.00  0.00    +0.000 A 
ATOM     16  C   UNL     1       3.804   5.426  20.031  0.00  0.00    +0.000 A 
ATOM     17  C   UNL     1       4.745   4.889  19.137  0.00  0.00    +0.000 A 
ATOM     18  C   UNL     1       4.381   4.555  17.831  0.00  0.00    +0.000 A 
ATOM     19  C   UNL     1       3.065   4.791  17.437  0.00  0.00    +0.000 A 
ATOM     20  C   UNL     1       2.119   5.308  18.328  0.00  0.00    +0.000 A 
BRANCH  18  21
ATOM     21  O   UNL     1       5.378   4.051  17.039  0.00  0.00    +0.000 OA
BRANCH  21  22
ATOM     22  C   UNL     1       6.493   4.878  16.626  0.00  0.00    +0.000 C 
ATOM     23  C   UNL     1       6.131   6.368  16.591  0.00  0.00    +0.000 C 
ATOM     24  C   UNL     1       7.789   4.531  17.371  0.00  0.00    +0.000 C 
BRANCH  22  25
ATOM     25  C   UNL     1       6.796   4.504  15.151  0.00  0.00    +0.000 C 
ATOM     26  O   UNL     1       6.243   3.601  14.534  0.00  0.00    +0.000 OA
BRANCH  25  27
ATOM     27  O   UNL     1       7.746   5.289  14.580  0.00  0.00    +0.000 OA
ATOM     28  H   UNL     1       7.455   6.223  14.605  0.00  0.00    +0.000 HD
ENDBRANCH  25  27
ENDBRANCH  22  25
ENDBRANCH  21  22
ENDBRANCH  18  21
ENDBRANCH   4  15
TORSDOF 7
ENDMDL
