MODEL 1
REMARK VINA RESULT:      -7.2      0.000      0.000
REMARK  Name = 
REMARK  7 active torsions:
REMARK  status: ('A' for Active; 'I' for Inactive)
REMARK    1  A    between atoms: C_2  and  C_3
REMARK    2  A    between atoms: N_7  and  C_8
REMARK    3  A    between atoms: C_8  and  C_9
REMARK    4  A    between atoms: C_9  and  N_10
REMARK    5  A    between atoms: N_10  and  C_11
REMARK    6  A    between atoms: C_11  and  C_12
REMARK    7  A    between atoms: C_18  and  C_19
REMARK                            x       y       z     vdW  Elec       q    Type
REMARK                         _______ _______ _______ _____ _____    ______ ____
ROOT
ATOM      1  C   UNL     1       7.208   5.854  18.801  0.00  0.00    +0.000 C 
ENDROOT
BRANCH   1   2
ATOM      2  N   UNL     1       6.378   4.649  18.945  0.00  0.00    +0.000 NA
ATOM      3  H   UNL     1       6.630   4.149  19.799  0.00  0.00    +0.000 HD
BRANCH   2   4
ATOM      4  C   UNL     1       4.952   4.994  19.009  0.00  0.00    +0.000 C 
BRANCH   4   5
ATOM      5  C   UNL     1       4.091   3.726  18.930  0.00  0.00    +0.000 C 
ATOM      6  O   UNL     1       4.283   2.867  18.064  0.00  0.00    +0.000 OA
ATOM      7  N   UNL     1       3.118   3.578  19.901  0.00  0.00    +0.000 N 
ATOM      8  N   UNL     1       2.847   4.536  20.846  0.00  0.00    +0.000 NA
ATOM      9  C   UNL     1       2.045   3.982  21.694  0.00  0.00    +0.000 C 
ATOM     10  C   UNL     1       1.790   2.524  21.487  0.00  0.00    +0.000 C 
ATOM     11  C   UNL     1       2.321   2.366  20.070  0.00  0.00    +0.000 C 
BRANCH  11  12
ATOM     12  C   UNL     1       1.210   2.266  19.105  0.00  0.00    +0.000 C 
ATOM     13  N   UNL     1       0.390   2.204  18.284  0.00  0.00    +0.000 NA
ENDBRANCH  11  12
ENDBRANCH   4   5
ENDBRANCH   2   4
ENDBRANCH   1   2
BRANCH   1  14
ATOM     14  C   UNL     1       6.751   6.671  17.581  0.00  0.00    +0.000 C 
BRANCH  14  19
ATOM     15  C   UNL     1       5.912   3.953  13.315  0.00  0.00    +0.000 A 
ATOM     16  C   UNL     1       5.105   4.202  14.418  0.00  0.00    +0.000 A 
ATOM     17  C   UNL     1       5.599   4.994  15.456  0.00  0.00    +0.000 A 
ATOM     18  C   UNL     1       6.884   5.525  15.379  0.00  0.00    +0.000 A 
ATOM     19  N   UNL     1       7.444   6.291  16.368  0.00  0.00    +0.000 N 
ATOM     20  N   UNL     1       7.669   5.292  14.307  0.00  0.00    +0.000 NA
ATOM     21  C   UNL     1       7.174   4.519  13.306  0.00  0.00    +0.000 A 
ATOM     22  H   UNL     1       8.371   6.639  16.156  0.00  0.00    +0.000 HD
BRANCH  15  24
ATOM     23  N   UNL     1       5.101   2.482  11.345  0.00  0.00    +0.000 NA
ATOM     24  C   UNL     1       5.460   3.140  12.230  0.00  0.00    +0.000 C 
ENDBRANCH  15  24
ENDBRANCH  14  19
ENDBRANCH   1  14
TORSDOF 7
ENDMDL
MODEL 2
REMARK VINA RESULT:      -6.8      1.446      1.978
REMARK  Name = 
REMARK  7 active torsions:
REMARK  status: ('A' for Active; 'I' for Inactive)
REMARK    1  A    between atoms: C_2  and  C_3
REMARK    2  A    between atoms: N_7  and  C_8
REMARK    3  A    between atoms: C_8  and  C_9
REMARK    4  A    between atoms: C_9  and  N_10
REMARK    5  A    between atoms: N_10  and  C_11
REMARK    6  A    between atoms: C_11  and  C_12
REMARK    7  A    between atoms: C_18  and  C_19
REMARK                            x       y       z     vdW  Elec       q    Type
REMARK                         _______ _______ _______ _____ _____    ______ ____
ROOT
ATOM      1  C   UNL     1       7.239   4.720  18.078  0.00  0.00    +0.000 C 
ENDROOT
BRANCH   1   2
ATOM      2  N   UNL     1       6.179   4.784  19.094  0.00  0.00    +0.000 NA
ATOM      3  H   UNL     1       6.547   5.178  19.962  0.00  0.00    +0.000 HD
BRANCH   2   4
ATOM      4  C   UNL     1       5.060   5.620  18.639  0.00  0.00    +0.000 C 
BRANCH   4   5
ATOM      5  C   UNL     1       3.763   5.209  19.348  0.00  0.00    +0.000 C 
ATOM      6  O   UNL     1       3.197   5.959  20.150  0.00  0.00    +0.000 OA
ATOM      7  N   UNL     1       3.240   3.973  19.012  0.00  0.00    +0.000 N 
ATOM      8  N   UNL     1       3.868   3.097  18.164  0.00  0.00    +0.000 NA
ATOM      9  C   UNL     1       3.012   2.159  17.923  0.00  0.00    +0.000 C 
ATOM     10  C   UNL     1       1.643   2.374  18.482  0.00  0.00    +0.000 C 
ATOM     11  C   UNL     1       1.938   3.495  19.469  0.00  0.00    +0.000 C 
BRANCH  11  12
ATOM     12  C   UNL     1       1.963   2.980  20.850  0.00  0.00    +0.000 C 
ATOM     13  N   UNL     1       1.921   2.630  21.958  0.00  0.00    +0.000 NA
ENDBRANCH  11  12
ENDBRANCH   4   5
ENDBRANCH   2   4
ENDBRANCH   1   2
BRANCH   1  14
ATOM     14  C   UNL     1       7.198   5.973  17.187  0.00  0.00    +0.000 C 
BRANCH  14  19
ATOM     15  C   UNL     1       5.502   3.768  12.879  0.00  0.00    +0.000 A 
ATOM     16  C   UNL     1       4.911   3.918  14.128  0.00  0.00    +0.000 A 
ATOM     17  C   UNL     1       5.615   4.576  15.138  0.00  0.00    +0.000 A 
ATOM     18  C   UNL     1       6.892   5.074  14.890  0.00  0.00    +0.000 A 
ATOM     19  N   UNL     1       7.651   5.709  15.837  0.00  0.00    +0.000 N 
ATOM     20  N   UNL     1       7.468   4.937  13.677  0.00  0.00    +0.000 NA
ATOM     21  C   UNL     1       6.770   4.294  12.705  0.00  0.00    +0.000 A 
ATOM     22  H   UNL     1       8.543   6.049  15.501  0.00  0.00    +0.000 HD
BRANCH  15  24
ATOM     23  N   UNL     1       4.277   2.548  10.952  0.00  0.00    +0.000 NA
ATOM     24  C   UNL     1       4.830   3.094  11.814  0.00  0.00    +0.000 C 
ENDBRANCH  15  24
ENDBRANCH  14  19
ENDBRANCH   1  14
TORSDOF 7
ENDMDL
MODEL 3
REMARK VINA RESULT:      -6.7      1.573      2.125
REMARK  Name = 
REMARK  7 active torsions:
REMARK  status: ('A' for Active; 'I' for Inactive)
REMARK    1  A    between atoms: C_2  and  C_3
REMARK    2  A    between atoms: N_7  and  C_8
REMARK    3  A    between atoms: C_8  and  C_9
REMARK    4  A    between atoms: C_9  and  N_10
REMARK    5  A    between atoms: N_10  and  C_11
REMARK    6  A    between atoms: C_11  and  C_12
REMARK    7  A    between atoms: C_18  and  C_19
REMARK                            x       y       z     vdW  Elec       q    Type
REMARK                         _______ _______ _______ _____ _____    ______ ____
ROOT
ATOM      1  C   UNL     1       5.313   7.376  17.284  0.00  0.00    +0.000 C 
ENDROOT
BRANCH   1   2
ATOM      2  N   UNL     1       4.092   6.756  17.817  0.00  0.00    +0.000 NA
ATOM      3  H   UNL     1       3.555   6.329  17.060  0.00  0.00    +0.000 HD
BRANCH   2   4
ATOM      4  C   UNL     1       4.413   5.718  18.805  0.00  0.00    +0.000 C 
BRANCH   4   5
ATOM      5  C   UNL     1       3.140   5.254  19.526  0.00  0.00    +0.000 C 
ATOM      6  O   UNL     1       2.554   5.979  20.336  0.00  0.00    +0.000 OA
ATOM      7  N   UNL     1       2.663   4.000  19.192  0.00  0.00    +0.000 N 
ATOM      8  N   UNL     1       3.316   3.151  18.334  0.00  0.00    +0.000 NA
ATOM      9  C   UNL     1       2.495   2.182  18.099  0.00  0.00    +0.000 C 
ATOM     10  C   UNL     1       1.124   2.342  18.673  0.00  0.00    +0.000 C 
ATOM     11  C   UNL     1       1.385   3.470  19.660  0.00  0.00    +0.000 C 
BRANCH  11  12
ATOM     12  C   UNL     1       1.444   2.953  21.039  0.00  0.00    +0.000 C 
ATOM     13  N   UNL     1       1.456   2.473  22.098  0.00  0.00    +0.000 NA
ENDBRANCH  11  12
ENDBRANCH   4   5
ENDBRANCH   2   4
ENDBRANCH   1   2
BRANCH   1  14
ATOM     14  C   UNL     1       6.518   6.442  17.494  0.00  0.00    +0.000 C 
BRANCH  14  19
ATOM     15  C   UNL     1       6.156   3.680  13.189  0.00  0.00    +0.000 A 
ATOM     16  C   UNL     1       5.325   3.763  14.300  0.00  0.00    +0.000 A 
ATOM     17  C   UNL     1       5.674   4.616  15.348  0.00  0.00    +0.000 A 
ATOM     18  C   UNL     1       6.841   5.372  15.274  0.00  0.00    +0.000 A 
ATOM     19  N   UNL     1       7.260   6.212  16.272  0.00  0.00    +0.000 N 
ATOM     20  N   UNL     1       7.648   5.300  14.196  0.00  0.00    +0.000 NA
ATOM     21  C   UNL     1       7.295   4.466  13.184  0.00  0.00    +0.000 A 
ATOM     22  H   UNL     1       8.108   6.724  16.062  0.00  0.00    +0.000 HD
BRANCH  15  24
ATOM     23  N   UNL     1       5.606   2.119  11.199  0.00  0.00    +0.000 NA
ATOM     24  C   UNL     1       5.851   2.815  12.094  0.00  0.00    +0.000 C 
ENDBRANCH  15  24
ENDBRANCH  14  19
ENDBRANCH   1  14
TORSDOF 7
ENDMDL
MODEL 4
REMARK VINA RESULT:      -6.5      4.648      8.804
REMARK  Name = 
REMARK  7 active torsions:
REMARK  status: ('A' for Active; 'I' for Inactive)
REMARK    1  A    between atoms: C_2  and  C_3
REMARK    2  A    between atoms: N_7  and  C_8
REMARK    3  A    between atoms: C_8  and  C_9
REMARK    4  A    between atoms: C_9  and  N_10
REMARK    5  A    between atoms: N_10  and  C_11
REMARK    6  A    between atoms: C_11  and  C_12
REMARK    7  A    between atoms: C_18  and  C_19
REMARK                            x       y       z     vdW  Elec       q    Type
REMARK                         _______ _______ _______ _____ _____    ______ ____
ROOT
ATOM      1  C   UNL     1       2.091   5.666  20.020  0.00  0.00    +0.000 C 
ENDROOT
BRANCH   1   2
ATOM      2  N   UNL     1       3.448   5.162  20.273  0.00  0.00    +0.000 NA
ATOM      3  H   UNL     1       3.476   4.658  21.161  0.00  0.00    +0.000 HD
BRANCH   2   4
ATOM      4  C   UNL     1       3.883   4.253  19.204  0.00  0.00    +0.000 C 
BRANCH   4   5
ATOM      5  C   UNL     1       4.544   5.044  18.067  0.00  0.00    +0.000 C 
ATOM      6  O   UNL     1       3.922   5.349  17.044  0.00  0.00    +0.000 OA
ATOM      7  N   UNL     1       5.857   5.429  18.264  0.00  0.00    +0.000 N 
ATOM      8  N   UNL     1       6.590   5.064  19.365  0.00  0.00    +0.000 NA
ATOM      9  C   UNL     1       7.677   5.761  19.315  0.00  0.00    +0.000 C 
ATOM     10  C   UNL     1       7.737   6.790  18.232  0.00  0.00    +0.000 C 
ATOM     11  C   UNL     1       6.583   6.317  17.360  0.00  0.00    +0.000 C 
BRANCH  11  12
ATOM     12  C   UNL     1       7.087   5.631  16.156  0.00  0.00    +0.000 C 
ATOM     13  N   UNL     1       7.441   5.146  15.161  0.00  0.00    +0.000 NA
ENDBRANCH  11  12
ENDBRANCH   4   5
ENDBRANCH   2   4
ENDBRANCH   1   2
BRANCH   1  14
ATOM     14  C   UNL     1       2.085   7.205  20.027  0.00  0.00    +0.000 C 
BRANCH  14  19
ATOM     15  C   UNL     1      -0.848  11.004  21.831  0.00  0.00    +0.000 A 
ATOM     16  C   UNL     1      -0.528  10.629  20.532  0.00  0.00    +0.000 A 
ATOM     17  C   UNL     1       0.309   9.531  20.328  0.00  0.00    +0.000 A 
ATOM     18  C   UNL     1       0.812   8.824  21.418  0.00  0.00    +0.000 A 
ATOM     19  N   UNL     1       1.656   7.752  21.297  0.00  0.00    +0.000 N 
ATOM     20  N   UNL     1       0.499   9.180  22.681  0.00  0.00    +0.000 NA
ATOM     21  C   UNL     1      -0.317  10.251  22.862  0.00  0.00    +0.000 A 
ATOM     22  H   UNL     1       1.909   7.315  22.175  0.00  0.00    +0.000 HD
BRANCH  15  24
ATOM     23  N   UNL     1      -2.370  13.044  22.305  0.00  0.00    +0.000 NA
ATOM     24  C   UNL     1      -1.691  12.127  22.095  0.00  0.00    +0.000 C 
ENDBRANCH  15  24
ENDBRANCH  14  19
ENDBRANCH   1  14
TORSDOF 7
ENDMDL
MODEL 5
REMARK VINA RESULT:      -6.5      2.897      5.061
REMARK  Name = 
REMARK  7 active torsions:
REMARK  status: ('A' for Active; 'I' for Inactive)
REMARK    1  A    between atoms: C_2  and  C_3
REMARK    2  A    between atoms: N_7  and  C_8
REMARK    3  A    between atoms: C_8  and  C_9
REMARK    4  A    between atoms: C_9  and  N_10
REMARK    5  A    between atoms: N_10  and  C_11
REMARK    6  A    between atoms: C_11  and  C_12
REMARK    7  A    between atoms: C_18  and  C_19
REMARK                            x       y       z     vdW  Elec       q    Type
REMARK                         _______ _______ _______ _____ _____    ______ ____
ROOT
ATOM      1  C   UNL     1       2.316   1.861  18.106  0.00  0.00    +0.000 C 
ENDROOT
BRANCH   1   2
ATOM      2  N   UNL     1       2.285   1.966  19.572  0.00  0.00    +0.000 NA
ATOM      3  H   UNL     1       3.172   2.336  19.917  0.00  0.00    +0.000 HD
BRANCH   2   4
ATOM      4  C   UNL     1       1.203   2.854  20.016  0.00  0.00    +0.000 C 
BRANCH   4   5
ATOM      5  C   UNL     1       1.779   4.172  20.552  0.00  0.00    +0.000 C 
ATOM      6  O   UNL     1       2.086   4.309  21.741  0.00  0.00    +0.000 OA
ATOM      7  N   UNL     1       1.974   5.182  19.628  0.00  0.00    +0.000 N 
ATOM      8  N   UNL     1       1.599   5.080  18.312  0.00  0.00    +0.000 NA
ATOM      9  C   UNL     1       2.114   6.104  17.715  0.00  0.00    +0.000 C 
ATOM     10  C   UNL     1       3.022   6.950  18.548  0.00  0.00    +0.000 C 
ATOM     11  C   UNL     1       2.657   6.437  19.934  0.00  0.00    +0.000 C 
BRANCH  11  12
ATOM     12  C   UNL     1       1.798   7.406  20.639  0.00  0.00    +0.000 C 
ATOM     13  N   UNL     1       1.085   8.187  21.120  0.00  0.00    +0.000 NA
ENDBRANCH  11  12
ENDBRANCH   4   5
ENDBRANCH   2   4
ENDBRANCH   1   2
BRANCH   1  14
ATOM     14  C   UNL     1       3.739   2.129  17.585  0.00  0.00    +0.000 C 
BRANCH  14  19
ATOM     15  C   UNL     1       6.697   6.315  17.738  0.00  0.00    +0.000 A 
ATOM     16  C   UNL     1       5.988   5.728  16.696  0.00  0.00    +0.000 A 
ATOM     17  C   UNL     1       5.251   4.570  16.943  0.00  0.00    +0.000 A 
ATOM     18  C   UNL     1       5.228   4.014  18.220  0.00  0.00    +0.000 A 
ATOM     19  N   UNL     1       4.547   2.868  18.532  0.00  0.00    +0.000 N 
ATOM     20  N   UNL     1       5.908   4.583  19.237  0.00  0.00    +0.000 NA
ATOM     21  C   UNL     1       6.621   5.710  18.980  0.00  0.00    +0.000 A 
ATOM     22  H   UNL     1       4.591   2.605  19.509  0.00  0.00    +0.000 HD
BRANCH  15  24
ATOM     23  N   UNL     1       8.115   8.448  17.368  0.00  0.00    +0.000 NA
ATOM     24  C   UNL     1       7.476   7.495  17.537  0.00  0.00    +0.000 C 
ENDBRANCH  15  24
ENDBRANCH  14  19
ENDBRANCH   1  14
TORSDOF 7
ENDMDL
MODEL 6
REMARK VINA RESULT:      -6.4      4.044      8.108
REMARK  Name = 
REMARK  7 active torsions:
REMARK  status: ('A' for Active; 'I' for Inactive)
REMARK    1  A    between atoms: C_2  and  C_3
REMARK    2  A    between atoms: N_7  and  C_8
REMARK    3  A    between atoms: C_8  and  C_9
REMARK    4  A    between atoms: C_9  and  N_10
REMARK    5  A    between atoms: N_10  and  C_11
REMARK    6  A    between atoms: C_11  and  C_12
REMARK    7  A    between atoms: C_18  and  C_19
REMARK                            x       y       z     vdW  Elec       q    Type
REMARK                         _______ _______ _______ _____ _____    ______ ____
ROOT
ATOM      1  C   UNL     1       2.346   5.379  18.523  0.00  0.00    +0.000 C 
ENDROOT
BRANCH   1   2
ATOM      2  N   UNL     1       3.005   4.382  19.379  0.00  0.00    +0.000 NA
ATOM      3  H   UNL     1       2.306   3.815  19.860  0.00  0.00    +0.000 HD
BRANCH   2   4
ATOM      4  C   UNL     1       3.865   3.491  18.588  0.00  0.00    +0.000 C 
BRANCH   4   5
ATOM      5  C   UNL     1       5.254   4.117  18.400  0.00  0.00    +0.000 C 
ATOM      6  O   UNL     1       6.009   4.316  19.357  0.00  0.00    +0.000 OA
ATOM      7  N   UNL     1       5.630   4.409  17.102  0.00  0.00    +0.000 N 
ATOM      8  N   UNL     1       4.798   4.246  16.023  0.00  0.00    +0.000 NA
ATOM      9  C   UNL     1       5.536   4.414  14.976  0.00  0.00    +0.000 C 
ATOM     10  C   UNL     1       6.999   4.575  15.235  0.00  0.00    +0.000 C 
ATOM     11  C   UNL     1       6.970   4.857  16.730  0.00  0.00    +0.000 C 
BRANCH  11  12
ATOM     12  C   UNL     1       7.194   6.291  16.994  0.00  0.00    +0.000 C 
ATOM     13  N   UNL     1       7.453   7.402  17.214  0.00  0.00    +0.000 NA
ENDBRANCH  11  12
ENDBRANCH   4   5
ENDBRANCH   2   4
ENDBRANCH   1   2
BRANCH   1  14
ATOM     14  C   UNL     1       3.074   6.731  18.625  0.00  0.00    +0.000 C 
BRANCH  14  19
ATOM     15  C   UNL     1       0.215   9.888  21.480  0.00  0.00    +0.000 A 
ATOM     16  C   UNL     1       1.026   8.814  21.829  0.00  0.00    +0.000 A 
ATOM     17  C   UNL     1       1.703   8.119  20.826  0.00  0.00    +0.000 A 
ATOM     18  C   UNL     1       1.565   8.504  19.494  0.00  0.00    +0.000 A 
ATOM     19  N   UNL     1       2.179   7.856  18.455  0.00  0.00    +0.000 N 
ATOM     20  N   UNL     1       0.785   9.549  19.150  0.00  0.00    +0.000 NA
ATOM     21  C   UNL     1       0.132  10.214  20.138  0.00  0.00    +0.000 A 
ATOM     22  H   UNL     1       2.016   8.271  17.546  0.00  0.00    +0.000 HD
BRANCH  15  24
ATOM     23  N   UNL     1      -1.104  11.219  23.266  0.00  0.00    +0.000 NA
ATOM     24  C   UNL     1      -0.509  10.626  22.466  0.00  0.00    +0.000 C 
ENDBRANCH  15  24
ENDBRANCH  14  19
ENDBRANCH   1  14
TORSDOF 7
ENDMDL
MODEL 7
REMARK VINA RESULT:      -6.4      1.318      1.571
REMARK  Name = 
REMARK  7 active torsions:
REMARK  status: ('A' for Active; 'I' for Inactive)
REMARK    1  A    between atoms: C_2  and  C_3
REMARK    2  A    between atoms: N_7  and  C_8
REMARK    3  A    between atoms: C_8  and  C_9
REMARK    4  A    between atoms: C_9  and  N_10
REMARK    5  A    between atoms: N_10  and  C_11
REMARK    6  A    between atoms: C_11  and  C_12
REMARK    7  A    between atoms: C_18  and  C_19
REMARK                            x       y       z     vdW  Elec       q    Type
REMARK                         _______ _______ _______ _____ _____    ______ ____
ROOT
ATOM      1  C   UNL     1       7.258   6.094  18.706  0.00  0.00    +0.000 C 
ENDROOT
BRANCH   1   2
ATOM      2  N   UNL     1       6.955   4.660  18.808  0.00  0.00    +0.000 NA
ATOM      3  H   UNL     1       6.945   4.370  19.787  0.00  0.00    +0.000 HD
BRANCH   2   4
ATOM      4  C   UNL     1       5.645   4.352  18.216  0.00  0.00    +0.000 C 
BRANCH   4   5
ATOM      5  C   UNL     1       4.645   3.954  19.310  0.00  0.00    +0.000 C 
ATOM      6  O   UNL     1       4.816   2.951  20.009  0.00  0.00    +0.000 OA
ATOM      7  N   UNL     1       3.567   4.798  19.498  0.00  0.00    +0.000 N 
ATOM      8  N   UNL     1       3.321   5.893  18.707  0.00  0.00    +0.000 NA
ATOM      9  C   UNL     1       2.373   6.548  19.291  0.00  0.00    +0.000 C 
ATOM     10  C   UNL     1       1.960   6.033  20.632  0.00  0.00    +0.000 C 
ATOM     11  C   UNL     1       2.611   4.658  20.594  0.00  0.00    +0.000 C 
BRANCH  11  12
ATOM     12  C   UNL     1       1.601   3.610  20.350  0.00  0.00    +0.000 C 
ATOM     13  N   UNL     1       0.865   2.744  20.113  0.00  0.00    +0.000 NA
ENDBRANCH  11  12
ENDBRANCH   4   5
ENDBRANCH   2   4
ENDBRANCH   1   2
BRANCH   1  14
ATOM     14  C   UNL     1       6.632   6.680  17.429  0.00  0.00    +0.000 C 
BRANCH  14  19
ATOM     15  C   UNL     1       6.153   3.853  13.178  0.00  0.00    +0.000 A 
ATOM     16  C   UNL     1       5.298   4.041  14.257  0.00  0.00    +0.000 A 
ATOM     17  C   UNL     1       5.691   4.885  15.297  0.00  0.00    +0.000 A 
ATOM     18  C   UNL     1       6.926   5.528  15.246  0.00  0.00    +0.000 A 
ATOM     19  N   UNL     1       7.388   6.351  16.239  0.00  0.00    +0.000 N 
ATOM     20  N   UNL     1       7.757   5.354  14.198  0.00  0.00    +0.000 NA
ATOM     21  C   UNL     1       7.360   4.530  13.194  0.00  0.00    +0.000 A 
ATOM     22  H   UNL     1       8.286   6.777  16.047  0.00  0.00    +0.000 HD
BRANCH  15  24
ATOM     23  N   UNL     1       5.522   2.300  11.205  0.00  0.00    +0.000 NA
ATOM     24  C   UNL     1       5.804   2.992  12.093  0.00  0.00    +0.000 C 
ENDBRANCH  15  24
ENDBRANCH  14  19
ENDBRANCH   1  14
TORSDOF 7
ENDMDL
MODEL 8
REMARK VINA RESULT:      -6.3      4.352      8.492
REMARK  Name = 
REMARK  7 active torsions:
REMARK  status: ('A' for Active; 'I' for Inactive)
REMARK    1  A    between atoms: C_2  and  C_3
REMARK    2  A    between atoms: N_7  and  C_8
REMARK    3  A    between atoms: C_8  and  C_9
REMARK    4  A    between atoms: C_9  and  N_10
REMARK    5  A    between atoms: N_10  and  C_11
REMARK    6  A    between atoms: C_11  and  C_12
REMARK    7  A    between atoms: C_18  and  C_19
REMARK                            x       y       z     vdW  Elec       q    Type
REMARK                         _______ _______ _______ _____ _____    ______ ____
ROOT
ATOM      1  C   UNL     1       2.434   5.559  18.794  0.00  0.00    +0.000 C 
ENDROOT
BRANCH   1   2
ATOM      2  N   UNL     1       3.111   4.812  19.864  0.00  0.00    +0.000 NA
ATOM      3  H   UNL     1       2.424   4.337  20.450  0.00  0.00    +0.000 HD
BRANCH   2   4
ATOM      4  C   UNL     1       4.028   3.807  19.308  0.00  0.00    +0.000 C 
BRANCH   4   5
ATOM      5  C   UNL     1       5.371   4.454  18.942  0.00  0.00    +0.000 C 
ATOM      6  O   UNL     1       6.147   4.869  19.808  0.00  0.00    +0.000 OA
ATOM      7  N   UNL     1       5.683   4.509  17.596  0.00  0.00    +0.000 N 
ATOM      8  N   UNL     1       4.823   4.101  16.607  0.00  0.00    +0.000 NA
ATOM      9  C   UNL     1       5.512   4.101  15.514  0.00  0.00    +0.000 C 
ATOM     10  C   UNL     1       6.973   4.381  15.670  0.00  0.00    +0.000 C 
ATOM     11  C   UNL     1       6.981   4.942  17.084  0.00  0.00    +0.000 C 
BRANCH  11  12
ATOM     12  C   UNL     1       7.132   6.409  17.061  0.00  0.00    +0.000 C 
ATOM     13  N   UNL     1       7.190   7.569  17.102  0.00  0.00    +0.000 NA
ENDBRANCH  11  12
ENDBRANCH   4   5
ENDBRANCH   2   4
ENDBRANCH   1   2
BRANCH   1  14
ATOM     14  C   UNL     1       2.450   7.066  19.106  0.00  0.00    +0.000 C 
BRANCH  14  19
ATOM     15  C   UNL     1      -0.137  10.571  21.811  0.00  0.00    +0.000 A 
ATOM     16  C   UNL     1       0.118  10.466  20.449  0.00  0.00    +0.000 A 
ATOM     17  C   UNL     1       0.864   9.385  19.978  0.00  0.00    +0.000 A 
ATOM     18  C   UNL     1       1.342   8.426  20.867  0.00  0.00    +0.000 A 
ATOM     19  N   UNL     1       2.099   7.351  20.482  0.00  0.00    +0.000 N 
ATOM     20  N   UNL     1       1.092   8.518  22.190  0.00  0.00    +0.000 NA
ATOM     21  C   UNL     1       0.366   9.577  22.632  0.00  0.00    +0.000 A 
ATOM     22  H   UNL     1       2.343   6.718  21.233  0.00  0.00    +0.000 HD
BRANCH  15  24
ATOM     23  N   UNL     1      -1.488  12.549  22.791  0.00  0.00    +0.000 NA
ATOM     24  C   UNL     1      -0.885  11.663  22.348  0.00  0.00    +0.000 C 
ENDBRANCH  15  24
ENDBRANCH  14  19
ENDBRANCH   1  14
TORSDOF 7
ENDMDL
MODEL 9
REMARK VINA RESULT:      -6.3      4.565      7.850
REMARK  Name = 
REMARK  7 active torsions:
REMARK  status: ('A' for Active; 'I' for Inactive)
REMARK    1  A    between atoms: C_2  and  C_3
REMARK    2  A    between atoms: N_7  and  C_8
REMARK    3  A    between atoms: C_8  and  C_9
REMARK    4  A    between atoms: C_9  and  N_10
REMARK    5  A    between atoms: N_10  and  C_11
REMARK    6  A    between atoms: C_11  and  C_12
REMARK    7  A    between atoms: C_18  and  C_19
REMARK                            x       y       z     vdW  Elec       q    Type
REMARK                         _______ _______ _______ _____ _____    ______ ____
ROOT
ATOM      1  C   UNL     1       2.955   5.131  20.069  0.00  0.00    +0.000 C 
ENDROOT
BRANCH   1   2
ATOM      2  N   UNL     1       3.165   4.128  19.015  0.00  0.00    +0.000 NA
ATOM      3  H   UNL     1       3.231   4.583  18.104  0.00  0.00    +0.000 HD
BRANCH   2   4
ATOM      4  C   UNL     1       4.399   3.366  19.249  0.00  0.00    +0.000 C 
BRANCH   4   5
ATOM      5  C   UNL     1       5.627   4.214  18.886  0.00  0.00    +0.000 C 
ATOM      6  O   UNL     1       6.386   4.657  19.753  0.00  0.00    +0.000 OA
ATOM      7  N   UNL     1       5.859   4.420  17.539  0.00  0.00    +0.000 N 
ATOM      8  N   UNL     1       5.008   3.984  16.554  0.00  0.00    +0.000 NA
ATOM      9  C   UNL     1       5.634   4.165  15.438  0.00  0.00    +0.000 C 
ATOM     10  C   UNL     1       7.051   4.623  15.557  0.00  0.00    +0.000 C 
ATOM     11  C   UNL     1       7.060   5.063  17.014  0.00  0.00    +0.000 C 
BRANCH  11  12
ATOM     12  C   UNL     1       7.019   6.534  17.114  0.00  0.00    +0.000 C 
ATOM     13  N   UNL     1       7.061   7.695  17.151  0.00  0.00    +0.000 NA
ENDBRANCH  11  12
ENDBRANCH   4   5
ENDBRANCH   2   4
ENDBRANCH   1   2
BRANCH   1  14
ATOM     14  C   UNL     1       2.676   6.509  19.442  0.00  0.00    +0.000 C 
BRANCH  14  19
ATOM     15  C   UNL     1       0.341  11.074  19.418  0.00  0.00    +0.000 A 
ATOM     16  C   UNL     1       0.929  10.337  18.396  0.00  0.00    +0.000 A 
ATOM     17  C   UNL     1       1.501   9.099  18.693  0.00  0.00    +0.000 A 
ATOM     18  C   UNL     1       1.477   8.614  19.999  0.00  0.00    +0.000 A 
ATOM     19  N   UNL     1       2.038   7.420  20.369  0.00  0.00    +0.000 N 
ATOM     20  N   UNL     1       0.902   9.321  20.993  0.00  0.00    +0.000 NA
ATOM     21  C   UNL     1       0.351  10.524  20.688  0.00  0.00    +0.000 A 
ATOM     22  H   UNL     1       1.910   7.180  21.344  0.00  0.00    +0.000 HD
BRANCH  15  24
ATOM     23  N   UNL     1      -0.730  13.389  18.978  0.00  0.00    +0.000 NA
ATOM     24  C   UNL     1      -0.247  12.352  19.171  0.00  0.00    +0.000 C 
ENDBRANCH  15  24
ENDBRANCH  14  19
ENDBRANCH   1  14
TORSDOF 7
ENDMDL
