MODEL 1
REMARK VINA RESULT:      -8.4      0.000      0.000
REMARK  Name = 
REMARK  8 active torsions:
REMARK  status: ('A' for Active; 'I' for Inactive)
REMARK    1  A    between atoms: C_1  and  O_2
REMARK    2  A    between atoms: O_2  and  C_3
REMARK    3  A    between atoms: C_5  and  O_6
REMARK    4  A    between atoms: O_6  and  C_7
REMARK    5  A    between atoms: C_9  and  C_10
REMARK    6  A    between atoms: C_15  and  C_17
REMARK    7  A    between atoms: C_21  and  S_22
REMARK    8  A    between atoms: S_22  and  C_23
REMARK                            x       y       z     vdW  Elec       q    Type
REMARK                         _______ _______ _______ _____ _____    ______ ____
ROOT
ATOM      1  C   UNL     1       3.751   5.371  18.880  0.00  0.00    +0.000 A 
ATOM      2  N   UNL     1       3.309   4.398  19.655  0.00  0.00    +0.000 NA
ATOM      3  N   UNL     1       2.408   4.974  20.527  0.00  0.00    +0.000 NA
ATOM      4  C   UNL     1       2.328   6.243  20.191  0.00  0.00    +0.000 A 
ATOM      5  N   UNL     1       1.548   7.183  20.801  0.00  0.00    +0.000 N 
ATOM      6  C   UNL     1       1.366   8.447  20.289  0.00  0.00    +0.000 C 
ATOM      7  O   UNL     1       1.834   8.869  19.237  0.00  0.00    +0.000 OA
ATOM      8  O   UNL     1       3.159   6.573  19.163  0.00  0.00    +0.000 OA
ATOM      9  H   UNL     1       1.102   6.864  21.646  0.00  0.00    +0.000 HD
ENDROOT
BRANCH   1  14
ATOM     10  C   UNL     1       5.584   4.373  15.733  0.00  0.00    +0.000 A 
ATOM     11  C   UNL     1       6.625   5.303  15.747  0.00  0.00    +0.000 A 
ATOM     12  C   UNL     1       6.743   6.232  16.781  0.00  0.00    +0.000 A 
ATOM     13  C   UNL     1       5.781   6.263  17.789  0.00  0.00    +0.000 A 
ATOM     14  C   UNL     1       4.725   5.336  17.797  0.00  0.00    +0.000 A 
ATOM     15  C   UNL     1       4.636   4.393  16.758  0.00  0.00    +0.000 A 
BRANCH  10  17
ATOM     16  C   UNL     1       6.337   3.890  13.525  0.00  0.00    +0.000 C 
ATOM     17  O   UNL     1       5.618   3.493  14.686  0.00  0.00    +0.000 OA
ENDBRANCH  10  17
BRANCH  12  18
ATOM     18  O   UNL     1       7.818   7.074  16.698  0.00  0.00    +0.000 OA
ATOM     19  C   UNL     1       7.817   8.156  17.625  0.00  0.00    +0.000 C 
ENDBRANCH  12  18
ENDBRANCH   1  14
BRANCH   6  20
ATOM     20  C   UNL     1       0.528   9.374  21.115  0.00  0.00    +0.000 A 
ATOM     21  C   UNL     1       0.431   9.110  22.490  0.00  0.00    +0.000 A 
ATOM     22  C   UNL     1      -0.393   9.883  23.312  0.00  0.00    +0.000 A 
ATOM     23  C   UNL     1      -1.121  10.942  22.770  0.00  0.00    +0.000 A 
ATOM     24  C   UNL     1      -0.988  11.237  21.412  0.00  0.00    +0.000 A 
ATOM     25  C   UNL     1      -0.169  10.464  20.578  0.00  0.00    +0.000 A 
BRANCH  24  26
ATOM     26  S   UNL     1      -1.958  12.554  20.705  0.00  0.00    +0.000 S 
ATOM     27  C   UNL     1      -3.211  12.863  21.920  0.00  0.00    +0.000 C 
ATOM     28  O   UNL     1      -1.098  13.715  20.629  0.00  0.00    +0.000 OA
ATOM     29  O   UNL     1      -2.599  12.021  19.514  0.00  0.00    +0.000 OA
ENDBRANCH  24  26
ENDBRANCH   6  20
TORSDOF 5
ENDMDL
MODEL 2
REMARK VINA RESULT:      -8.2      0.646      2.467
REMARK  Name = 
REMARK  8 active torsions:
REMARK  status: ('A' for Active; 'I' for Inactive)
REMARK    1  A    between atoms: C_1  and  O_2
REMARK    2  A    between atoms: O_2  and  C_3
REMARK    3  A    between atoms: C_5  and  O_6
REMARK    4  A    between atoms: O_6  and  C_7
REMARK    5  A    between atoms: C_9  and  C_10
REMARK    6  A    between atoms: C_15  and  C_17
REMARK    7  A    between atoms: C_21  and  S_22
REMARK    8  A    between atoms: S_22  and  C_23
REMARK                            x       y       z     vdW  Elec       q    Type
REMARK                         _______ _______ _______ _____ _____    ______ ____
ROOT
ATOM      1  C   UNL     1       3.749   5.425  18.994  0.00  0.00    +0.000 A 
ATOM      2  N   UNL     1       3.252   4.457  19.740  0.00  0.00    +0.000 NA
ATOM      3  N   UNL     1       2.320   5.045  20.570  0.00  0.00    +0.000 NA
ATOM      4  C   UNL     1       2.280   6.317  20.240  0.00  0.00    +0.000 A 
ATOM      5  N   UNL     1       1.488   7.269  20.816  0.00  0.00    +0.000 N 
ATOM      6  C   UNL     1       1.356   8.538  20.304  0.00  0.00    +0.000 C 
ATOM      7  O   UNL     1       1.882   8.957  19.279  0.00  0.00    +0.000 OA
ATOM      8  O   UNL     1       3.166   6.637  19.255  0.00  0.00    +0.000 OA
ATOM      9  H   UNL     1       0.996   6.953  21.636  0.00  0.00    +0.000 HD
ENDROOT
BRANCH   1  14
ATOM     10  C   UNL     1       6.783   6.264  16.909  0.00  0.00    +0.000 A 
ATOM     11  C   UNL     1       6.711   5.253  15.948  0.00  0.00    +0.000 A 
ATOM     12  C   UNL     1       5.675   4.321  15.966  0.00  0.00    +0.000 A 
ATOM     13  C   UNL     1       4.723   4.370  16.983  0.00  0.00    +0.000 A 
ATOM     14  C   UNL     1       4.775   5.378  17.959  0.00  0.00    +0.000 A 
ATOM     15  C   UNL     1       5.815   6.323  17.913  0.00  0.00    +0.000 A 
BRANCH  10  17
ATOM     16  C   UNL     1       7.883   8.254  17.620  0.00  0.00    +0.000 C 
ATOM     17  O   UNL     1       7.825   7.135  16.744  0.00  0.00    +0.000 OA
ENDBRANCH  10  17
BRANCH  12  18
ATOM     18  O   UNL     1       5.697   3.394  14.959  0.00  0.00    +0.000 OA
ATOM     19  C   UNL     1       6.168   3.872  13.702  0.00  0.00    +0.000 C 
ENDBRANCH  12  18
ENDBRANCH   1  14
BRANCH   6  20
ATOM     20  C   UNL     1       0.495   9.476  21.093  0.00  0.00    +0.000 A 
ATOM     21  C   UNL     1       0.249   9.156  22.437  0.00  0.00    +0.000 A 
ATOM     22  C   UNL     1      -0.606   9.940  23.216  0.00  0.00    +0.000 A 
ATOM     23  C   UNL     1      -1.215  11.066  22.664  0.00  0.00    +0.000 A 
ATOM     24  C   UNL     1      -0.933  11.415  21.342  0.00  0.00    +0.000 A 
ATOM     25  C   UNL     1      -0.082  10.632  20.550  0.00  0.00    +0.000 A 
BRANCH  24  26
ATOM     26  S   UNL     1      -1.752  12.820  20.616  0.00  0.00    +0.000 S 
ATOM     27  C   UNL     1      -0.956  13.016  19.045  0.00  0.00    +0.000 C 
ATOM     28  O   UNL     1      -3.128  12.433  20.387  0.00  0.00    +0.000 OA
ATOM     29  O   UNL     1      -1.429  13.976  21.438  0.00  0.00    +0.000 OA
ENDBRANCH  24  26
ENDBRANCH   6  20
TORSDOF 5
ENDMDL
MODEL 3
REMARK VINA RESULT:      -8.2      2.961      9.767
REMARK  Name = 
REMARK  8 active torsions:
REMARK  status: ('A' for Active; 'I' for Inactive)
REMARK    1  A    between atoms: C_1  and  O_2
REMARK    2  A    between atoms: O_2  and  C_3
REMARK    3  A    between atoms: C_5  and  O_6
REMARK    4  A    between atoms: O_6  and  C_7
REMARK    5  A    between atoms: C_9  and  C_10
REMARK    6  A    between atoms: C_15  and  C_17
REMARK    7  A    between atoms: C_21  and  S_22
REMARK    8  A    between atoms: S_22  and  C_23
REMARK                            x       y       z     vdW  Elec       q    Type
REMARK                         _______ _______ _______ _____ _____    ______ ____
ROOT
ATOM      1  C   UNL     1       0.188   9.805  20.910  0.00  0.00    +0.000 A 
ATOM      2  N   UNL     1       0.666   9.488  22.097  0.00  0.00    +0.000 NA
ATOM      3  N   UNL     1       1.560   8.456  21.894  0.00  0.00    +0.000 NA
ATOM      4  C   UNL     1       1.598   8.250  20.596  0.00  0.00    +0.000 A 
ATOM      5  N   UNL     1       2.357   7.312  19.957  0.00  0.00    +0.000 N 
ATOM      6  C   UNL     1       2.496   7.271  18.589  0.00  0.00    +0.000 C 
ATOM      7  O   UNL     1       2.005   8.063  17.794  0.00  0.00    +0.000 OA
ATOM      8  O   UNL     1       0.747   9.060  19.905  0.00  0.00    +0.000 OA
ATOM      9  H   UNL     1       2.821   6.667  20.576  0.00  0.00    +0.000 HD
ENDROOT
BRANCH   1  14
ATOM     10  C   UNL     1      -2.163  12.757  21.061  0.00  0.00    +0.000 A 
ATOM     11  C   UNL     1      -2.697  12.715  19.772  0.00  0.00    +0.000 A 
ATOM     12  C   UNL     1      -2.313  11.724  18.869  0.00  0.00    +0.000 A 
ATOM     13  C   UNL     1      -1.347  10.791  19.243  0.00  0.00    +0.000 A 
ATOM     14  C   UNL     1      -0.797  10.812  20.535  0.00  0.00    +0.000 A 
ATOM     15  C   UNL     1      -1.213  11.805  21.439  0.00  0.00    +0.000 A 
BRANCH  10  17
ATOM     16  C   UNL     1      -3.052  13.398  23.176  0.00  0.00    +0.000 C 
ATOM     17  O   UNL     1      -2.663  13.752  21.855  0.00  0.00    +0.000 OA
ENDBRANCH  10  17
BRANCH  12  18
ATOM     18  O   UNL     1      -2.923  11.772  17.645  0.00  0.00    +0.000 OA
ATOM     19  C   UNL     1      -4.319  11.487  17.650  0.00  0.00    +0.000 C 
ENDBRANCH  12  18
ENDBRANCH   1  14
BRANCH   6  20
ATOM     20  C   UNL     1       3.315   6.140  18.049  0.00  0.00    +0.000 A 
ATOM     21  C   UNL     1       2.662   4.921  17.807  0.00  0.00    +0.000 A 
ATOM     22  C   UNL     1       3.373   3.799  17.376  0.00  0.00    +0.000 A 
ATOM     23  C   UNL     1       4.749   3.885  17.166  0.00  0.00    +0.000 A 
ATOM     24  C   UNL     1       5.394   5.108  17.358  0.00  0.00    +0.000 A 
ATOM     25  C   UNL     1       4.690   6.238  17.796  0.00  0.00    +0.000 A 
BRANCH  24  26
ATOM     26  S   UNL     1       7.159   5.208  17.145  0.00  0.00    +0.000 S 
ATOM     27  C   UNL     1       7.534   6.910  17.463  0.00  0.00    +0.000 C 
ATOM     28  O   UNL     1       7.755   4.404  18.192  0.00  0.00    +0.000 OA
ATOM     29  O   UNL     1       7.438   4.933  15.744  0.00  0.00    +0.000 OA
ENDBRANCH  24  26
ENDBRANCH   6  20
TORSDOF 5
ENDMDL
MODEL 4
REMARK VINA RESULT:      -8.1      1.144      1.261
REMARK  Name = 
REMARK  8 active torsions:
REMARK  status: ('A' for Active; 'I' for Inactive)
REMARK    1  A    between atoms: C_1  and  O_2
REMARK    2  A    between atoms: O_2  and  C_3
REMARK    3  A    between atoms: C_5  and  O_6
REMARK    4  A    between atoms: O_6  and  C_7
REMARK    5  A    between atoms: C_9  and  C_10
REMARK    6  A    between atoms: C_15  and  C_17
REMARK    7  A    between atoms: C_21  and  S_22
REMARK    8  A    between atoms: S_22  and  C_23
REMARK                            x       y       z     vdW  Elec       q    Type
REMARK                         _______ _______ _______ _____ _____    ______ ____
ROOT
ATOM      1  C   UNL     1       3.681   5.291  18.755  0.00  0.00    +0.000 A 
ATOM      2  N   UNL     1       3.128   4.295  19.419  0.00  0.00    +0.000 NA
ATOM      3  N   UNL     1       2.244   4.865  20.312  0.00  0.00    +0.000 NA
ATOM      4  C   UNL     1       2.285   6.162  20.096  0.00  0.00    +0.000 A 
ATOM      5  N   UNL     1       1.563   7.108  20.765  0.00  0.00    +0.000 N 
ATOM      6  C   UNL     1       1.510   8.424  20.369  0.00  0.00    +0.000 C 
ATOM      7  O   UNL     1       2.053   8.897  19.378  0.00  0.00    +0.000 OA
ATOM      8  O   UNL     1       3.182   6.511  19.130  0.00  0.00    +0.000 OA
ATOM      9  H   UNL     1       1.059   6.753  21.561  0.00  0.00    +0.000 HD
ENDROOT
BRANCH   1  14
ATOM     10  C   UNL     1       5.694   4.258  15.732  0.00  0.00    +0.000 A 
ATOM     11  C   UNL     1       6.658   5.267  15.718  0.00  0.00    +0.000 A 
ATOM     12  C   UNL     1       6.667   6.263  16.695  0.00  0.00    +0.000 A 
ATOM     13  C   UNL     1       5.671   6.277  17.671  0.00  0.00    +0.000 A 
ATOM     14  C   UNL     1       4.692   5.271  17.704  0.00  0.00    +0.000 A 
ATOM     15  C   UNL     1       4.712   4.263  16.724  0.00  0.00    +0.000 A 
BRANCH  10  17
ATOM     16  C   UNL     1       6.209   3.790  13.453  0.00  0.00    +0.000 C 
ATOM     17  O   UNL     1       5.833   3.323  14.743  0.00  0.00    +0.000 OA
ENDBRANCH  10  17
BRANCH  12  18
ATOM     18  O   UNL     1       7.675   7.182  16.592  0.00  0.00    +0.000 OA
ATOM     19  C   UNL     1       7.916   7.956  17.764  0.00  0.00    +0.000 C 
ENDBRANCH  12  18
ENDBRANCH   1  14
BRANCH   6  20
ATOM     20  C   UNL     1       0.720   9.341  21.251  0.00  0.00    +0.000 A 
ATOM     21  C   UNL     1      -0.071   8.758  22.253  0.00  0.00    +0.000 A 
ATOM     22  C   UNL     1      -0.895   9.542  23.065  0.00  0.00    +0.000 A 
ATOM     23  C   UNL     1      -0.926  10.925  22.894  0.00  0.00    +0.000 A 
ATOM     24  C   UNL     1      -0.104  11.514  21.931  0.00  0.00    +0.000 A 
ATOM     25  C   UNL     1       0.721  10.736  21.108  0.00  0.00    +0.000 A 
BRANCH  24  26
ATOM     26  S   UNL     1      -0.183  13.275  21.673  0.00  0.00    +0.000 S 
ATOM     27  C   UNL     1      -0.769  13.438  20.009  0.00  0.00    +0.000 C 
ATOM     28  O   UNL     1      -1.198  13.786  22.570  0.00  0.00    +0.000 OA
ATOM     29  O   UNL     1       1.181  13.776  21.728  0.00  0.00    +0.000 OA
ENDBRANCH  24  26
ENDBRANCH   6  20
TORSDOF 5
ENDMDL
MODEL 5
REMARK VINA RESULT:      -8.0      2.993      9.531
REMARK  Name = 
REMARK  8 active torsions:
REMARK  status: ('A' for Active; 'I' for Inactive)
REMARK    1  A    between atoms: C_1  and  O_2
REMARK    2  A    between atoms: O_2  and  C_3
REMARK    3  A    between atoms: C_5  and  O_6
REMARK    4  A    between atoms: O_6  and  C_7
REMARK    5  A    between atoms: C_9  and  C_10
REMARK    6  A    between atoms: C_15  and  C_17
REMARK    7  A    between atoms: C_21  and  S_22
REMARK    8  A    between atoms: S_22  and  C_23
REMARK                            x       y       z     vdW  Elec       q    Type
REMARK                         _______ _______ _______ _____ _____    ______ ____
ROOT
ATOM      1  C   UNL     1       0.179   9.816  20.808  0.00  0.00    +0.000 A 
ATOM      2  N   UNL     1       0.680   9.550  21.999  0.00  0.00    +0.000 NA
ATOM      3  N   UNL     1       1.587   8.525  21.820  0.00  0.00    +0.000 NA
ATOM      4  C   UNL     1       1.610   8.274  20.529  0.00  0.00    +0.000 A 
ATOM      5  N   UNL     1       2.375   7.325  19.913  0.00  0.00    +0.000 N 
ATOM      6  C   UNL     1       2.495   7.237  18.546  0.00  0.00    +0.000 C 
ATOM      7  O   UNL     1       1.980   7.992  17.730  0.00  0.00    +0.000 OA
ATOM      8  O   UNL     1       0.736   9.045  19.822  0.00  0.00    +0.000 OA
ATOM      9  H   UNL     1       2.858   6.710  20.548  0.00  0.00    +0.000 HD
ENDROOT
BRANCH   1  14
ATOM     10  C   UNL     1      -2.394  11.698  18.784  0.00  0.00    +0.000 A 
ATOM     11  C   UNL     1      -2.742  12.698  19.693  0.00  0.00    +0.000 A 
ATOM     12  C   UNL     1      -2.131  12.773  20.945  0.00  0.00    +0.000 A 
ATOM     13  C   UNL     1      -1.194  11.808  21.310  0.00  0.00    +0.000 A 
ATOM     14  C   UNL     1      -0.827  10.794  20.411  0.00  0.00    +0.000 A 
ATOM     15  C   UNL     1      -1.437  10.748  19.145  0.00  0.00    +0.000 A 
BRANCH  10  17
ATOM     16  C   UNL     1      -4.460  11.789  17.600  0.00  0.00    +0.000 C 
ATOM     17  O   UNL     1      -3.038  11.772  17.579  0.00  0.00    +0.000 OA
ENDBRANCH  10  17
BRANCH  12  18
ATOM     18  O   UNL     1      -2.538  13.811  21.739  0.00  0.00    +0.000 OA
ATOM     19  C   UNL     1      -1.778  14.000  22.929  0.00  0.00    +0.000 C 
ENDBRANCH  12  18
ENDBRANCH   1  14
BRANCH   6  20
ATOM     20  C   UNL     1       3.325   6.100  18.034  0.00  0.00    +0.000 A 
ATOM     21  C   UNL     1       2.681   4.873  17.814  0.00  0.00    +0.000 A 
ATOM     22  C   UNL     1       3.402   3.746  17.411  0.00  0.00    +0.000 A 
ATOM     23  C   UNL     1       4.779   3.836  17.208  0.00  0.00    +0.000 A 
ATOM     24  C   UNL     1       5.415   5.067  17.379  0.00  0.00    +0.000 A 
ATOM     25  C   UNL     1       4.701   6.202  17.788  0.00  0.00    +0.000 A 
BRANCH  24  26
ATOM     26  S   UNL     1       7.181   5.174  17.174  0.00  0.00    +0.000 S 
ATOM     27  C   UNL     1       7.543   6.886  17.459  0.00  0.00    +0.000 C 
ATOM     28  O   UNL     1       7.775   4.396  18.241  0.00  0.00    +0.000 OA
ATOM     29  O   UNL     1       7.470   4.872  15.781  0.00  0.00    +0.000 OA
ENDBRANCH  24  26
ENDBRANCH   6  20
TORSDOF 5
ENDMDL
MODEL 6
REMARK VINA RESULT:      -8.0      2.925      9.534
REMARK  Name = 
REMARK  8 active torsions:
REMARK  status: ('A' for Active; 'I' for Inactive)
REMARK    1  A    between atoms: C_1  and  O_2
REMARK    2  A    between atoms: O_2  and  C_3
REMARK    3  A    between atoms: C_5  and  O_6
REMARK    4  A    between atoms: O_6  and  C_7
REMARK    5  A    between atoms: C_9  and  C_10
REMARK    6  A    between atoms: C_15  and  C_17
REMARK    7  A    between atoms: C_21  and  S_22
REMARK    8  A    between atoms: S_22  and  C_23
REMARK                            x       y       z     vdW  Elec       q    Type
REMARK                         _______ _______ _______ _____ _____    ______ ____
ROOT
ATOM      1  C   UNL     1       0.213   9.764  20.891  0.00  0.00    +0.000 A 
ATOM      2  N   UNL     1       0.693   9.416  22.070  0.00  0.00    +0.000 NA
ATOM      3  N   UNL     1       1.578   8.384  21.840  0.00  0.00    +0.000 NA
ATOM      4  C   UNL     1       1.611   8.207  20.537  0.00  0.00    +0.000 A 
ATOM      5  N   UNL     1       2.361   7.279  19.875  0.00  0.00    +0.000 N 
ATOM      6  C   UNL     1       2.494   7.267  18.506  0.00  0.00    +0.000 C 
ATOM      7  O   UNL     1       2.006   8.081  17.730  0.00  0.00    +0.000 OA
ATOM      8  O   UNL     1       0.763   9.038  19.868  0.00  0.00    +0.000 OA
ATOM      9  H   UNL     1       2.822   6.617  20.477  0.00  0.00    +0.000 HD
ENDROOT
BRANCH   1  14
ATOM     10  C   UNL     1      -2.327  11.794  18.971  0.00  0.00    +0.000 A 
ATOM     11  C   UNL     1      -2.628  12.775  19.918  0.00  0.00    +0.000 A 
ATOM     12  C   UNL     1      -1.996  12.789  21.161  0.00  0.00    +0.000 A 
ATOM     13  C   UNL     1      -1.086  11.783  21.480  0.00  0.00    +0.000 A 
ATOM     14  C   UNL     1      -0.766  10.786  20.543  0.00  0.00    +0.000 A 
ATOM     15  C   UNL     1      -1.397  10.801  19.287  0.00  0.00    +0.000 A 
BRANCH  10  17
ATOM     16  C   UNL     1      -3.101  10.769  16.964  0.00  0.00    +0.000 C 
ATOM     17  O   UNL     1      -2.987  11.929  17.780  0.00  0.00    +0.000 OA
ENDBRANCH  10  17
BRANCH  12  18
ATOM     18  O   UNL     1      -2.355  13.813  21.994  0.00  0.00    +0.000 OA
ATOM     19  C   UNL     1      -3.523  14.533  21.607  0.00  0.00    +0.000 C 
ENDBRANCH  12  18
ENDBRANCH   1  14
BRANCH   6  20
ATOM     20  C   UNL     1       3.304   6.143  17.937  0.00  0.00    +0.000 A 
ATOM     21  C   UNL     1       2.722   4.866  17.920  0.00  0.00    +0.000 A 
ATOM     22  C   UNL     1       3.442   3.755  17.476  0.00  0.00    +0.000 A 
ATOM     23  C   UNL     1       4.753   3.909  17.028  0.00  0.00    +0.000 A 
ATOM     24  C   UNL     1       5.319   5.185  16.997  0.00  0.00    +0.000 A 
ATOM     25  C   UNL     1       4.607   6.305  17.445  0.00  0.00    +0.000 A 
BRANCH  24  26
ATOM     26  S   UNL     1       7.012   5.378  16.477  0.00  0.00    +0.000 S 
ATOM     27  C   UNL     1       7.000   4.870  14.779  0.00  0.00    +0.000 C 
ATOM     28  O   UNL     1       7.309   6.794  16.530  0.00  0.00    +0.000 OA
ATOM     29  O   UNL     1       7.804   4.422  17.234  0.00  0.00    +0.000 OA
ENDBRANCH  24  26
ENDBRANCH   6  20
TORSDOF 5
ENDMDL
MODEL 7
REMARK VINA RESULT:      -7.9      2.758      4.007
REMARK  Name = 
REMARK  8 active torsions:
REMARK  status: ('A' for Active; 'I' for Inactive)
REMARK    1  A    between atoms: C_1  and  O_2
REMARK    2  A    between atoms: O_2  and  C_3
REMARK    3  A    between atoms: C_5  and  O_6
REMARK    4  A    between atoms: O_6  and  C_7
REMARK    5  A    between atoms: C_9  and  C_10
REMARK    6  A    between atoms: C_15  and  C_17
REMARK    7  A    between atoms: C_21  and  S_22
REMARK    8  A    between atoms: S_22  and  C_23
REMARK                            x       y       z     vdW  Elec       q    Type
REMARK                         _______ _______ _______ _____ _____    ______ ____
ROOT
ATOM      1  C   UNL     1       2.527   7.625  18.132  0.00  0.00    +0.000 A 
ATOM      2  N   UNL     1       2.610   8.510  17.157  0.00  0.00    +0.000 NA
ATOM      3  N   UNL     1       1.992   9.655  17.617  0.00  0.00    +0.000 NA
ATOM      4  C   UNL     1       1.621   9.403  18.853  0.00  0.00    +0.000 A 
ATOM      5  N   UNL     1       0.968  10.269  19.684  0.00  0.00    +0.000 N 
ATOM      6  C   UNL     1       0.774  10.015  21.021  0.00  0.00    +0.000 C 
ATOM      7  O   UNL     1       1.178   9.032  21.631  0.00  0.00    +0.000 OA
ATOM      8  O   UNL     1       1.916   8.133  19.248  0.00  0.00    +0.000 OA
ATOM      9  H   UNL     1       0.660  11.116  19.235  0.00  0.00    +0.000 HD
ENDROOT
BRANCH   1  14
ATOM     10  C   UNL     1       4.770   4.612  18.522  0.00  0.00    +0.000 A 
ATOM     11  C   UNL     1       3.855   3.588  18.275  0.00  0.00    +0.000 A 
ATOM     12  C   UNL     1       2.526   3.874  17.964  0.00  0.00    +0.000 A 
ATOM     13  C   UNL     1       2.095   5.199  17.945  0.00  0.00    +0.000 A 
ATOM     14  C   UNL     1       2.998   6.247  18.189  0.00  0.00    +0.000 A 
ATOM     15  C   UNL     1       4.339   5.940  18.479  0.00  0.00    +0.000 A 
BRANCH  10  17
ATOM     16  C   UNL     1       7.108   4.973  18.233  0.00  0.00    +0.000 C 
ATOM     17  O   UNL     1       6.048   4.190  18.768  0.00  0.00    +0.000 OA
ENDBRANCH  10  17
BRANCH  12  18
ATOM     18  O   UNL     1       1.730   2.788  17.717  0.00  0.00    +0.000 OA
ATOM     19  C   UNL     1       1.202   2.145  18.874  0.00  0.00    +0.000 C 
ENDBRANCH  12  18
ENDBRANCH   1  14
BRANCH   6  20
ATOM     20  C   UNL     1      -0.015  11.042  21.775  0.00  0.00    +0.000 A 
ATOM     21  C   UNL     1      -1.019  10.583  22.641  0.00  0.00    +0.000 A 
ATOM     22  C   UNL     1      -1.848  11.481  23.318  0.00  0.00    +0.000 A 
ATOM     23  C   UNL     1      -1.671  12.853  23.150  0.00  0.00    +0.000 A 
ATOM     24  C   UNL     1      -0.641  13.314  22.328  0.00  0.00    +0.000 A 
ATOM     25  C   UNL     1       0.192  12.422  21.639  0.00  0.00    +0.000 A 
BRANCH  24  26
ATOM     26  S   UNL     1      -0.448  15.066  22.067  0.00  0.00    +0.000 S 
ATOM     27  C   UNL     1       0.282  15.181  20.457  0.00  0.00    +0.000 C 
ATOM     28  O   UNL     1      -1.779  15.631  22.010  0.00  0.00    +0.000 OA
ATOM     29  O   UNL     1       0.522  15.539  23.043  0.00  0.00    +0.000 OA
ENDBRANCH  24  26
ENDBRANCH   6  20
TORSDOF 5
ENDMDL
MODEL 8
REMARK VINA RESULT:      -7.9      1.272      1.530
REMARK  Name = 
REMARK  8 active torsions:
REMARK  status: ('A' for Active; 'I' for Inactive)
REMARK    1  A    between atoms: C_1  and  O_2
REMARK    2  A    between atoms: O_2  and  C_3
REMARK    3  A    between atoms: C_5  and  O_6
REMARK    4  A    between atoms: O_6  and  C_7
REMARK    5  A    between atoms: C_9  and  C_10
REMARK    6  A    between atoms: C_15  and  C_17
REMARK    7  A    between atoms: C_21  and  S_22
REMARK    8  A    between atoms: S_22  and  C_23
REMARK                            x       y       z     vdW  Elec       q    Type
REMARK                         _______ _______ _______ _____ _____    ______ ____
ROOT
ATOM      1  C   UNL     1       3.239   5.069  19.418  0.00  0.00    +0.000 A 
ATOM      2  N   UNL     1       2.544   4.184  20.106  0.00  0.00    +0.000 NA
ATOM      3  N   UNL     1       1.617   4.898  20.836  0.00  0.00    +0.000 NA
ATOM      4  C   UNL     1       1.780   6.161  20.506  0.00  0.00    +0.000 A 
ATOM      5  N   UNL     1       1.065   7.215  20.998  0.00  0.00    +0.000 N 
ATOM      6  C   UNL     1       1.154   8.484  20.478  0.00  0.00    +0.000 C 
ATOM      7  O   UNL     1       1.834   8.819  19.514  0.00  0.00    +0.000 OA
ATOM      8  O   UNL     1       2.797   6.350  19.619  0.00  0.00    +0.000 OA
ATOM      9  H   UNL     1       0.453   6.976  21.762  0.00  0.00    +0.000 HD
ENDROOT
BRANCH   1  14
ATOM     10  C   UNL     1       5.215   4.407  16.269  0.00  0.00    +0.000 A 
ATOM     11  C   UNL     1       6.516   4.501  16.768  0.00  0.00    +0.000 A 
ATOM     12  C   UNL     1       6.748   4.756  18.119  0.00  0.00    +0.000 A 
ATOM     13  C   UNL     1       5.668   4.967  18.974  0.00  0.00    +0.000 A 
ATOM     14  C   UNL     1       4.351   4.876  18.495  0.00  0.00    +0.000 A 
ATOM     15  C   UNL     1       4.136   4.596  17.134  0.00  0.00    +0.000 A 
BRANCH  10  17
ATOM     16  C   UNL     1       6.347   4.118  14.193  0.00  0.00    +0.000 C 
ATOM     17  O   UNL     1       5.135   4.108  14.937  0.00  0.00    +0.000 OA
ENDBRANCH  10  17
BRANCH  12  18
ATOM     18  O   UNL     1       8.063   4.801  18.493  0.00  0.00    +0.000 OA
ATOM     19  C   UNL     1       8.337   5.560  19.667  0.00  0.00    +0.000 C 
ENDBRANCH  12  18
ENDBRANCH   1  14
BRANCH   6  20
ATOM     20  C   UNL     1       0.348   9.536  21.176  0.00  0.00    +0.000 A 
ATOM     21  C   UNL     1       0.051   9.334  22.532  0.00  0.00    +0.000 A 
ATOM     22  C   UNL     1      -0.760  10.231  23.231  0.00  0.00    +0.000 A 
ATOM     23  C   UNL     1      -1.274  11.354  22.583  0.00  0.00    +0.000 A 
ATOM     24  C   UNL     1      -0.941  11.584  21.248  0.00  0.00    +0.000 A 
ATOM     25  C   UNL     1      -0.132  10.687  20.536  0.00  0.00    +0.000 A 
BRANCH  24  26
ATOM     26  S   UNL     1      -1.640  12.988  20.402  0.00  0.00    +0.000 S 
ATOM     27  C   UNL     1      -0.776  13.030  18.855  0.00  0.00    +0.000 C 
ATOM     28  O   UNL     1      -3.029  12.673  20.143  0.00  0.00    +0.000 OA
ATOM     29  O   UNL     1      -1.273  14.172  21.162  0.00  0.00    +0.000 OA
ENDBRANCH  24  26
ENDBRANCH   6  20
TORSDOF 5
ENDMDL
MODEL 9
REMARK VINA RESULT:      -7.9      2.984      9.675
REMARK  Name = 
REMARK  8 active torsions:
REMARK  status: ('A' for Active; 'I' for Inactive)
REMARK    1  A    between atoms: C_1  and  O_2
REMARK    2  A    between atoms: O_2  and  C_3
REMARK    3  A    between atoms: C_5  and  O_6
REMARK    4  A    between atoms: O_6  and  C_7
REMARK    5  A    between atoms: C_9  and  C_10
REMARK    6  A    between atoms: C_15  and  C_17
REMARK    7  A    between atoms: C_21  and  S_22
REMARK    8  A    between atoms: S_22  and  C_23
REMARK                            x       y       z     vdW  Elec       q    Type
REMARK                         _______ _______ _______ _____ _____    ______ ____
ROOT
ATOM      1  C   UNL     1       0.424  10.014  21.036  0.00  0.00    +0.000 A 
ATOM      2  N   UNL     1       0.488   9.323  22.158  0.00  0.00    +0.000 NA
ATOM      3  N   UNL     1       1.174   8.163  21.863  0.00  0.00    +0.000 NA
ATOM      4  C   UNL     1       1.520   8.250  20.597  0.00  0.00    +0.000 A 
ATOM      5  N   UNL     1       2.217   7.311  19.893  0.00  0.00    +0.000 N 
ATOM      6  C   UNL     1       2.710   7.540  18.630  0.00  0.00    +0.000 C 
ATOM      7  O   UNL     1       2.625   8.592  18.006  0.00  0.00    +0.000 OA
ATOM      8  O   UNL     1       1.072   9.391  20.001  0.00  0.00    +0.000 OA
ATOM      9  H   UNL     1       2.354   6.444  20.387  0.00  0.00    +0.000 HD
ENDROOT
BRANCH   1  14
ATOM     10  C   UNL     1      -0.369  13.352  19.459  0.00  0.00    +0.000 A 
ATOM     11  C   UNL     1      -1.408  13.778  20.289  0.00  0.00    +0.000 A 
ATOM     12  C   UNL     1      -1.832  12.997  21.364  0.00  0.00    +0.000 A 
ATOM     13  C   UNL     1      -1.243  11.753  21.584  0.00  0.00    +0.000 A 
ATOM     14  C   UNL     1      -0.196  11.305  20.763  0.00  0.00    +0.000 A 
ATOM     15  C   UNL     1       0.234  12.116  19.698  0.00  0.00    +0.000 A 
BRANCH  10  17
ATOM     16  C   UNL     1      -0.275  15.616  18.721  0.00  0.00    +0.000 C 
ATOM     17  O   UNL     1      -0.026  14.237  18.474  0.00  0.00    +0.000 OA
ENDBRANCH  10  17
BRANCH  12  18
ATOM     18  O   UNL     1      -2.840  13.531  22.120  0.00  0.00    +0.000 OA
ATOM     19  C   UNL     1      -4.040  12.763  22.165  0.00  0.00    +0.000 C 
ENDBRANCH  12  18
ENDBRANCH   1  14
BRANCH   6  20
ATOM     20  C   UNL     1       3.398   6.381  17.975  0.00  0.00    +0.000 A 
ATOM     21  C   UNL     1       2.688   5.174  17.880  0.00  0.00    +0.000 A 
ATOM     22  C   UNL     1       3.289   4.028  17.352  0.00  0.00    +0.000 A 
ATOM     23  C   UNL     1       4.607   4.080  16.898  0.00  0.00    +0.000 A 
ATOM     24  C   UNL     1       5.299   5.291  16.946  0.00  0.00    +0.000 A 
ATOM     25  C   UNL     1       4.707   6.445  17.479  0.00  0.00    +0.000 A 
BRANCH  24  26
ATOM     26  S   UNL     1       6.999   5.348  16.418  0.00  0.00    +0.000 S 
ATOM     27  C   UNL     1       6.952   4.738  14.755  0.00  0.00    +0.000 C 
ATOM     28  O   UNL     1       7.382   6.744  16.384  0.00  0.00    +0.000 OA
ATOM     29  O   UNL     1       7.733   4.394  17.234  0.00  0.00    +0.000 OA
ENDBRANCH  24  26
ENDBRANCH   6  20
TORSDOF 5
ENDMDL
