MODEL 1
REMARK VINA RESULT:      -8.3      0.000      0.000
REMARK  Name = 
REMARK  5 active torsions:
REMARK  status: ('A' for Active; 'I' for Inactive)
REMARK    1  A    between atoms: C_1  and  C_2
REMARK    2  A    between atoms: C_5  and  C_6
REMARK    3  A    between atoms: N_8  and  C_9
REMARK    4  A    between atoms: C_21  and  C_22
REMARK    5  A    between atoms: C_21  and  C_23
REMARK                            x       y       z     vdW  Elec       q    Type
REMARK                         _______ _______ _______ _____ _____    ______ ____
ROOT
ATOM      1  C   UNL     1       3.078   6.971  18.464  0.00  0.00    +0.000 C 
ATOM      2  O   UNL     1       3.417   7.556  17.431  0.00  0.00    +0.000 OA
ATOM      3  N   UNL     1       2.222   7.494  19.426  0.00  0.00    +0.000 N 
ATOM      4  H   UNL     1       2.134   6.970  20.284  0.00  0.00    +0.000 HD
ENDROOT
BRANCH   1   9
ATOM      5  C   UNL     1       3.643   2.141  19.422  0.00  0.00    +0.000 C 
ATOM      6  C   UNL     1       3.896   3.600  19.167  0.00  0.00    +0.000 C 
ATOM      7  C   UNL     1       5.374   4.047  19.305  0.00  0.00    +0.000 C 
ATOM      8  C   UNL     1       5.205   5.555  19.023  0.00  0.00    +0.000 C 
ATOM      9  C   UNL     1       3.670   5.600  18.804  0.00  0.00    +0.000 C 
ATOM     10  C   UNL     1       3.223   4.732  20.015  0.00  0.00    +0.000 C 
ATOM     11 BR   UNL     1       1.406   4.641  20.625  0.00  0.00    +0.000 Br
ATOM     12  C   UNL     1       3.357   4.339  17.857  0.00  0.00    +0.000 C 
ATOM     13  C   UNL     1       1.923   4.077  17.365  0.00  0.00    +0.000 C 
ATOM     14  C   UNL     1       4.226   4.189  16.581  0.00  0.00    +0.000 C 
ENDBRANCH   1   9
BRANCH   3  15
ATOM     15  C   UNL     1       1.549   8.748  19.384  0.00  0.00    +0.000 A 
ATOM     16  C   UNL     1       1.542   9.513  18.209  0.00  0.00    +0.000 A 
ATOM     17  C   UNL     1       0.931  10.762  18.162  0.00  0.00    +0.000 A 
ATOM     18  C   UNL     1       0.309  11.270  19.294  0.00  0.00    +0.000 A 
ATOM     19  C   UNL     1       0.265  10.529  20.479  0.00  0.00    +0.000 A 
ATOM     20  C   UNL     1      -0.376  11.081  21.600  0.00  0.00    +0.000 A 
ATOM     21  C   UNL     1      -0.451  10.384  22.801  0.00  0.00    +0.000 A 
ATOM     22  C   UNL     1       0.114   9.122  22.894  0.00  0.00    +0.000 A 
ATOM     23  C   UNL     1       0.765   8.560  21.787  0.00  0.00    +0.000 A 
ATOM     24  C   UNL     1       0.870   9.242  20.547  0.00  0.00    +0.000 A 
ENDBRANCH   3  15
TORSDOF 2
ENDMDL
MODEL 2
REMARK VINA RESULT:      -7.9      1.920      6.850
REMARK  Name = 
REMARK  5 active torsions:
REMARK  status: ('A' for Active; 'I' for Inactive)
REMARK    1  A    between atoms: C_1  and  C_2
REMARK    2  A    between atoms: C_5  and  C_6
REMARK    3  A    between atoms: N_8  and  C_9
REMARK    4  A    between atoms: C_21  and  C_22
REMARK    5  A    between atoms: C_21  and  C_23
REMARK                            x       y       z     vdW  Elec       q    Type
REMARK                         _______ _______ _______ _____ _____    ______ ____
ROOT
ATOM      1  C   UNL     1       1.432   9.568  18.478  0.00  0.00    +0.000 C 
ATOM      2  O   UNL     1       2.174  10.089  17.641  0.00  0.00    +0.000 OA
ATOM      3  N   UNL     1       1.560   8.268  18.951  0.00  0.00    +0.000 N 
ATOM      4  H   UNL     1       0.810   7.923  19.531  0.00  0.00    +0.000 HD
ENDROOT
BRANCH   1   9
ATOM      5  C   UNL     1      -1.614  12.273  21.303  0.00  0.00    +0.000 C 
ATOM      6  C   UNL     1      -1.018  11.477  20.176  0.00  0.00    +0.000 C 
ATOM      7  C   UNL     1      -1.964  11.228  18.974  0.00  0.00    +0.000 C 
ATOM      8  C   UNL     1      -1.028  10.372  18.095  0.00  0.00    +0.000 C 
ATOM      9  C   UNL     1       0.219  10.333  19.017  0.00  0.00    +0.000 C 
ATOM     10  C   UNL     1      -0.483  10.018  20.368  0.00  0.00    +0.000 C 
ATOM     11 BR   UNL     1       0.467   9.450  21.935  0.00  0.00    +0.000 Br
ATOM     12  C   UNL     1       0.393  11.849  19.528  0.00  0.00    +0.000 C 
ATOM     13  C   UNL     1       1.577  12.229  20.434  0.00  0.00    +0.000 C 
ATOM     14  C   UNL     1       0.377  12.958  18.444  0.00  0.00    +0.000 C 
ENDBRANCH   1   9
BRANCH   3  15
ATOM     15  C   UNL     1       2.573   7.328  18.608  0.00  0.00    +0.000 A 
ATOM     16  C   UNL     1       3.491   7.611  17.588  0.00  0.00    +0.000 A 
ATOM     17  C   UNL     1       4.458   6.686  17.207  0.00  0.00    +0.000 A 
ATOM     18  C   UNL     1       4.527   5.456  17.845  0.00  0.00    +0.000 A 
ATOM     19  C   UNL     1       3.651   5.141  18.889  0.00  0.00    +0.000 A 
ATOM     20  C   UNL     1       3.757   3.885  19.509  0.00  0.00    +0.000 A 
ATOM     21  C   UNL     1       2.913   3.525  20.554  0.00  0.00    +0.000 A 
ATOM     22  C   UNL     1       1.952   4.422  20.994  0.00  0.00    +0.000 A 
ATOM     23  C   UNL     1       1.827   5.676  20.382  0.00  0.00    +0.000 A 
ATOM     24  C   UNL     1       2.664   6.078  19.307  0.00  0.00    +0.000 A 
ENDBRANCH   3  15
TORSDOF 2
ENDMDL
MODEL 3
REMARK VINA RESULT:      -7.8      1.488      2.320
REMARK  Name = 
REMARK  5 active torsions:
REMARK  status: ('A' for Active; 'I' for Inactive)
REMARK    1  A    between atoms: C_1  and  C_2
REMARK    2  A    between atoms: C_5  and  C_6
REMARK    3  A    between atoms: N_8  and  C_9
REMARK    4  A    between atoms: C_21  and  C_22
REMARK    5  A    between atoms: C_21  and  C_23
REMARK                            x       y       z     vdW  Elec       q    Type
REMARK                         _______ _______ _______ _____ _____    ______ ____
ROOT
ATOM      1  C   UNL     1       2.876   6.549  18.111  0.00  0.00    +0.000 C 
ATOM      2  O   UNL     1       3.897   7.099  17.686  0.00  0.00    +0.000 OA
ATOM      3  N   UNL     1       1.796   7.213  18.680  0.00  0.00    +0.000 N 
ATOM      4  H   UNL     1       1.087   6.636  19.108  0.00  0.00    +0.000 HD
ENDROOT
BRANCH   1   9
ATOM      5  C   UNL     1       3.927   1.705  18.177  0.00  0.00    +0.000 C 
ATOM      6  C   UNL     1       3.210   3.025  18.169  0.00  0.00    +0.000 C 
ATOM      7  C   UNL     1       1.664   2.935  18.103  0.00  0.00    +0.000 C 
ATOM      8  C   UNL     1       1.328   4.440  18.066  0.00  0.00    +0.000 C 
ATOM      9  C   UNL     1       2.766   5.021  18.109  0.00  0.00    +0.000 C 
ATOM     10  C   UNL     1       3.436   4.099  17.051  0.00  0.00    +0.000 C 
ATOM     11 BR   UNL     1       5.156   4.462  16.282  0.00  0.00    +0.000 Br
ATOM     12  C   UNL     1       3.516   4.165  19.245  0.00  0.00    +0.000 C 
ATOM     13  C   UNL     1       4.972   4.489  19.625  0.00  0.00    +0.000 C 
ATOM     14  C   UNL     1       2.792   4.029  20.610  0.00  0.00    +0.000 C 
ENDBRANCH   1   9
BRANCH   3  15
ATOM     15  C   UNL     1       1.639   8.620  18.833  0.00  0.00    +0.000 A 
ATOM     16  C   UNL     1       2.091   9.499  17.839  0.00  0.00    +0.000 A 
ATOM     17  C   UNL     1       1.990  10.877  17.992  0.00  0.00    +0.000 A 
ATOM     18  C   UNL     1       1.428  11.405  19.146  0.00  0.00    +0.000 A 
ATOM     19  C   UNL     1       0.936  10.566  20.151  0.00  0.00    +0.000 A 
ATOM     20  C   UNL     1       0.374  11.143  21.301  0.00  0.00    +0.000 A 
ATOM     21  C   UNL     1      -0.133  10.353  22.328  0.00  0.00    +0.000 A 
ATOM     22  C   UNL     1      -0.085   8.973  22.212  0.00  0.00    +0.000 A 
ATOM     23  C   UNL     1       0.479   8.381  21.075  0.00  0.00    +0.000 A 
ATOM     24  C   UNL     1       1.015   9.152  20.010  0.00  0.00    +0.000 A 
ENDBRANCH   3  15
TORSDOF 2
ENDMDL
MODEL 4
REMARK VINA RESULT:      -7.7      1.586      2.416
REMARK  Name = 
REMARK  5 active torsions:
REMARK  status: ('A' for Active; 'I' for Inactive)
REMARK    1  A    between atoms: C_1  and  C_2
REMARK    2  A    between atoms: C_5  and  C_6
REMARK    3  A    between atoms: N_8  and  C_9
REMARK    4  A    between atoms: C_21  and  C_22
REMARK    5  A    between atoms: C_21  and  C_23
REMARK                            x       y       z     vdW  Elec       q    Type
REMARK                         _______ _______ _______ _____ _____    ______ ____
ROOT
ATOM      1  C   UNL     1       2.016   5.394  18.279  0.00  0.00    +0.000 C 
ATOM      2  O   UNL     1       1.160   5.469  17.392  0.00  0.00    +0.000 OA
ATOM      3  N   UNL     1       2.506   6.477  19.000  0.00  0.00    +0.000 N 
ATOM      4  H   UNL     1       3.297   6.297  19.600  0.00  0.00    +0.000 HD
ENDROOT
BRANCH   1   9
ATOM      5  C   UNL     1       4.702   1.802  20.388  0.00  0.00    +0.000 C 
ATOM      6  C   UNL     1       3.764   2.569  19.499  0.00  0.00    +0.000 C 
ATOM      7  C   UNL     1       3.146   1.754  18.334  0.00  0.00    +0.000 C 
ATOM      8  C   UNL     1       2.319   2.870  17.662  0.00  0.00    +0.000 C 
ATOM      9  C   UNL     1       2.677   4.051  18.602  0.00  0.00    +0.000 C 
ATOM     10  C   UNL     1       4.215   3.835  18.695  0.00  0.00    +0.000 C 
ATOM     11 BR   UNL     1       5.417   5.151  19.404  0.00  0.00    +0.000 Br
ATOM     12  C   UNL     1       2.560   3.440  20.085  0.00  0.00    +0.000 C 
ATOM     13  C   UNL     1       2.791   4.337  21.313  0.00  0.00    +0.000 C 
ATOM     14  C   UNL     1       1.258   2.667  20.422  0.00  0.00    +0.000 C 
ENDBRANCH   1   9
BRANCH   3  15
ATOM     15  C   UNL     1       2.093   7.835  18.893  0.00  0.00    +0.000 A 
ATOM     16  C   UNL     1       2.379   8.577  17.739  0.00  0.00    +0.000 A 
ATOM     17  C   UNL     1       2.025   9.918  17.636  0.00  0.00    +0.000 A 
ATOM     18  C   UNL     1       1.373  10.544  18.688  0.00  0.00    +0.000 A 
ATOM     19  C   UNL     1       1.041   9.836  19.847  0.00  0.00    +0.000 A 
ATOM     20  C   UNL     1       0.379  10.508  20.888  0.00  0.00    +0.000 A 
ATOM     21  C   UNL     1       0.024   9.849  22.059  0.00  0.00    +0.000 A 
ATOM     22  C   UNL     1       0.324   8.503  22.201  0.00  0.00    +0.000 A 
ATOM     23  C   UNL     1       0.991   7.819  21.177  0.00  0.00    +0.000 A 
ATOM     24  C   UNL     1       1.379   8.458  19.970  0.00  0.00    +0.000 A 
ENDBRANCH   3  15
TORSDOF 2
ENDMDL
MODEL 5
REMARK VINA RESULT:      -7.7      1.872      6.944
REMARK  Name = 
REMARK  5 active torsions:
REMARK  status: ('A' for Active; 'I' for Inactive)
REMARK    1  A    between atoms: C_1  and  C_2
REMARK    2  A    between atoms: C_5  and  C_6
REMARK    3  A    between atoms: N_8  and  C_9
REMARK    4  A    between atoms: C_21  and  C_22
REMARK    5  A    between atoms: C_21  and  C_23
REMARK                            x       y       z     vdW  Elec       q    Type
REMARK                         _______ _______ _______ _____ _____    ______ ____
ROOT
ATOM      1  C   UNL     1       1.701   9.302  18.189  0.00  0.00    +0.000 C 
ATOM      2  O   UNL     1       2.442   9.952  17.447  0.00  0.00    +0.000 OA
ATOM      3  N   UNL     1       1.835   7.943  18.450  0.00  0.00    +0.000 N 
ATOM      4  H   UNL     1       1.085   7.507  18.965  0.00  0.00    +0.000 HD
ENDROOT
BRANCH   1   9
ATOM      5  C   UNL     1      -1.315  11.662  21.336  0.00  0.00    +0.000 C 
ATOM      6  C   UNL     1      -0.744  10.968  20.132  0.00  0.00    +0.000 C 
ATOM      7  C   UNL     1      -1.742  10.741  18.968  0.00  0.00    +0.000 C 
ATOM      8  C   UNL     1      -0.815   9.991  17.988  0.00  0.00    +0.000 C 
ATOM      9  C   UNL     1       0.483   9.966  18.838  0.00  0.00    +0.000 C 
ATOM     10  C   UNL     1      -0.125   9.531  20.202  0.00  0.00    +0.000 C 
ATOM     11 BR   UNL     1       0.940   8.923  21.678  0.00  0.00    +0.000 Br
ATOM     12  C   UNL     1       0.608  11.455  19.433  0.00  0.00    +0.000 C 
ATOM     13  C   UNL     1       1.820  11.843  20.298  0.00  0.00    +0.000 C 
ATOM     14  C   UNL     1       0.474  12.624  18.424  0.00  0.00    +0.000 C 
ENDBRANCH   1   9
BRANCH   3  15
ATOM     15  C   UNL     1       2.853   7.074  17.965  0.00  0.00    +0.000 A 
ATOM     16  C   UNL     1       4.046   7.595  17.446  0.00  0.00    +0.000 A 
ATOM     17  C   UNL     1       5.033   6.765  16.925  0.00  0.00    +0.000 A 
ATOM     18  C   UNL     1       4.845   5.390  16.916  0.00  0.00    +0.000 A 
ATOM     19  C   UNL     1       3.684   4.823  17.450  0.00  0.00    +0.000 A 
ATOM     20  C   UNL     1       3.535   3.427  17.423  0.00  0.00    +0.000 A 
ATOM     21  C   UNL     1       2.402   2.813  17.945  0.00  0.00    +0.000 A 
ATOM     22  C   UNL     1       1.402   3.592  18.505  0.00  0.00    +0.000 A 
ATOM     23  C   UNL     1       1.530   4.987  18.534  0.00  0.00    +0.000 A 
ATOM     24  C   UNL     1       2.667   5.652  18.004  0.00  0.00    +0.000 A 
ENDBRANCH   3  15
TORSDOF 2
ENDMDL
MODEL 6
REMARK VINA RESULT:      -7.6      1.996      6.621
REMARK  Name = 
REMARK  5 active torsions:
REMARK  status: ('A' for Active; 'I' for Inactive)
REMARK    1  A    between atoms: C_1  and  C_2
REMARK    2  A    between atoms: C_5  and  C_6
REMARK    3  A    between atoms: N_8  and  C_9
REMARK    4  A    between atoms: C_21  and  C_22
REMARK    5  A    between atoms: C_21  and  C_23
REMARK                            x       y       z     vdW  Elec       q    Type
REMARK                         _______ _______ _______ _____ _____    ______ ____
ROOT
ATOM      1  C   UNL     1       1.441   9.027  18.690  0.00  0.00    +0.000 C 
ATOM      2  O   UNL     1       1.211   9.036  17.477  0.00  0.00    +0.000 OA
ATOM      3  N   UNL     1       2.134   8.024  19.357  0.00  0.00    +0.000 N 
ATOM      4  H   UNL     1       2.136   8.071  20.365  0.00  0.00    +0.000 HD
ENDROOT
BRANCH   1   9
ATOM      5  C   UNL     1      -1.488  11.751  21.617  0.00  0.00    +0.000 C 
ATOM      6  C   UNL     1      -0.322  11.234  20.822  0.00  0.00    +0.000 C 
ATOM      7  C   UNL     1       0.925  12.155  20.806  0.00  0.00    +0.000 C 
ATOM      8  C   UNL     1       1.838  11.321  19.883  0.00  0.00    +0.000 C 
ATOM      9  C   UNL     1       0.884  10.134  19.590  0.00  0.00    +0.000 C 
ATOM     10  C   UNL     1      -0.417  10.932  19.289  0.00  0.00    +0.000 C 
ATOM     11 BR   UNL     1      -1.965  10.144  18.473  0.00  0.00    +0.000 Br
ATOM     12  C   UNL     1       0.252   9.757  21.021  0.00  0.00    +0.000 C 
ATOM     13  C   UNL     1      -0.717   8.569  21.151  0.00  0.00    +0.000 C 
ATOM     14  C   UNL     1       1.247   9.562  22.194  0.00  0.00    +0.000 C 
ENDBRANCH   1   9
BRANCH   3  15
ATOM     15  C   UNL     1       2.739   6.871  18.781  0.00  0.00    +0.000 A 
ATOM     16  C   UNL     1       3.682   7.001  17.752  0.00  0.00    +0.000 A 
ATOM     17  C   UNL     1       4.248   5.885  17.144  0.00  0.00    +0.000 A 
ATOM     18  C   UNL     1       3.883   4.612  17.559  0.00  0.00    +0.000 A 
ATOM     19  C   UNL     1       2.968   4.435  18.602  0.00  0.00    +0.000 A 
ATOM     20  C   UNL     1       2.628   3.129  18.991  0.00  0.00    +0.000 A 
ATOM     21  C   UNL     1       1.727   2.898  20.025  0.00  0.00    +0.000 A 
ATOM     22  C   UNL     1       1.157   3.974  20.685  0.00  0.00    +0.000 A 
ATOM     23  C   UNL     1       1.479   5.284  20.305  0.00  0.00    +0.000 A 
ATOM     24  C   UNL     1       2.388   5.561  19.249  0.00  0.00    +0.000 A 
ENDBRANCH   3  15
TORSDOF 2
ENDMDL
MODEL 7
REMARK VINA RESULT:      -7.5      1.747      3.228
REMARK  Name = 
REMARK  5 active torsions:
REMARK  status: ('A' for Active; 'I' for Inactive)
REMARK    1  A    between atoms: C_1  and  C_2
REMARK    2  A    between atoms: C_5  and  C_6
REMARK    3  A    between atoms: N_8  and  C_9
REMARK    4  A    between atoms: C_21  and  C_22
REMARK    5  A    between atoms: C_21  and  C_23
REMARK                            x       y       z     vdW  Elec       q    Type
REMARK                         _______ _______ _______ _____ _____    ______ ____
ROOT
ATOM      1  C   UNL     1       2.201   5.924  19.817  0.00  0.00    +0.000 C 
ATOM      2  O   UNL     1       1.901   5.421  20.904  0.00  0.00    +0.000 OA
ATOM      3  N   UNL     1       1.985   7.253  19.473  0.00  0.00    +0.000 N 
ATOM      4  H   UNL     1       2.152   7.502  18.510  0.00  0.00    +0.000 HD
ENDROOT
BRANCH   1   9
ATOM      5  C   UNL     1       5.223   3.927  16.434  0.00  0.00    +0.000 C 
ATOM      6  C   UNL     1       4.052   4.218  17.329  0.00  0.00    +0.000 C 
ATOM      7  C   UNL     1       2.807   3.324  17.096  0.00  0.00    +0.000 C 
ATOM      8  C   UNL     1       1.853   3.950  18.136  0.00  0.00    +0.000 C 
ATOM      9  C   UNL     1       2.785   5.055  18.699  0.00  0.00    +0.000 C 
ATOM     10  C   UNL     1       3.343   5.614  17.360  0.00  0.00    +0.000 C 
ATOM     11 BR   UNL     1       4.297   7.274  17.233  0.00  0.00    +0.000 Br
ATOM     12  C   UNL     1       4.200   4.322  18.916  0.00  0.00    +0.000 C 
ATOM     13  C   UNL     1       5.385   5.091  19.526  0.00  0.00    +0.000 C 
ATOM     14  C   UNL     1       4.181   2.980  19.694  0.00  0.00    +0.000 C 
ENDBRANCH   1   9
BRANCH   3  15
ATOM     15  C   UNL     1       1.438   8.275  20.301  0.00  0.00    +0.000 A 
ATOM     16  C   UNL     1       1.694   8.288  21.679  0.00  0.00    +0.000 A 
ATOM     17  C   UNL     1       1.131   9.250  22.510  0.00  0.00    +0.000 A 
ATOM     18  C   UNL     1       0.300  10.224  21.976  0.00  0.00    +0.000 A 
ATOM     19  C   UNL     1       0.040  10.268  20.603  0.00  0.00    +0.000 A 
ATOM     20  C   UNL     1      -0.806  11.272  20.104  0.00  0.00    +0.000 A 
ATOM     21  C   UNL     1      -1.093  11.362  18.747  0.00  0.00    +0.000 A 
ATOM     22  C   UNL     1      -0.533  10.448  17.869  0.00  0.00    +0.000 A 
ATOM     23  C   UNL     1       0.307   9.435  18.350  0.00  0.00    +0.000 A 
ATOM     24  C   UNL     1       0.618   9.304  19.730  0.00  0.00    +0.000 A 
ENDBRANCH   3  15
TORSDOF 2
ENDMDL
MODEL 8
REMARK VINA RESULT:      -7.5      1.275      2.135
REMARK  Name = 
REMARK  5 active torsions:
REMARK  status: ('A' for Active; 'I' for Inactive)
REMARK    1  A    between atoms: C_1  and  C_2
REMARK    2  A    between atoms: C_5  and  C_6
REMARK    3  A    between atoms: N_8  and  C_9
REMARK    4  A    between atoms: C_21  and  C_22
REMARK    5  A    between atoms: C_21  and  C_23
REMARK                            x       y       z     vdW  Elec       q    Type
REMARK                         _______ _______ _______ _____ _____    ______ ____
ROOT
ATOM      1  C   UNL     1       2.653   6.775  18.391  0.00  0.00    +0.000 C 
ATOM      2  O   UNL     1       3.568   7.377  17.820  0.00  0.00    +0.000 OA
ATOM      3  N   UNL     1       1.616   7.386  19.086  0.00  0.00    +0.000 N 
ATOM      4  H   UNL     1       1.012   6.778  19.618  0.00  0.00    +0.000 HD
ENDROOT
BRANCH   1   9
ATOM      5  C   UNL     1       3.484   2.052  19.642  0.00  0.00    +0.000 C 
ATOM      6  C   UNL     1       2.972   3.300  18.981  0.00  0.00    +0.000 C 
ATOM      7  C   UNL     1       2.025   3.066  17.776  0.00  0.00    +0.000 C 
ATOM      8  C   UNL     1       1.773   4.533  17.370  0.00  0.00    +0.000 C 
ATOM      9  C   UNL     1       2.647   5.244  18.436  0.00  0.00    +0.000 C 
ATOM     10  C   UNL     1       3.924   4.363  18.336  0.00  0.00    +0.000 C 
ATOM     11 BR   UNL     1       5.607   4.864  19.109  0.00  0.00    +0.000 Br
ATOM     12  C   UNL     1       2.303   4.488  19.813  0.00  0.00    +0.000 C 
ATOM     13  C   UNL     1       2.942   4.954  21.133  0.00  0.00    +0.000 C 
ATOM     14  C   UNL     1       0.801   4.318  20.161  0.00  0.00    +0.000 C 
ENDBRANCH   1   9
BRANCH   3  15
ATOM     15  C   UNL     1       1.387   8.784  19.229  0.00  0.00    +0.000 A 
ATOM     16  C   UNL     1       1.796   9.678  18.231  0.00  0.00    +0.000 A 
ATOM     17  C   UNL     1       1.623  11.051  18.374  0.00  0.00    +0.000 A 
ATOM     18  C   UNL     1       1.031  11.557  19.522  0.00  0.00    +0.000 A 
ATOM     19  C   UNL     1       0.580  10.700  20.531  0.00  0.00    +0.000 A 
ATOM     20  C   UNL     1      -0.015  11.255  21.677  0.00  0.00    +0.000 A 
ATOM     21  C   UNL     1      -0.484  10.447  22.707  0.00  0.00    +0.000 A 
ATOM     22  C   UNL     1      -0.365   9.070  22.601  0.00  0.00    +0.000 A 
ATOM     23  C   UNL     1       0.233   8.501  21.469  0.00  0.00    +0.000 A 
ATOM     24  C   UNL     1       0.732   9.291  20.401  0.00  0.00    +0.000 A 
ENDBRANCH   3  15
TORSDOF 2
ENDMDL
MODEL 9
REMARK VINA RESULT:      -7.5      1.504      2.708
REMARK  Name = 
REMARK  5 active torsions:
REMARK  status: ('A' for Active; 'I' for Inactive)
REMARK    1  A    between atoms: C_1  and  C_2
REMARK    2  A    between atoms: C_5  and  C_6
REMARK    3  A    between atoms: N_8  and  C_9
REMARK    4  A    between atoms: C_21  and  C_22
REMARK    5  A    between atoms: C_21  and  C_23
REMARK                            x       y       z     vdW  Elec       q    Type
REMARK                         _______ _______ _______ _____ _____    ______ ____
ROOT
ATOM      1  C   UNL     1       1.659   5.867  20.462  0.00  0.00    +0.000 C 
ATOM      2  O   UNL     1       0.502   5.500  20.691  0.00  0.00    +0.000 OA
ATOM      3  N   UNL     1       2.114   7.175  20.586  0.00  0.00    +0.000 N 
ATOM      4  H   UNL     1       3.043   7.363  20.239  0.00  0.00    +0.000 HD
ENDROOT
BRANCH   1   9
ATOM      5  C   UNL     1       3.920   1.751  18.878  0.00  0.00    +0.000 C 
ATOM      6  C   UNL     1       3.606   3.173  19.247  0.00  0.00    +0.000 C 
ATOM      7  C   UNL     1       4.781   4.171  19.082  0.00  0.00    +0.000 C 
ATOM      8  C   UNL     1       4.090   5.454  19.589  0.00  0.00    +0.000 C 
ATOM      9  C   UNL     1       2.693   4.872  19.929  0.00  0.00    +0.000 C 
ATOM     10  C   UNL     1       3.139   3.587  20.683  0.00  0.00    +0.000 C 
ATOM     11 BR   UNL     1       1.942   2.523  21.739  0.00  0.00    +0.000 Br
ATOM     12  C   UNL     1       2.326   3.937  18.672  0.00  0.00    +0.000 C 
ATOM     13  C   UNL     1       0.968   3.217  18.613  0.00  0.00    +0.000 C 
ATOM     14  C   UNL     1       2.482   4.567  17.263  0.00  0.00    +0.000 C 
ENDBRANCH   1   9
BRANCH   3  15
ATOM     15  C   UNL     1       1.370   8.303  21.034  0.00  0.00    +0.000 A 
ATOM     16  C   UNL     1       1.203   8.547  22.404  0.00  0.00    +0.000 A 
ATOM     17  C   UNL     1       0.441   9.616  22.861  0.00  0.00    +0.000 A 
ATOM     18  C   UNL     1      -0.170  10.468  21.952  0.00  0.00    +0.000 A 
ATOM     19  C   UNL     1      -0.007  10.281  20.576  0.00  0.00    +0.000 A 
ATOM     20  C   UNL     1      -0.642  11.168  19.690  0.00  0.00    +0.000 A 
ATOM     21  C   UNL     1      -0.508  11.028  18.313  0.00  0.00    +0.000 A 
ATOM     22  C   UNL     1       0.267   9.998  17.805  0.00  0.00    +0.000 A 
ATOM     23  C   UNL     1       0.900   9.099  18.673  0.00  0.00    +0.000 A 
ATOM     24  C   UNL     1       0.782   9.203  20.084  0.00  0.00    +0.000 A 
ENDBRANCH   3  15
TORSDOF 2
ENDMDL
