MODEL 1
REMARK VINA RESULT:      -8.2      0.000      0.000
REMARK  Name = 
REMARK  11 active torsions:
REMARK  status: ('A' for Active; 'I' for Inactive)
REMARK    1  A    between atoms: N_1  and  C_2
REMARK    2  A    between atoms: C_2  and  C_3
REMARK    3  A    between atoms: C_3  and  N_4
REMARK    4  A    between atoms: C_3  and  C_23
REMARK    5  A    between atoms: C_5  and  C_7
REMARK    6  A    between atoms: C_10  and  C_11
REMARK    7  A    between atoms: C_14  and  C_15
REMARK    8  A    between atoms: CA_25  and  C_26
REMARK    9  A    between atoms: C_26  and  O_27
REMARK   10  A    between atoms: C_28  and  C_29
REMARK   11  A    between atoms: C_29  and  O_30
REMARK                            x       y       z     vdW  Elec       q    Type
REMARK                         _______ _______ _______ _____ _____    ______ ____
ROOT
ATOM      1  N   UNL     1       5.574   5.547  18.377  0.00  0.00    +0.000 N 
ATOM      2  C   UNL     1       4.960   4.694  19.262  0.00  0.00    +0.000 C 
ATOM      3  O   UNL     1       5.481   3.644  19.640  0.00  0.00    +0.000 OA
ATOM      4  H   UNL     1       5.140   6.422  18.128  0.00  0.00    +0.000 HD
ENDROOT
BRANCH   2   5
ATOM      5  C   UNL     1       3.632   5.094  19.680  0.00  0.00    +0.000 A 
ATOM      6  C   UNL     1       2.543   4.371  20.135  0.00  0.00    +0.000 A 
ATOM      7  C   UNL     1       1.516   5.286  20.470  0.00  0.00    +0.000 A 
ATOM      8  C   UNL     1       1.969   6.567  20.204  0.00  0.00    +0.000 A 
ATOM      9  N   UNL     1       3.248   6.420  19.704  0.00  0.00    +0.000 N 
ATOM     10  H   UNL     1       3.864   7.177  19.437  0.00  0.00    +0.000 HD
BRANCH   8  11
ATOM     11  C   UNL     1       1.321   7.865  20.412  0.00  0.00    +0.000 A 
ATOM     12  C   UNL     1       1.420   8.893  19.464  0.00  0.00    +0.000 A 
ATOM     13  C   UNL     1       0.818  10.138  19.689  0.00  0.00    +0.000 A 
ATOM     14  C   UNL     1       0.101  10.381  20.869  0.00  0.00    +0.000 A 
ATOM     15  C   UNL     1      -0.012   9.349  21.795  0.00  0.00    +0.000 A 
ATOM     16  F   UNL     1      -0.698   9.544  22.930  0.00  0.00    +0.000 F 
ATOM     17  C   UNL     1       0.583   8.107  21.578  0.00  0.00    +0.000 A 
BRANCH  14  18
ATOM     18  C   UNL     1      -0.535  11.706  21.161  0.00  0.00    +0.000 C 
ATOM     19  F   UNL     1      -0.082  12.269  22.320  0.00  0.00    +0.000 F 
ATOM     20  F   UNL     1      -0.308  12.635  20.193  0.00  0.00    +0.000 F 
ATOM     21  F   UNL     1      -1.887  11.625  21.304  0.00  0.00    +0.000 F 
ENDBRANCH  14  18
ENDBRANCH   8  11
ENDBRANCH   2   5
BRANCH   1  22
ATOM     22  C   UNL     1       6.899   5.292  17.831  0.00  0.00    +0.000 C 
BRANCH  22  23
ATOM     23  C   UNL     1       6.756   5.005  16.348  0.00  0.00    +0.000 A 
ATOM     24  N   UNL     1       7.566   5.437  15.395  0.00  0.00    +0.000 NA
ATOM     25  CA  UNL     1       7.130   4.972  14.150  0.00  0.00    +0.000 A 
ATOM     26  C   UNL     1       5.966   4.221  14.184  0.00  0.00    +0.000 A 
ATOM     27  S   UNL     1       5.429   4.054  15.800  0.00  0.00    +0.000 S 
BRANCH  25  28
ATOM     28  C   UNL     1       7.914   5.327  12.918  0.00  0.00    +0.000 C 
BRANCH  28  29
ATOM     29  O   UNL     1       9.083   6.088  13.218  0.00  0.00    +0.000 OA
ATOM     30  H   UNL     1       8.780   7.014  13.243  0.00  0.00    +0.000 HD
ENDBRANCH  28  29
ENDBRANCH  25  28
BRANCH  26  31
ATOM     31  C   UNL     1       5.218   3.586  13.064  0.00  0.00    +0.000 C 
BRANCH  31  32
ATOM     32  O   UNL     1       6.072   2.613  12.479  0.00  0.00    +0.000 OA
ATOM     33  H   UNL     1       6.945   2.715  12.896  0.00  0.00    +0.000 HD
ENDBRANCH  31  32
ENDBRANCH  26  31
ENDBRANCH  22  23
BRANCH  22  34
ATOM     34  C   UNL     1       7.878   6.477  18.064  0.00  0.00    +0.000 C 
BRANCH  34  35
ATOM     35  N   UNL     1       7.561   7.694  17.303  0.00  0.00    +0.000 NA
ATOM     36  H   UNL     1       8.410   8.087  16.902  0.00  0.00    +0.000 HD
ATOM     37  H   UNL     1       7.163   8.404  17.921  0.00  0.00    +0.000 HD
ENDBRANCH  34  35
ENDBRANCH  22  34
ENDBRANCH   1  22
TORSDOF 11
ENDMDL
MODEL 2
REMARK VINA RESULT:      -8.1      0.900      1.439
REMARK  Name = 
REMARK  11 active torsions:
REMARK  status: ('A' for Active; 'I' for Inactive)
REMARK    1  A    between atoms: N_1  and  C_2
REMARK    2  A    between atoms: C_2  and  C_3
REMARK    3  A    between atoms: C_3  and  N_4
REMARK    4  A    between atoms: C_3  and  C_23
REMARK    5  A    between atoms: C_5  and  C_7
REMARK    6  A    between atoms: C_10  and  C_11
REMARK    7  A    between atoms: C_14  and  C_15
REMARK    8  A    between atoms: CA_25  and  C_26
REMARK    9  A    between atoms: C_26  and  O_27
REMARK   10  A    between atoms: C_28  and  C_29
REMARK   11  A    between atoms: C_29  and  O_30
REMARK                            x       y       z     vdW  Elec       q    Type
REMARK                         _______ _______ _______ _____ _____    ______ ____
ROOT
ATOM      1  N   UNL     1       5.523   5.056  18.396  0.00  0.00    +0.000 N 
ATOM      2  C   UNL     1       4.795   4.276  19.261  0.00  0.00    +0.000 C 
ATOM      3  O   UNL     1       5.174   3.163  19.629  0.00  0.00    +0.000 OA
ATOM      4  H   UNL     1       5.207   5.983  18.157  0.00  0.00    +0.000 HD
ENDROOT
BRANCH   2   5
ATOM      5  C   UNL     1       3.524   4.836  19.673  0.00  0.00    +0.000 A 
ATOM      6  C   UNL     1       2.349   4.251  20.110  0.00  0.00    +0.000 A 
ATOM      7  C   UNL     1       1.442   5.286  20.447  0.00  0.00    +0.000 A 
ATOM      8  C   UNL     1       2.055   6.502  20.199  0.00  0.00    +0.000 A 
ATOM      9  N   UNL     1       3.310   6.200  19.709  0.00  0.00    +0.000 N 
ATOM     10  H   UNL     1       4.019   6.875  19.455  0.00  0.00    +0.000 HD
BRANCH   8  11
ATOM     11  C   UNL     1       1.574   7.868  20.417  0.00  0.00    +0.000 A 
ATOM     12  C   UNL     1       1.283   8.345  21.703  0.00  0.00    +0.000 A 
ATOM     13  C   UNL     1       0.798   9.646  21.894  0.00  0.00    +0.000 A 
ATOM     14  C   UNL     1       0.594  10.499  20.800  0.00  0.00    +0.000 A 
ATOM     15  C   UNL     1       0.905  10.027  19.529  0.00  0.00    +0.000 A 
ATOM     16  F   UNL     1       0.731  10.820  18.462  0.00  0.00    +0.000 F 
ATOM     17  C   UNL     1       1.391   8.735  19.331  0.00  0.00    +0.000 A 
BRANCH  14  18
ATOM     18  C   UNL     1       0.051  11.888  20.958  0.00  0.00    +0.000 C 
ATOM     19  F   UNL     1      -0.174  12.224  22.262  0.00  0.00    +0.000 F 
ATOM     20  F   UNL     1       0.884  12.848  20.474  0.00  0.00    +0.000 F 
ATOM     21  F   UNL     1      -1.144  12.064  20.329  0.00  0.00    +0.000 F 
ENDBRANCH  14  18
ENDBRANCH   8  11
ENDBRANCH   2   5
BRANCH   1  22
ATOM     22  C   UNL     1       6.811   4.642  17.860  0.00  0.00    +0.000 C 
BRANCH  22  23
ATOM     23  C   UNL     1       6.700   4.579  16.347  0.00  0.00    +0.000 A 
ATOM     24  N   UNL     1       7.455   5.242  15.488  0.00  0.00    +0.000 NA
ATOM     25  CA  UNL     1       7.072   4.934  14.178  0.00  0.00    +0.000 A 
ATOM     26  C   UNL     1       5.998   4.064  14.074  0.00  0.00    +0.000 A 
ATOM     27  S   UNL     1       5.485   3.587  15.635  0.00  0.00    +0.000 S 
BRANCH  25  28
ATOM     28  C   UNL     1       7.810   5.563  13.030  0.00  0.00    +0.000 C 
BRANCH  28  29
ATOM     29  O   UNL     1       9.115   6.005  13.400  0.00  0.00    +0.000 OA
ATOM     30  H   UNL     1       9.114   6.001  14.375  0.00  0.00    +0.000 HD
ENDBRANCH  28  29
ENDBRANCH  25  28
BRANCH  26  31
ATOM     31  C   UNL     1       5.323   3.536  12.857  0.00  0.00    +0.000 C 
BRANCH  31  32
ATOM     32  O   UNL     1       6.158   2.523  12.314  0.00  0.00    +0.000 OA
ATOM     33  H   UNL     1       5.612   2.009  11.693  0.00  0.00    +0.000 HD
ENDBRANCH  31  32
ENDBRANCH  26  31
ENDBRANCH  22  23
BRANCH  22  34
ATOM     34  C   UNL     1       7.966   5.595  18.280  0.00  0.00    +0.000 C 
BRANCH  34  35
ATOM     35  N   UNL     1       8.237   5.632  19.724  0.00  0.00    +0.000 NA
ATOM     36  H   UNL     1       7.538   6.201  20.197  0.00  0.00    +0.000 HD
ATOM     37  H   UNL     1       9.146   6.063  19.902  0.00  0.00    +0.000 HD
ENDBRANCH  34  35
ENDBRANCH  22  34
ENDBRANCH   1  22
TORSDOF 11
ENDMDL
MODEL 3
REMARK VINA RESULT:      -7.7      1.036      1.405
REMARK  Name = 
REMARK  11 active torsions:
REMARK  status: ('A' for Active; 'I' for Inactive)
REMARK    1  A    between atoms: N_1  and  C_2
REMARK    2  A    between atoms: C_2  and  C_3
REMARK    3  A    between atoms: C_3  and  N_4
REMARK    4  A    between atoms: C_3  and  C_23
REMARK    5  A    between atoms: C_5  and  C_7
REMARK    6  A    between atoms: C_10  and  C_11
REMARK    7  A    between atoms: C_14  and  C_15
REMARK    8  A    between atoms: CA_25  and  C_26
REMARK    9  A    between atoms: C_26  and  O_27
REMARK   10  A    between atoms: C_28  and  C_29
REMARK   11  A    between atoms: C_29  and  O_30
REMARK                            x       y       z     vdW  Elec       q    Type
REMARK                         _______ _______ _______ _____ _____    ______ ____
ROOT
ATOM      1  N   UNL     1       5.606   5.029  18.229  0.00  0.00    +0.000 N 
ATOM      2  C   UNL     1       4.865   4.388  19.193  0.00  0.00    +0.000 C 
ATOM      3  O   UNL     1       5.192   3.299  19.665  0.00  0.00    +0.000 OA
ATOM      4  H   UNL     1       5.335   5.944  17.902  0.00  0.00    +0.000 HD
ENDROOT
BRANCH   2   5
ATOM      5  C   UNL     1       3.644   5.065  19.580  0.00  0.00    +0.000 A 
ATOM      6  C   UNL     1       2.590   4.687  20.392  0.00  0.00    +0.000 A 
ATOM      7  C   UNL     1       1.687   5.776  20.477  0.00  0.00    +0.000 A 
ATOM      8  C   UNL     1       2.181   6.812  19.703  0.00  0.00    +0.000 A 
ATOM      9  N   UNL     1       3.358   6.346  19.152  0.00  0.00    +0.000 N 
ATOM     10  H   UNL     1       3.977   6.878  18.554  0.00  0.00    +0.000 HD
BRANCH   8  11
ATOM     11  C   UNL     1       1.660   8.164  19.486  0.00  0.00    +0.000 A 
ATOM     12  C   UNL     1       1.826   8.824  18.261  0.00  0.00    +0.000 A 
ATOM     13  C   UNL     1       1.346  10.128  18.075  0.00  0.00    +0.000 A 
ATOM     14  C   UNL     1       0.686  10.799  19.114  0.00  0.00    +0.000 A 
ATOM     15  C   UNL     1       0.505  10.130  20.321  0.00  0.00    +0.000 A 
ATOM     16  F   UNL     1      -0.129  10.740  21.332  0.00  0.00    +0.000 F 
ATOM     17  C   UNL     1       0.979   8.832  20.512  0.00  0.00    +0.000 A 
BRANCH  14  18
ATOM     18  C   UNL     1       0.182  12.203  18.967  0.00  0.00    +0.000 C 
ATOM     19  F   UNL     1       0.954  12.960  18.133  0.00  0.00    +0.000 F 
ATOM     20  F   UNL     1      -1.077  12.270  18.456  0.00  0.00    +0.000 F 
ATOM     21  F   UNL     1       0.153  12.882  20.147  0.00  0.00    +0.000 F 
ENDBRANCH  14  18
ENDBRANCH   8  11
ENDBRANCH   2   5
BRANCH   1  22
ATOM     22  C   UNL     1       6.848   4.483  17.702  0.00  0.00    +0.000 C 
BRANCH  22  23
ATOM     23  C   UNL     1       6.756   4.468  16.187  0.00  0.00    +0.000 A 
ATOM     24  N   UNL     1       7.524   5.155  15.358  0.00  0.00    +0.000 NA
ATOM     25  CA  UNL     1       7.158   4.889  14.034  0.00  0.00    +0.000 A 
ATOM     26  C   UNL     1       6.084   4.025  13.890  0.00  0.00    +0.000 A 
ATOM     27  S   UNL     1       5.549   3.500  15.428  0.00  0.00    +0.000 S 
BRANCH  25  28
ATOM     28  C   UNL     1       7.912   5.552  12.916  0.00  0.00    +0.000 C 
BRANCH  28  29
ATOM     29  O   UNL     1       9.171   6.072  13.343  0.00  0.00    +0.000 OA
ATOM     30  H   UNL     1       9.260   5.783  14.270  0.00  0.00    +0.000 HD
ENDBRANCH  28  29
ENDBRANCH  25  28
BRANCH  26  31
ATOM     31  C   UNL     1       5.425   3.536  12.648  0.00  0.00    +0.000 C 
BRANCH  31  32
ATOM     32  O   UNL     1       6.156   2.406  12.194  0.00  0.00    +0.000 OA
ATOM     33  H   UNL     1       6.830   2.735  11.573  0.00  0.00    +0.000 HD
ENDBRANCH  31  32
ENDBRANCH  26  31
ENDBRANCH  22  23
BRANCH  22  34
ATOM     34  C   UNL     1       8.096   5.288  18.162  0.00  0.00    +0.000 C 
BRANCH  34  35
ATOM     35  N   UNL     1       7.868   6.731  18.330  0.00  0.00    +0.000 NA
ATOM     36  H   UNL     1       8.748   7.204  18.526  0.00  0.00    +0.000 HD
ATOM     37  H   UNL     1       7.251   6.901  19.127  0.00  0.00    +0.000 HD
ENDBRANCH  34  35
ENDBRANCH  22  34
ENDBRANCH   1  22
TORSDOF 11
ENDMDL
MODEL 4
REMARK VINA RESULT:      -7.5      1.908      2.956
REMARK  Name = 
REMARK  11 active torsions:
REMARK  status: ('A' for Active; 'I' for Inactive)
REMARK    1  A    between atoms: N_1  and  C_2
REMARK    2  A    between atoms: C_2  and  C_3
REMARK    3  A    between atoms: C_3  and  N_4
REMARK    4  A    between atoms: C_3  and  C_23
REMARK    5  A    between atoms: C_5  and  C_7
REMARK    6  A    between atoms: C_10  and  C_11
REMARK    7  A    between atoms: C_14  and  C_15
REMARK    8  A    between atoms: CA_25  and  C_26
REMARK    9  A    between atoms: C_26  and  O_27
REMARK   10  A    between atoms: C_28  and  C_29
REMARK   11  A    between atoms: C_29  and  O_30
REMARK                            x       y       z     vdW  Elec       q    Type
REMARK                         _______ _______ _______ _____ _____    ______ ____
ROOT
ATOM      1  N   UNL     1       4.096   5.869  17.405  0.00  0.00    +0.000 N 
ATOM      2  C   UNL     1       3.193   6.137  18.406  0.00  0.00    +0.000 C 
ATOM      3  O   UNL     1       2.857   5.295  19.238  0.00  0.00    +0.000 OA
ATOM      4  H   UNL     1       4.386   6.599  16.772  0.00  0.00    +0.000 HD
ENDROOT
BRANCH   2   5
ATOM      5  C   UNL     1       2.628   7.471  18.382  0.00  0.00    +0.000 A 
ATOM      6  C   UNL     1       2.633   8.466  17.420  0.00  0.00    +0.000 A 
ATOM      7  C   UNL     1       1.860   9.550  17.904  0.00  0.00    +0.000 A 
ATOM      8  C   UNL     1       1.398   9.226  19.168  0.00  0.00    +0.000 A 
ATOM      9  N   UNL     1       1.897   7.968  19.443  0.00  0.00    +0.000 N 
ATOM     10  H   UNL     1       1.716   7.436  20.285  0.00  0.00    +0.000 HD
BRANCH   8  11
ATOM     11  C   UNL     1       0.528   9.973  20.080  0.00  0.00    +0.000 A 
ATOM     12  C   UNL     1      -0.257  11.044  19.629  0.00  0.00    +0.000 A 
ATOM     13  C   UNL     1      -1.064  11.767  20.516  0.00  0.00    +0.000 A 
ATOM     14  C   UNL     1      -1.106  11.433  21.877  0.00  0.00    +0.000 A 
ATOM     15  C   UNL     1      -0.342  10.355  22.314  0.00  0.00    +0.000 A 
ATOM     16  F   UNL     1      -0.365  10.002  23.607  0.00  0.00    +0.000 F 
ATOM     17  C   UNL     1       0.463   9.629  21.436  0.00  0.00    +0.000 A 
BRANCH  14  18
ATOM     18  C   UNL     1      -1.935  12.197  22.865  0.00  0.00    +0.000 C 
ATOM     19  F   UNL     1      -1.186  13.000  23.677  0.00  0.00    +0.000 F 
ATOM     20  F   UNL     1      -2.844  13.021  22.278  0.00  0.00    +0.000 F 
ATOM     21  F   UNL     1      -2.637  11.388  23.706  0.00  0.00    +0.000 F 
ENDBRANCH  14  18
ENDBRANCH   8  11
ENDBRANCH   2   5
BRANCH   1  22
ATOM     22  C   UNL     1       4.744   4.575  17.259  0.00  0.00    +0.000 C 
BRANCH  22  23
ATOM     23  C   UNL     1       5.347   4.498  15.868  0.00  0.00    +0.000 A 
ATOM     24  N   UNL     1       4.821   3.871  14.830  0.00  0.00    +0.000 NA
ATOM     25  CA  UNL     1       5.648   4.018  13.712  0.00  0.00    +0.000 A 
ATOM     26  C   UNL     1       6.815   4.731  13.941  0.00  0.00    +0.000 A 
ATOM     27  S   UNL     1       6.860   5.264  15.566  0.00  0.00    +0.000 S 
BRANCH  25  28
ATOM     28  C   UNL     1       5.236   3.397  12.406  0.00  0.00    +0.000 C 
BRANCH  28  29
ATOM     29  O   UNL     1       6.062   2.291  12.046  0.00  0.00    +0.000 OA
ATOM     30  H   UNL     1       6.785   2.679  11.520  0.00  0.00    +0.000 HD
ENDBRANCH  28  29
ENDBRANCH  25  28
BRANCH  26  31
ATOM     31  C   UNL     1       7.917   5.066  12.998  0.00  0.00    +0.000 C 
BRANCH  31  32
ATOM     32  O   UNL     1       8.769   5.995  13.653  0.00  0.00    +0.000 OA
ATOM     33  H   UNL     1       9.652   5.587  13.700  0.00  0.00    +0.000 HD
ENDBRANCH  31  32
ENDBRANCH  26  31
ENDBRANCH  22  23
BRANCH  22  34
ATOM     34  C   UNL     1       5.836   4.329  18.338  0.00  0.00    +0.000 C 
BRANCH  34  35
ATOM     35  N   UNL     1       5.459   3.369  19.385  0.00  0.00    +0.000 NA
ATOM     36  H   UNL     1       5.012   3.854  20.161  0.00  0.00    +0.000 HD
ATOM     37  H   UNL     1       6.292   2.909  19.759  0.00  0.00    +0.000 HD
ENDBRANCH  34  35
ENDBRANCH  22  34
ENDBRANCH   1  22
TORSDOF 11
ENDMDL
MODEL 5
REMARK VINA RESULT:      -7.4      6.244      9.408
REMARK  Name = 
REMARK  11 active torsions:
REMARK  status: ('A' for Active; 'I' for Inactive)
REMARK    1  A    between atoms: N_1  and  C_2
REMARK    2  A    between atoms: C_2  and  C_3
REMARK    3  A    between atoms: C_3  and  N_4
REMARK    4  A    between atoms: C_3  and  C_23
REMARK    5  A    between atoms: C_5  and  C_7
REMARK    6  A    between atoms: C_10  and  C_11
REMARK    7  A    between atoms: C_14  and  C_15
REMARK    8  A    between atoms: CA_25  and  C_26
REMARK    9  A    between atoms: C_26  and  O_27
REMARK   10  A    between atoms: C_28  and  C_29
REMARK   11  A    between atoms: C_29  and  O_30
REMARK                            x       y       z     vdW  Elec       q    Type
REMARK                         _______ _______ _______ _____ _____    ______ ____
ROOT
ATOM      1  N   UNL     1       0.601  10.202  19.680  0.00  0.00    +0.000 N 
ATOM      2  C   UNL     1       0.774   9.430  20.804  0.00  0.00    +0.000 C 
ATOM      3  O   UNL     1       0.521   9.843  21.936  0.00  0.00    +0.000 OA
ATOM      4  H   UNL     1       0.770   9.813  18.764  0.00  0.00    +0.000 HD
ENDROOT
BRANCH   2   5
ATOM      5  C   UNL     1       1.322   8.110  20.565  0.00  0.00    +0.000 A 
ATOM      6  C   UNL     1       1.161   6.905  21.224  0.00  0.00    +0.000 A 
ATOM      7  C   UNL     1       1.881   5.914  20.512  0.00  0.00    +0.000 A 
ATOM      8  C   UNL     1       2.496   6.518  19.429  0.00  0.00    +0.000 A 
ATOM      9  N   UNL     1       2.158   7.855  19.497  0.00  0.00    +0.000 N 
ATOM     10  H   UNL     1       2.431   8.564  18.829  0.00  0.00    +0.000 HD
BRANCH   8  11
ATOM     11  C   UNL     1       3.315   5.939  18.360  0.00  0.00    +0.000 A 
ATOM     12  C   UNL     1       3.439   4.552  18.203  0.00  0.00    +0.000 A 
ATOM     13  C   UNL     1       4.247   4.011  17.194  0.00  0.00    +0.000 A 
ATOM     14  C   UNL     1       4.949   4.851  16.317  0.00  0.00    +0.000 A 
ATOM     15  C   UNL     1       4.805   6.226  16.465  0.00  0.00    +0.000 A 
ATOM     16  F   UNL     1       5.455   7.057  15.638  0.00  0.00    +0.000 F 
ATOM     17  C   UNL     1       4.001   6.771  17.466  0.00  0.00    +0.000 A 
BRANCH  14  18
ATOM     18  C   UNL     1       5.846   4.315  15.242  0.00  0.00    +0.000 C 
ATOM     19  F   UNL     1       6.046   2.968  15.340  0.00  0.00    +0.000 F 
ATOM     20  F   UNL     1       5.360   4.518  13.987  0.00  0.00    +0.000 F 
ATOM     21  F   UNL     1       7.090   4.867  15.265  0.00  0.00    +0.000 F 
ENDBRANCH  14  18
ENDBRANCH   8  11
ENDBRANCH   2   5
BRANCH   1  22
ATOM     22  C   UNL     1       0.087  11.562  19.732  0.00  0.00    +0.000 C 
BRANCH  22  23
ATOM     23  C   UNL     1       1.266  12.517  19.775  0.00  0.00    +0.000 A 
ATOM     24  N   UNL     1       1.963  12.838  20.851  0.00  0.00    +0.000 NA
ATOM     25  CA  UNL     1       2.979  13.738  20.513  0.00  0.00    +0.000 A 
ATOM     26  C   UNL     1       3.004  14.112  19.179  0.00  0.00    +0.000 A 
ATOM     27  S   UNL     1       1.770  13.294  18.322  0.00  0.00    +0.000 S 
BRANCH  25  28
ATOM     28  C   UNL     1       3.912  14.229  21.584  0.00  0.00    +0.000 C 
BRANCH  28  29
ATOM     29  O   UNL     1       3.218  14.827  22.677  0.00  0.00    +0.000 OA
ATOM     30  H   UNL     1       2.628  14.127  23.012  0.00  0.00    +0.000 HD
ENDBRANCH  28  29
ENDBRANCH  25  28
BRANCH  26  31
ATOM     31  C   UNL     1       3.925  15.048  18.477  0.00  0.00    +0.000 C 
BRANCH  31  32
ATOM     32  O   UNL     1       4.809  14.265  17.688  0.00  0.00    +0.000 OA
ATOM     33  H   UNL     1       5.712  14.465  17.992  0.00  0.00    +0.000 HD
ENDBRANCH  31  32
ENDBRANCH  26  31
ENDBRANCH  22  23
BRANCH  22  34
ATOM     34  C   UNL     1      -0.839  11.895  18.528  0.00  0.00    +0.000 C 
BRANCH  34  35
ATOM     35  N   UNL     1      -2.058  12.639  18.878  0.00  0.00    +0.000 NA
ATOM     36  H   UNL     1      -1.880  13.246  19.677  0.00  0.00    +0.000 HD
ATOM     37  H   UNL     1      -2.801  11.992  19.152  0.00  0.00    +0.000 HD
ENDBRANCH  34  35
ENDBRANCH  22  34
ENDBRANCH   1  22
TORSDOF 11
ENDMDL
MODEL 6
REMARK VINA RESULT:      -7.3      6.957     10.335
REMARK  Name = 
REMARK  11 active torsions:
REMARK  status: ('A' for Active; 'I' for Inactive)
REMARK    1  A    between atoms: N_1  and  C_2
REMARK    2  A    between atoms: C_2  and  C_3
REMARK    3  A    between atoms: C_3  and  N_4
REMARK    4  A    between atoms: C_3  and  C_23
REMARK    5  A    between atoms: C_5  and  C_7
REMARK    6  A    between atoms: C_10  and  C_11
REMARK    7  A    between atoms: C_14  and  C_15
REMARK    8  A    between atoms: CA_25  and  C_26
REMARK    9  A    between atoms: C_26  and  O_27
REMARK   10  A    between atoms: C_28  and  C_29
REMARK   11  A    between atoms: C_29  and  O_30
REMARK                            x       y       z     vdW  Elec       q    Type
REMARK                         _______ _______ _______ _____ _____    ______ ____
ROOT
ATOM      1  N   UNL     1      -1.096  11.196  20.421  0.00  0.00    +0.000 N 
ATOM      2  C   UNL     1       0.088  10.999  19.753  0.00  0.00    +0.000 C 
ATOM      3  O   UNL     1       0.540  11.817  18.950  0.00  0.00    +0.000 OA
ATOM      4  H   UNL     1      -1.410  10.529  21.109  0.00  0.00    +0.000 HD
ENDROOT
BRANCH   2   5
ATOM      5  C   UNL     1       0.745   9.737  20.025  0.00  0.00    +0.000 A 
ATOM      6  C   UNL     1       0.775   8.928  21.147  0.00  0.00    +0.000 A 
ATOM      7  C   UNL     1       1.522   7.766  20.832  0.00  0.00    +0.000 A 
ATOM      8  C   UNL     1       1.963   7.873  19.524  0.00  0.00    +0.000 A 
ATOM      9  N   UNL     1       1.496   9.089  19.065  0.00  0.00    +0.000 N 
ATOM     10  H   UNL     1       1.627   9.453  18.130  0.00  0.00    +0.000 HD
BRANCH   8  11
ATOM     11  C   UNL     1       2.730   6.933  18.702  0.00  0.00    +0.000 A 
ATOM     12  C   UNL     1       2.577   5.547  18.841  0.00  0.00    +0.000 A 
ATOM     13  C   UNL     1       3.337   4.659  18.068  0.00  0.00    +0.000 A 
ATOM     14  C   UNL     1       4.267   5.141  17.136  0.00  0.00    +0.000 A 
ATOM     15  C   UNL     1       4.398   6.518  16.988  0.00  0.00    +0.000 A 
ATOM     16  F   UNL     1       5.271   7.013  16.099  0.00  0.00    +0.000 F 
ATOM     17  C   UNL     1       3.644   7.408  17.752  0.00  0.00    +0.000 A 
BRANCH  14  18
ATOM     18  C   UNL     1       5.119   4.226  16.309  0.00  0.00    +0.000 C 
ATOM     19  F   UNL     1       4.933   4.397  14.967  0.00  0.00    +0.000 F 
ATOM     20  F   UNL     1       6.452   4.402  16.515  0.00  0.00    +0.000 F 
ATOM     21  F   UNL     1       4.865   2.909  16.543  0.00  0.00    +0.000 F 
ENDBRANCH  14  18
ENDBRANCH   8  11
ENDBRANCH   2   5
BRANCH   1  22
ATOM     22  C   UNL     1      -1.905  12.394  20.251  0.00  0.00    +0.000 C 
BRANCH  22  23
ATOM     23  C   UNL     1      -3.017  12.083  19.267  0.00  0.00    +0.000 A 
ATOM     24  N   UNL     1      -2.857  11.627  18.037  0.00  0.00    +0.000 NA
ATOM     25  CA  UNL     1      -4.103  11.451  17.425  0.00  0.00    +0.000 A 
ATOM     26  C   UNL     1      -5.190  11.818  18.202  0.00  0.00    +0.000 A 
ATOM     27  S   UNL     1      -4.653  12.350  19.738  0.00  0.00    +0.000 S 
BRANCH  25  28
ATOM     28  C   UNL     1      -4.163  10.920  16.020  0.00  0.00    +0.000 C 
BRANCH  28  29
ATOM     29  O   UNL     1      -3.091  11.403  15.211  0.00  0.00    +0.000 OA
ATOM     30  H   UNL     1      -2.613  12.034  15.779  0.00  0.00    +0.000 HD
ENDBRANCH  28  29
ENDBRANCH  25  28
BRANCH  26  31
ATOM     31  C   UNL     1      -6.642  11.779  17.875  0.00  0.00    +0.000 C 
BRANCH  31  32
ATOM     32  O   UNL     1      -6.869  12.719  16.834  0.00  0.00    +0.000 OA
ATOM     33  H   UNL     1      -6.666  12.268  15.996  0.00  0.00    +0.000 HD
ENDBRANCH  31  32
ENDBRANCH  26  31
ENDBRANCH  22  23
BRANCH  22  34
ATOM     34  C   UNL     1      -2.495  12.910  21.594  0.00  0.00    +0.000 C 
BRANCH  34  35
ATOM     35  N   UNL     1      -2.210  12.059  22.757  0.00  0.00    +0.000 NA
ATOM     36  H   UNL     1      -2.653  12.443  23.590  0.00  0.00    +0.000 HD
ATOM     37  H   UNL     1      -1.204  12.033  22.938  0.00  0.00    +0.000 HD
ENDBRANCH  34  35
ENDBRANCH  22  34
ENDBRANCH   1  22
TORSDOF 11
ENDMDL
MODEL 7
REMARK VINA RESULT:      -7.3      6.869     10.858
REMARK  Name = 
REMARK  11 active torsions:
REMARK  status: ('A' for Active; 'I' for Inactive)
REMARK    1  A    between atoms: N_1  and  C_2
REMARK    2  A    between atoms: C_2  and  C_3
REMARK    3  A    between atoms: C_3  and  N_4
REMARK    4  A    between atoms: C_3  and  C_23
REMARK    5  A    between atoms: C_5  and  C_7
REMARK    6  A    between atoms: C_10  and  C_11
REMARK    7  A    between atoms: C_14  and  C_15
REMARK    8  A    between atoms: CA_25  and  C_26
REMARK    9  A    between atoms: C_26  and  O_27
REMARK   10  A    between atoms: C_28  and  C_29
REMARK   11  A    between atoms: C_29  and  O_30
REMARK                            x       y       z     vdW  Elec       q    Type
REMARK                         _______ _______ _______ _____ _____    ______ ____
ROOT
ATOM      1  N   UNL     1      -1.244  11.437  19.915  0.00  0.00    +0.000 N 
ATOM      2  C   UNL     1       0.077  11.182  19.637  0.00  0.00    +0.000 C 
ATOM      3  O   UNL     1       0.739  11.880  18.869  0.00  0.00    +0.000 OA
ATOM      4  H   UNL     1      -1.741  10.874  20.589  0.00  0.00    +0.000 HD
ENDROOT
BRANCH   2   5
ATOM      5  C   UNL     1       0.623  10.002  20.277  0.00  0.00    +0.000 A 
ATOM      6  C   UNL     1       0.701   9.616  21.603  0.00  0.00    +0.000 A 
ATOM      7  C   UNL     1       1.276   8.323  21.652  0.00  0.00    +0.000 A 
ATOM      8  C   UNL     1       1.566   7.926  20.358  0.00  0.00    +0.000 A 
ATOM      9  N   UNL     1       1.180   8.973  19.545  0.00  0.00    +0.000 N 
ATOM     10  H   UNL     1       1.236   8.983  18.534  0.00  0.00    +0.000 HD
BRANCH   8  11
ATOM     11  C   UNL     1       2.125   6.668  19.855  0.00  0.00    +0.000 A 
ATOM     12  C   UNL     1       2.892   6.625  18.683  0.00  0.00    +0.000 A 
ATOM     13  C   UNL     1       3.398   5.411  18.198  0.00  0.00    +0.000 A 
ATOM     14  C   UNL     1       3.146   4.212  18.879  0.00  0.00    +0.000 A 
ATOM     15  C   UNL     1       2.402   4.264  20.053  0.00  0.00    +0.000 A 
ATOM     16  F   UNL     1       2.151   3.137  20.734  0.00  0.00    +0.000 F 
ATOM     17  C   UNL     1       1.897   5.468  20.543  0.00  0.00    +0.000 A 
BRANCH  14  18
ATOM     18  C   UNL     1       3.645   2.888  18.381  0.00  0.00    +0.000 C 
ATOM     19  F   UNL     1       2.635   2.014  18.095  0.00  0.00    +0.000 F 
ATOM     20  F   UNL     1       4.375   2.986  17.237  0.00  0.00    +0.000 F 
ATOM     21  F   UNL     1       4.434   2.245  19.285  0.00  0.00    +0.000 F 
ENDBRANCH  14  18
ENDBRANCH   8  11
ENDBRANCH   2   5
BRANCH   1  22
ATOM     22  C   UNL     1      -1.964  12.564  19.341  0.00  0.00    +0.000 C 
BRANCH  22  23
ATOM     23  C   UNL     1      -3.452  12.323  19.526  0.00  0.00    +0.000 A 
ATOM     24  N   UNL     1      -4.256  11.747  18.649  0.00  0.00    +0.000 NA
ATOM     25  CA  UNL     1      -5.557  11.688  19.160  0.00  0.00    +0.000 A 
ATOM     26  C   UNL     1      -5.718  12.262  20.411  0.00  0.00    +0.000 A 
ATOM     27  S   UNL     1      -4.213  12.845  20.980  0.00  0.00    +0.000 S 
BRANCH  25  28
ATOM     28  C   UNL     1      -6.642  11.053  18.337  0.00  0.00    +0.000 C 
BRANCH  28  29
ATOM     29  O   UNL     1      -7.162   9.870  18.942  0.00  0.00    +0.000 OA
ATOM     30  H   UNL     1      -6.553   9.160  18.668  0.00  0.00    +0.000 HD
ENDBRANCH  28  29
ENDBRANCH  25  28
BRANCH  26  31
ATOM     31  C   UNL     1      -6.947  12.391  21.242  0.00  0.00    +0.000 C 
BRANCH  31  32
ATOM     32  O   UNL     1      -7.250  11.101  21.755  0.00  0.00    +0.000 OA
ATOM     33  H   UNL     1      -8.218  11.001  21.715  0.00  0.00    +0.000 HD
ENDBRANCH  31  32
ENDBRANCH  26  31
ENDBRANCH  22  23
BRANCH  22  34
ATOM     34  C   UNL     1      -1.551  13.921  19.977  0.00  0.00    +0.000 C 
BRANCH  34  35
ATOM     35  N   UNL     1      -0.751  14.790  19.102  0.00  0.00    +0.000 NA
ATOM     36  H   UNL     1      -0.141  15.383  19.662  0.00  0.00    +0.000 HD
ATOM     37  H   UNL     1      -1.362  15.409  18.565  0.00  0.00    +0.000 HD
ENDBRANCH  34  35
ENDBRANCH  22  34
ENDBRANCH   1  22
TORSDOF 11
ENDMDL
MODEL 8
REMARK VINA RESULT:      -7.3      6.741     10.607
REMARK  Name = 
REMARK  11 active torsions:
REMARK  status: ('A' for Active; 'I' for Inactive)
REMARK    1  A    between atoms: N_1  and  C_2
REMARK    2  A    between atoms: C_2  and  C_3
REMARK    3  A    between atoms: C_3  and  N_4
REMARK    4  A    between atoms: C_3  and  C_23
REMARK    5  A    between atoms: C_5  and  C_7
REMARK    6  A    between atoms: C_10  and  C_11
REMARK    7  A    between atoms: C_14  and  C_15
REMARK    8  A    between atoms: CA_25  and  C_26
REMARK    9  A    between atoms: C_26  and  O_27
REMARK   10  A    between atoms: C_28  and  C_29
REMARK   11  A    between atoms: C_29  and  O_30
REMARK                            x       y       z     vdW  Elec       q    Type
REMARK                         _______ _______ _______ _____ _____    ______ ____
ROOT
ATOM      1  N   UNL     1      -0.575  11.112  20.487  0.00  0.00    +0.000 N 
ATOM      2  C   UNL     1       0.670  11.338  19.952  0.00  0.00    +0.000 C 
ATOM      3  O   UNL     1       1.244  12.423  20.043  0.00  0.00    +0.000 OA
ATOM      4  H   UNL     1      -0.993  10.196  20.437  0.00  0.00    +0.000 HD
ENDROOT
BRANCH   2   5
ATOM      5  C   UNL     1       1.239  10.219  19.228  0.00  0.00    +0.000 A 
ATOM      6  C   UNL     1       1.799  10.116  17.967  0.00  0.00    +0.000 A 
ATOM      7  C   UNL     1       2.262   8.788  17.798  0.00  0.00    +0.000 A 
ATOM      8  C   UNL     1       1.969   8.075  18.948  0.00  0.00    +0.000 A 
ATOM      9  N   UNL     1       1.328   8.961  19.790  0.00  0.00    +0.000 N 
ATOM     10  H   UNL     1       1.007   8.753  20.727  0.00  0.00    +0.000 HD
BRANCH   8  11
ATOM     11  C   UNL     1       2.270   6.686  19.304  0.00  0.00    +0.000 A 
ATOM     12  C   UNL     1       1.905   6.154  20.549  0.00  0.00    +0.000 A 
ATOM     13  C   UNL     1       2.223   4.832  20.887  0.00  0.00    +0.000 A 
ATOM     14  C   UNL     1       2.913   4.012  19.984  0.00  0.00    +0.000 A 
ATOM     15  C   UNL     1       3.253   4.539  18.742  0.00  0.00    +0.000 A 
ATOM     16  F   UNL     1       3.905   3.778  17.851  0.00  0.00    +0.000 F 
ATOM     17  C   UNL     1       2.939   5.853  18.397  0.00  0.00    +0.000 A 
BRANCH  14  18
ATOM     18  C   UNL     1       3.297   2.601  20.316  0.00  0.00    +0.000 C 
ATOM     19  F   UNL     1       2.678   1.681  19.519  0.00  0.00    +0.000 F 
ATOM     20  F   UNL     1       4.629   2.361  20.179  0.00  0.00    +0.000 F 
ATOM     21  F   UNL     1       2.973   2.250  21.591  0.00  0.00    +0.000 F 
ENDBRANCH  14  18
ENDBRANCH   8  11
ENDBRANCH   2   5
BRANCH   1  22
ATOM     22  C   UNL     1      -1.309  12.130  21.224  0.00  0.00    +0.000 C 
BRANCH  22  23
ATOM     23  C   UNL     1      -2.643  12.349  20.534  0.00  0.00    +0.000 A 
ATOM     24  N   UNL     1      -3.045  11.759  19.422  0.00  0.00    +0.000 NA
ATOM     25  CA  UNL     1      -4.330  12.197  19.084  0.00  0.00    +0.000 A 
ATOM     26  C   UNL     1      -4.863  13.150  19.939  0.00  0.00    +0.000 A 
ATOM     27  S   UNL     1      -3.763  13.472  21.209  0.00  0.00    +0.000 S 
BRANCH  25  28
ATOM     28  C   UNL     1      -4.998  11.641  17.858  0.00  0.00    +0.000 C 
BRANCH  28  29
ATOM     29  O   UNL     1      -5.072  12.596  16.800  0.00  0.00    +0.000 OA
ATOM     30  H   UNL     1      -6.003  12.884  16.787  0.00  0.00    +0.000 HD
ENDBRANCH  28  29
ENDBRANCH  25  28
BRANCH  26  31
ATOM     31  C   UNL     1      -6.181  13.839  19.880  0.00  0.00    +0.000 C 
BRANCH  31  32
ATOM     32  O   UNL     1      -6.139  14.747  18.788  0.00  0.00    +0.000 OA
ATOM     33  H   UNL     1      -6.250  15.640  19.157  0.00  0.00    +0.000 HD
ENDBRANCH  31  32
ENDBRANCH  26  31
ENDBRANCH  22  23
BRANCH  22  34
ATOM     34  C   UNL     1      -1.525  11.747  22.715  0.00  0.00    +0.000 C 
BRANCH  34  35
ATOM     35  N   UNL     1      -0.532  10.809  23.258  0.00  0.00    +0.000 NA
ATOM     36  H   UNL     1      -0.564   9.930  22.746  0.00  0.00    +0.000 HD
ATOM     37  H   UNL     1      -0.745  10.596  24.236  0.00  0.00    +0.000 HD
ENDBRANCH  34  35
ENDBRANCH  22  34
ENDBRANCH   1  22
TORSDOF 11
ENDMDL
MODEL 9
REMARK VINA RESULT:      -7.3      6.499     10.531
REMARK  Name = 
REMARK  11 active torsions:
REMARK  status: ('A' for Active; 'I' for Inactive)
REMARK    1  A    between atoms: N_1  and  C_2
REMARK    2  A    between atoms: C_2  and  C_3
REMARK    3  A    between atoms: C_3  and  N_4
REMARK    4  A    between atoms: C_3  and  C_23
REMARK    5  A    between atoms: C_5  and  C_7
REMARK    6  A    between atoms: C_10  and  C_11
REMARK    7  A    between atoms: C_14  and  C_15
REMARK    8  A    between atoms: CA_25  and  C_26
REMARK    9  A    between atoms: C_26  and  O_27
REMARK   10  A    between atoms: C_28  and  C_29
REMARK   11  A    between atoms: C_29  and  O_30
REMARK                            x       y       z     vdW  Elec       q    Type
REMARK                         _______ _______ _______ _____ _____    ______ ____
ROOT
ATOM      1  N   UNL     1      -0.746  11.161  20.415  0.00  0.00    +0.000 N 
ATOM      2  C   UNL     1       0.610  11.262  20.222  0.00  0.00    +0.000 C 
ATOM      3  O   UNL     1       1.279  12.183  20.693  0.00  0.00    +0.000 OA
ATOM      4  H   UNL     1      -1.254  10.366  20.057  0.00  0.00    +0.000 HD
ENDROOT
BRANCH   2   5
ATOM      5  C   UNL     1       1.191  10.234  19.383  0.00  0.00    +0.000 A 
ATOM      6  C   UNL     1       1.768  10.276  18.126  0.00  0.00    +0.000 A 
ATOM      7  C   UNL     1       2.235   8.975  17.813  0.00  0.00    +0.000 A 
ATOM      8  C   UNL     1       1.927   8.136  18.869  0.00  0.00    +0.000 A 
ATOM      9  N   UNL     1       1.274   8.920  19.799  0.00  0.00    +0.000 N 
ATOM     10  H   UNL     1       0.941   8.606  20.702  0.00  0.00    +0.000 HD
BRANCH   8  11
ATOM     11  C   UNL     1       2.225   6.715  19.069  0.00  0.00    +0.000 A 
ATOM     12  C   UNL     1       2.625   5.895  18.004  0.00  0.00    +0.000 A 
ATOM     13  C   UNL     1       2.881   4.532  18.203  0.00  0.00    +0.000 A 
ATOM     14  C   UNL     1       2.743   3.959  19.476  0.00  0.00    +0.000 A 
ATOM     15  C   UNL     1       2.367   4.783  20.532  0.00  0.00    +0.000 A 
ATOM     16  F   UNL     1       2.235   4.270  21.763  0.00  0.00    +0.000 F 
ATOM     17  C   UNL     1       2.112   6.141  20.342  0.00  0.00    +0.000 A 
BRANCH  14  18
ATOM     18  C   UNL     1       2.980   2.500  19.727  0.00  0.00    +0.000 C 
ATOM     19  F   UNL     1       3.952   2.274  20.660  0.00  0.00    +0.000 F 
ATOM     20  F   UNL     1       1.878   1.849  20.187  0.00  0.00    +0.000 F 
ATOM     21  F   UNL     1       3.386   1.830  18.614  0.00  0.00    +0.000 F 
ENDBRANCH  14  18
ENDBRANCH   8  11
ENDBRANCH   2   5
BRANCH   1  22
ATOM     22  C   UNL     1      -1.501  12.120  21.207  0.00  0.00    +0.000 C 
BRANCH  22  23
ATOM     23  C   UNL     1      -2.875  12.278  20.583  0.00  0.00    +0.000 A 
ATOM     24  N   UNL     1      -3.195  11.988  19.334  0.00  0.00    +0.000 NA
ATOM     25  CA  UNL     1      -4.551  12.253  19.113  0.00  0.00    +0.000 A 
ATOM     26  C   UNL     1      -5.226  12.779  20.203  0.00  0.00    +0.000 A 
ATOM     27  S   UNL     1      -4.165  12.905  21.539  0.00  0.00    +0.000 S 
BRANCH  25  28
ATOM     28  C   UNL     1      -5.142  11.979  17.758  0.00  0.00    +0.000 C 
BRANCH  28  29
ATOM     29  O   UNL     1      -4.157  11.978  16.726  0.00  0.00    +0.000 OA
ATOM     30  H   UNL     1      -4.651  11.781  15.909  0.00  0.00    +0.000 HD
ENDBRANCH  28  29
ENDBRANCH  25  28
BRANCH  26  31
ATOM     31  C   UNL     1      -6.653  13.187  20.324  0.00  0.00    +0.000 C 
BRANCH  31  32
ATOM     32  O   UNL     1      -7.395  12.036  20.701  0.00  0.00    +0.000 OA
ATOM     33  H   UNL     1      -8.313  12.184  20.416  0.00  0.00    +0.000 HD
ENDBRANCH  31  32
ENDBRANCH  26  31
ENDBRANCH  22  23
BRANCH  22  34
ATOM     34  C   UNL     1      -1.627  11.694  22.697  0.00  0.00    +0.000 C 
BRANCH  34  35
ATOM     35  N   UNL     1      -0.494  10.911  23.210  0.00  0.00    +0.000 NA
ATOM     36  H   UNL     1       0.304  10.996  22.582  0.00  0.00    +0.000 HD
ATOM     37  H   UNL     1      -0.739   9.919  23.251  0.00  0.00    +0.000 HD
ENDBRANCH  34  35
ENDBRANCH  22  34
ENDBRANCH   1  22
TORSDOF 11
ENDMDL
