MODEL 1
REMARK VINA RESULT:      -7.5      0.000      0.000
REMARK  Name = 
REMARK  2 active torsions:
REMARK  status: ('A' for Active; 'I' for Inactive)
REMARK    1  A    between atoms: C_1  and  O_2
REMARK    2  A    between atoms: O_2  and  C_3
REMARK                            x       y       z     vdW  Elec       q    Type
REMARK                         _______ _______ _______ _____ _____    ______ ____
ROOT
ATOM      1  C   UNL     1       6.453   6.022  16.704  0.00  0.00    +0.000 A 
ATOM      2  C   UNL     1       5.873   5.267  15.681  0.00  0.00    +0.000 A 
ATOM      3  C   UNL     1       4.769   4.457  15.946  0.00  0.00    +0.000 A 
ATOM      4  C   UNL     1       4.210   4.450  17.225  0.00  0.00    +0.000 A 
ATOM      5  C   UNL     1       3.014   3.610  17.507  0.00  0.00    +0.000 A 
ATOM      6  O   UNL     1       2.542   2.843  16.674  0.00  0.00    +0.000 OA
ATOM      7  C   UNL     1       2.402   3.783  18.835  0.00  0.00    +0.000 A 
ATOM      8  C   UNL     1       2.980   4.580  19.730  0.00  0.00    +0.000 A 
ATOM      9  N   UNL     1       4.158   5.249  19.534  0.00  0.00    +0.000 N 
ATOM     10  C   UNL     1       4.741   5.258  18.252  0.00  0.00    +0.000 A 
ATOM     11  C   UNL     1       5.890   6.008  17.988  0.00  0.00    +0.000 A 
ATOM     12  C   UNL     1       2.156   4.693  20.968  0.00  0.00    +0.000 C 
ATOM     13  C   UNL     1       0.964   3.763  20.694  0.00  0.00    +0.000 C 
ATOM     14  C   UNL     1       1.124   3.189  19.281  0.00  0.00    +0.000 C 
ATOM     15  H   UNL     1       4.411   5.981  20.185  0.00  0.00    +0.000 HD
ENDROOT
BRANCH   1  17
ATOM     16  C   UNL     1       7.765   7.815  17.539  0.00  0.00    +0.000 C 
ATOM     17  O   UNL     1       7.584   6.782  16.576  0.00  0.00    +0.000 OA
ENDBRANCH   1  17
TORSDOF 1
ENDMDL
MODEL 2
REMARK VINA RESULT:      -7.5      1.947      2.666
REMARK  Name = 
REMARK  2 active torsions:
REMARK  status: ('A' for Active; 'I' for Inactive)
REMARK    1  A    between atoms: C_1  and  O_2
REMARK    2  A    between atoms: O_2  and  C_3
REMARK                            x       y       z     vdW  Elec       q    Type
REMARK                         _______ _______ _______ _____ _____    ______ ____
ROOT
ATOM      1  C   UNL     1       5.575   5.506  15.720  0.00  0.00    +0.000 A 
ATOM      2  C   UNL     1       5.311   6.753  16.293  0.00  0.00    +0.000 A 
ATOM      3  C   UNL     1       4.346   6.876  17.292  0.00  0.00    +0.000 A 
ATOM      4  C   UNL     1       3.686   5.738  17.757  0.00  0.00    +0.000 A 
ATOM      5  C   UNL     1       2.675   5.858  18.842  0.00  0.00    +0.000 A 
ATOM      6  O   UNL     1       2.326   6.945  19.295  0.00  0.00    +0.000 OA
ATOM      7  C   UNL     1       2.144   4.593  19.375  0.00  0.00    +0.000 A 
ATOM      8  C   UNL     1       2.503   3.439  18.817  0.00  0.00    +0.000 A 
ATOM      9  N   UNL     1       3.322   3.321  17.726  0.00  0.00    +0.000 N 
ATOM     10  C   UNL     1       3.988   4.462  17.237  0.00  0.00    +0.000 A 
ATOM     11  C   UNL     1       4.906   4.367  16.188  0.00  0.00    +0.000 A 
ATOM     12  C   UNL     1       1.936   2.277  19.559  0.00  0.00    +0.000 C 
ATOM     13  C   UNL     1       1.101   2.932  20.671  0.00  0.00    +0.000 C 
ATOM     14  C   UNL     1       1.265   4.452  20.555  0.00  0.00    +0.000 C 
ATOM     15  H   UNL     1       3.697   2.410  17.501  0.00  0.00    +0.000 HD
ENDROOT
BRANCH   1  17
ATOM     16  C   UNL     1       6.295   4.047  13.992  0.00  0.00    +0.000 C 
ATOM     17  O   UNL     1       6.437   5.286  14.680  0.00  0.00    +0.000 OA
ENDBRANCH   1  17
TORSDOF 1
ENDMDL
MODEL 3
REMARK VINA RESULT:      -7.2      1.909      2.274
REMARK  Name = 
REMARK  2 active torsions:
REMARK  status: ('A' for Active; 'I' for Inactive)
REMARK    1  A    between atoms: C_1  and  O_2
REMARK    2  A    between atoms: O_2  and  C_3
REMARK                            x       y       z     vdW  Elec       q    Type
REMARK                         _______ _______ _______ _____ _____    ______ ____
ROOT
ATOM      1  C   UNL     1       6.803   6.856  17.514  0.00  0.00    +0.000 A 
ATOM      2  C   UNL     1       7.492   5.882  18.241  0.00  0.00    +0.000 A 
ATOM      3  C   UNL     1       6.798   4.829  18.835  0.00  0.00    +0.000 A 
ATOM      4  C   UNL     1       5.419   4.720  18.651  0.00  0.00    +0.000 A 
ATOM      5  C   UNL     1       4.677   3.582  19.258  0.00  0.00    +0.000 A 
ATOM      6  O   UNL     1       5.219   2.768  20.000  0.00  0.00    +0.000 OA
ATOM      7  C   UNL     1       3.258   3.463  18.885  0.00  0.00    +0.000 A 
ATOM      8  C   UNL     1       2.694   4.399  18.126  0.00  0.00    +0.000 A 
ATOM      9  N   UNL     1       3.328   5.526  17.677  0.00  0.00    +0.000 N 
ATOM     10  C   UNL     1       4.717   5.657  17.864  0.00  0.00    +0.000 A 
ATOM     11  C   UNL     1       5.417   6.745  17.335  0.00  0.00    +0.000 A 
ATOM     12  C   UNL     1       1.287   4.045  17.784  0.00  0.00    +0.000 C 
ATOM     13  C   UNL     1       1.058   2.717  18.524  0.00  0.00    +0.000 C 
ATOM     14  C   UNL     1       2.367   2.333  19.224  0.00  0.00    +0.000 C 
ATOM     15  H   UNL     1       2.885   6.070  16.948  0.00  0.00    +0.000 HD
ENDROOT
BRANCH   1  17
ATOM     16  C   UNL     1       8.076   8.830  17.854  0.00  0.00    +0.000 C 
ATOM     17  O   UNL     1       7.370   7.974  16.962  0.00  0.00    +0.000 OA
ENDBRANCH   1  17
TORSDOF 1
ENDMDL
MODEL 4
REMARK VINA RESULT:      -7.1      1.897      2.395
REMARK  Name = 
REMARK  2 active torsions:
REMARK  status: ('A' for Active; 'I' for Inactive)
REMARK    1  A    between atoms: C_1  and  O_2
REMARK    2  A    between atoms: O_2  and  C_3
REMARK                            x       y       z     vdW  Elec       q    Type
REMARK                         _______ _______ _______ _____ _____    ______ ____
ROOT
ATOM      1  C   UNL     1       6.351   5.495  16.203  0.00  0.00    +0.000 A 
ATOM      2  C   UNL     1       5.639   6.690  16.343  0.00  0.00    +0.000 A 
ATOM      3  C   UNL     1       4.553   6.761  17.216  0.00  0.00    +0.000 A 
ATOM      4  C   UNL     1       4.217   5.650  17.991  0.00  0.00    +0.000 A 
ATOM      5  C   UNL     1       3.078   5.728  18.944  0.00  0.00    +0.000 A 
ATOM      6  O   UNL     1       2.352   6.715  19.018  0.00  0.00    +0.000 OA
ATOM      7  C   UNL     1       2.893   4.566  19.828  0.00  0.00    +0.000 A 
ATOM      8  C   UNL     1       3.664   3.491  19.676  0.00  0.00    +0.000 A 
ATOM      9  N   UNL     1       4.623   3.350  18.709  0.00  0.00    +0.000 N 
ATOM     10  C   UNL     1       4.967   4.457  17.911  0.00  0.00    +0.000 A 
ATOM     11  C   UNL     1       6.006   4.382  16.981  0.00  0.00    +0.000 A 
ATOM     12  C   UNL     1       3.384   2.469  20.724  0.00  0.00    +0.000 C 
ATOM     13  C   UNL     1       2.242   3.094  21.542  0.00  0.00    +0.000 C 
ATOM     14  C   UNL     1       1.944   4.481  20.958  0.00  0.00    +0.000 C 
ATOM     15  H   UNL     1       5.287   2.593  18.797  0.00  0.00    +0.000 HD
ENDROOT
BRANCH   1  17
ATOM     16  C   UNL     1       7.009   4.828  14.022  0.00  0.00    +0.000 C 
ATOM     17  O   UNL     1       7.375   5.290  15.318  0.00  0.00    +0.000 OA
ENDBRANCH   1  17
TORSDOF 1
ENDMDL
MODEL 5
REMARK VINA RESULT:      -6.9      2.316      5.529
REMARK  Name = 
REMARK  2 active torsions:
REMARK  status: ('A' for Active; 'I' for Inactive)
REMARK    1  A    between atoms: C_1  and  O_2
REMARK    2  A    between atoms: O_2  and  C_3
REMARK                            x       y       z     vdW  Elec       q    Type
REMARK                         _______ _______ _______ _____ _____    ______ ____
ROOT
ATOM      1  C   UNL     1       2.510   4.263  20.921  0.00  0.00    +0.000 A 
ATOM      2  C   UNL     1       2.071   5.563  20.653  0.00  0.00    +0.000 A 
ATOM      3  C   UNL     1       2.582   6.265  19.563  0.00  0.00    +0.000 A 
ATOM      4  C   UNL     1       3.491   5.643  18.706  0.00  0.00    +0.000 A 
ATOM      5  C   UNL     1       4.019   6.377  17.524  0.00  0.00    +0.000 A 
ATOM      6  O   UNL     1       3.753   7.557  17.314  0.00  0.00    +0.000 OA
ATOM      7  C   UNL     1       4.849   5.594  16.595  0.00  0.00    +0.000 A 
ATOM      8  C   UNL     1       5.164   4.335  16.890  0.00  0.00    +0.000 A 
ATOM      9  N   UNL     1       4.803   3.690  18.043  0.00  0.00    +0.000 N 
ATOM     10  C   UNL     1       3.895   4.309  18.923  0.00  0.00    +0.000 A 
ATOM     11  C   UNL     1       3.427   3.645  20.060  0.00  0.00    +0.000 A 
ATOM     12  C   UNL     1       5.925   3.691  15.781  0.00  0.00    +0.000 C 
ATOM     13  C   UNL     1       6.074   4.816  14.744  0.00  0.00    +0.000 C 
ATOM     14  C   UNL     1       5.343   6.054  15.279  0.00  0.00    +0.000 C 
ATOM     15  H   UNL     1       4.912   2.686  18.087  0.00  0.00    +0.000 HD
ENDROOT
BRANCH   1  17
ATOM     16  C   UNL     1       1.352   2.361  21.741  0.00  0.00    +0.000 C 
ATOM     17  O   UNL     1       2.140   3.517  22.007  0.00  0.00    +0.000 OA
ENDBRANCH   1  17
TORSDOF 1
ENDMDL
MODEL 6
REMARK VINA RESULT:      -6.8      1.403      1.480
REMARK  Name = 
REMARK  2 active torsions:
REMARK  status: ('A' for Active; 'I' for Inactive)
REMARK    1  A    between atoms: C_1  and  O_2
REMARK    2  A    between atoms: O_2  and  C_3
REMARK                            x       y       z     vdW  Elec       q    Type
REMARK                         _______ _______ _______ _____ _____    ______ ____
ROOT
ATOM      1  C   UNL     1       6.295   6.262  17.735  0.00  0.00    +0.000 A 
ATOM      2  C   UNL     1       5.242   6.726  16.940  0.00  0.00    +0.000 A 
ATOM      3  C   UNL     1       3.956   6.215  17.112  0.00  0.00    +0.000 A 
ATOM      4  C   UNL     1       3.714   5.281  18.120  0.00  0.00    +0.000 A 
ATOM      5  C   UNL     1       2.338   4.753  18.328  0.00  0.00    +0.000 A 
ATOM      6  O   UNL     1       1.407   5.041  17.582  0.00  0.00    +0.000 OA
ATOM      7  C   UNL     1       2.146   3.894  19.507  0.00  0.00    +0.000 A 
ATOM      8  C   UNL     1       3.194   3.557  20.256  0.00  0.00    +0.000 A 
ATOM      9  N   UNL     1       4.488   3.919  19.996  0.00  0.00    +0.000 N 
ATOM     10  C   UNL     1       4.751   4.852  18.975  0.00  0.00    +0.000 A 
ATOM     11  C   UNL     1       6.047   5.321  18.743  0.00  0.00    +0.000 A 
ATOM     12  C   UNL     1       2.776   2.767  21.450  0.00  0.00    +0.000 C 
ATOM     13  C   UNL     1       1.255   2.628  21.277  0.00  0.00    +0.000 C 
ATOM     14  C   UNL     1       0.850   3.392  20.010  0.00  0.00    +0.000 C 
ATOM     15  H   UNL     1       5.180   3.789  20.722  0.00  0.00    +0.000 HD
ENDROOT
BRANCH   1  17
ATOM     16  C   UNL     1       7.880   8.027  17.658  0.00  0.00    +0.000 C 
ATOM     17  O   UNL     1       7.606   6.631  17.596  0.00  0.00    +0.000 OA
ENDBRANCH   1  17
TORSDOF 1
ENDMDL
MODEL 7
REMARK VINA RESULT:      -6.7      2.145      3.046
REMARK  Name = 
REMARK  2 active torsions:
REMARK  status: ('A' for Active; 'I' for Inactive)
REMARK    1  A    between atoms: C_1  and  O_2
REMARK    2  A    between atoms: O_2  and  C_3
REMARK                            x       y       z     vdW  Elec       q    Type
REMARK                         _______ _______ _______ _____ _____    ______ ____
ROOT
ATOM      1  C   UNL     1       6.551   4.506  15.022  0.00  0.00    +0.000 A 
ATOM      2  C   UNL     1       7.414   4.687  16.106  0.00  0.00    +0.000 A 
ATOM      3  C   UNL     1       6.915   4.683  17.408  0.00  0.00    +0.000 A 
ATOM      4  C   UNL     1       5.559   4.440  17.626  0.00  0.00    +0.000 A 
ATOM      5  C   UNL     1       5.025   4.406  19.015  0.00  0.00    +0.000 A 
ATOM      6  O   UNL     1       5.720   4.675  19.990  0.00  0.00    +0.000 OA
ATOM      7  C   UNL     1       3.620   3.991  19.158  0.00  0.00    +0.000 A 
ATOM      8  C   UNL     1       2.884   3.766  18.072  0.00  0.00    +0.000 A 
ATOM      9  N   UNL     1       3.321   3.931  16.785  0.00  0.00    +0.000 N 
ATOM     10  C   UNL     1       4.685   4.188  16.547  0.00  0.00    +0.000 A 
ATOM     11  C   UNL     1       5.188   4.266  15.246  0.00  0.00    +0.000 A 
ATOM     12  C   UNL     1       1.526   3.265  18.430  0.00  0.00    +0.000 C 
ATOM     13  C   UNL     1       1.535   3.267  19.967  0.00  0.00    +0.000 C 
ATOM     14  C   UNL     1       2.923   3.723  20.433  0.00  0.00    +0.000 C 
ATOM     15  H   UNL     1       2.764   3.546  16.034  0.00  0.00    +0.000 HD
ENDROOT
BRANCH   1  17
ATOM     16  C   UNL     1       6.278   3.661  12.821  0.00  0.00    +0.000 C 
ATOM     17  O   UNL     1       6.918   4.575  13.705  0.00  0.00    +0.000 OA
ENDBRANCH   1  17
TORSDOF 1
ENDMDL
MODEL 8
REMARK VINA RESULT:      -6.6      1.997      5.420
REMARK  Name = 
REMARK  2 active torsions:
REMARK  status: ('A' for Active; 'I' for Inactive)
REMARK    1  A    between atoms: C_1  and  O_2
REMARK    2  A    between atoms: O_2  and  C_3
REMARK                            x       y       z     vdW  Elec       q    Type
REMARK                         _______ _______ _______ _____ _____    ______ ____
ROOT
ATOM      1  C   UNL     1       2.113   3.221  19.499  0.00  0.00    +0.000 A 
ATOM      2  C   UNL     1       1.515   3.986  18.493  0.00  0.00    +0.000 A 
ATOM      3  C   UNL     1       2.222   5.026  17.889  0.00  0.00    +0.000 A 
ATOM      4  C   UNL     1       3.548   5.262  18.254  0.00  0.00    +0.000 A 
ATOM      5  C   UNL     1       4.316   6.352  17.594  0.00  0.00    +0.000 A 
ATOM      6  O   UNL     1       3.800   7.123  16.791  0.00  0.00    +0.000 OA
ATOM      7  C   UNL     1       5.747   6.429  17.929  0.00  0.00    +0.000 A 
ATOM      8  C   UNL     1       6.255   5.613  18.849  0.00  0.00    +0.000 A 
ATOM      9  N   UNL     1       5.530   4.700  19.568  0.00  0.00    +0.000 N 
ATOM     10  C   UNL     1       4.188   4.457  19.220  0.00  0.00    +0.000 A 
ATOM     11  C   UNL     1       3.444   3.466  19.864  0.00  0.00    +0.000 A 
ATOM     12  C   UNL     1       7.731   5.783  18.971  0.00  0.00    +0.000 C 
ATOM     13  C   UNL     1       8.048   6.911  17.976  0.00  0.00    +0.000 C 
ATOM     14  C   UNL     1       6.741   7.310  17.280  0.00  0.00    +0.000 C 
ATOM     15  H   UNL     1       6.029   3.993  20.091  0.00  0.00    +0.000 HD
ENDROOT
BRANCH   1  17
ATOM     16  C   UNL     1       1.393   2.437  21.620  0.00  0.00    +0.000 C 
ATOM     17  O   UNL     1       1.487   2.236  20.214  0.00  0.00    +0.000 OA
ENDBRANCH   1  17
TORSDOF 1
ENDMDL
MODEL 9
REMARK VINA RESULT:      -6.5      3.744      4.761
REMARK  Name = 
REMARK  2 active torsions:
REMARK  status: ('A' for Active; 'I' for Inactive)
REMARK    1  A    between atoms: C_1  and  O_2
REMARK    2  A    between atoms: O_2  and  C_3
REMARK                            x       y       z     vdW  Elec       q    Type
REMARK                         _______ _______ _______ _____ _____    ______ ____
ROOT
ATOM      1  C   UNL     1       4.127   4.847  18.676  0.00  0.00    +0.000 A 
ATOM      2  C   UNL     1       4.269   5.636  17.531  0.00  0.00    +0.000 A 
ATOM      3  C   UNL     1       3.568   6.835  17.414  0.00  0.00    +0.000 A 
ATOM      4  C   UNL     1       2.768   7.272  18.471  0.00  0.00    +0.000 A 
ATOM      5  C   UNL     1       2.039   8.565  18.364  0.00  0.00    +0.000 A 
ATOM      6  O   UNL     1       2.040   9.234  17.335  0.00  0.00    +0.000 OA
ATOM      7  C   UNL     1       1.347   9.020  19.580  0.00  0.00    +0.000 A 
ATOM      8  C   UNL     1       1.319   8.237  20.657  0.00  0.00    +0.000 A 
ATOM      9  N   UNL     1       1.865   6.982  20.723  0.00  0.00    +0.000 N 
ATOM     10  C   UNL     1       2.666   6.521  19.661  0.00  0.00    +0.000 A 
ATOM     11  C   UNL     1       3.319   5.289  19.732  0.00  0.00    +0.000 A 
ATOM     12  C   UNL     1       0.656   8.916  21.806  0.00  0.00    +0.000 C 
ATOM     13  C   UNL     1       0.222  10.271  21.223  0.00  0.00    +0.000 C 
ATOM     14  C   UNL     1       0.702  10.337  19.768  0.00  0.00    +0.000 C 
ATOM     15  H   UNL     1       1.972   6.552  21.631  0.00  0.00    +0.000 HD
ENDROOT
BRANCH   1  17
ATOM     16  C   UNL     1       4.061   2.754  19.795  0.00  0.00    +0.000 C 
ATOM     17  O   UNL     1       4.700   3.617  18.859  0.00  0.00    +0.000 OA
ENDBRANCH   1  17
TORSDOF 1
ENDMDL
