MODEL 1
REMARK VINA RESULT:      -8.5      0.000      0.000
REMARK  Name = 
REMARK  6 active torsions:
REMARK  status: ('A' for Active; 'I' for Inactive)
REMARK    1  A    between atoms: C_1  and  C_2
REMARK    2  A    between atoms: C_2  and  C_3
REMARK    3  A    between atoms: C_2  and  C_16
REMARK    4  A    between atoms: C_6  and  C_7
REMARK    5  A    between atoms: C_16  and  N_17
REMARK    6  A    between atoms: C_16  and  C_18
REMARK                            x       y       z     vdW  Elec       q    Type
REMARK                         _______ _______ _______ _____ _____    ______ ____
ROOT
ATOM      1  C   UNL     1       1.067   9.185  22.280  0.00  0.00    +0.000 C 
ATOM      2  C   UNL     1       0.608   9.262  20.818  0.00  0.00    +0.000 C 
ENDROOT
BRANCH   2   3
ATOM      3  C   UNL     1       1.499   8.394  19.928  0.00  0.00    +0.000 A 
ATOM      4  C   UNL     1       1.880   8.832  18.659  0.00  0.00    +0.000 A 
ATOM      5  C   UNL     1       2.683   8.036  17.830  0.00  0.00    +0.000 A 
ATOM      6  C   UNL     1       3.150   6.774  18.238  0.00  0.00    +0.000 A 
ATOM      7  C   UNL     1       2.775   6.348  19.525  0.00  0.00    +0.000 A 
ATOM      8  C   UNL     1       1.961   7.136  20.347  0.00  0.00    +0.000 A 
BRANCH   6   9
ATOM      9  C   UNL     1       3.990   5.924  17.355  0.00  0.00    +0.000 A 
ATOM     10  C   UNL     1       4.856   6.490  16.404  0.00  0.00    +0.000 A 
ATOM     11  C   UNL     1       5.626   5.695  15.548  0.00  0.00    +0.000 A 
ATOM     12  C   UNL     1       5.548   4.312  15.647  0.00  0.00    +0.000 A 
ATOM     13  F   UNL     1       6.283   3.547  14.829  0.00  0.00    +0.000 F 
ATOM     14  C   UNL     1       4.711   3.715  16.578  0.00  0.00    +0.000 A 
ATOM     15  C   UNL     1       3.934   4.515  17.419  0.00  0.00    +0.000 A 
ENDBRANCH   6   9
ENDBRANCH   2   3
BRANCH   2  16
ATOM     16  C   UNL     1       0.457  10.709  20.267  0.00  0.00    +0.000 C 
BRANCH  16  17
ATOM     17  C   UNL     1      -1.017  11.199  20.154  0.00  0.00    +0.000 C 
ATOM     18  O   UNL     1      -1.543  11.801  21.097  0.00  0.00    +0.000 OA
ATOM     19  N   UNL     1      -1.679  11.062  18.955  0.00  0.00    +0.000 N 
ATOM     20  C   UNL     1      -2.937  11.760  18.731  0.00  0.00    +0.000 C 
ATOM     21  C   UNL     1      -3.348  11.401  17.310  0.00  0.00    +0.000 C 
ATOM     22  C   UNL     1      -2.753  10.016  17.140  0.00  0.00    +0.000 C 
ATOM     23  F   UNL     1      -3.559   9.118  17.774  0.00  0.00    +0.000 F 
ATOM     24  C   UNL     1      -1.424  10.104  17.887  0.00  0.00    +0.000 C 
ENDBRANCH  16  17
BRANCH  16  25
ATOM     25  N   UNL     1       1.180  11.725  21.087  0.00  0.00    +0.000 NA
ATOM     26  H   UNL     1       0.994  12.636  20.656  0.00  0.00    +0.000 HD
ATOM     27  H   UNL     1       2.181  11.598  20.923  0.00  0.00    +0.000 HD
ENDBRANCH  16  25
ENDBRANCH   2  16
TORSDOF 5
ENDMDL
MODEL 2
REMARK VINA RESULT:      -8.5      0.075      1.360
REMARK  Name = 
REMARK  6 active torsions:
REMARK  status: ('A' for Active; 'I' for Inactive)
REMARK    1  A    between atoms: C_1  and  C_2
REMARK    2  A    between atoms: C_2  and  C_3
REMARK    3  A    between atoms: C_2  and  C_16
REMARK    4  A    between atoms: C_6  and  C_7
REMARK    5  A    between atoms: C_16  and  N_17
REMARK    6  A    between atoms: C_16  and  C_18
REMARK                            x       y       z     vdW  Elec       q    Type
REMARK                         _______ _______ _______ _____ _____    ______ ____
ROOT
ATOM      1  C   UNL     1       1.115   9.236  22.284  0.00  0.00    +0.000 C 
ATOM      2  C   UNL     1       0.616   9.319  20.835  0.00  0.00    +0.000 C 
ENDROOT
BRANCH   2   3
ATOM      3  C   UNL     1       1.475   8.447  19.919  0.00  0.00    +0.000 A 
ATOM      4  C   UNL     1       1.909   7.188  20.337  0.00  0.00    +0.000 A 
ATOM      5  C   UNL     1       2.710   6.387  19.510  0.00  0.00    +0.000 A 
ATOM      6  C   UNL     1       3.100   6.804  18.224  0.00  0.00    +0.000 A 
ATOM      7  C   UNL     1       2.643   8.067  17.805  0.00  0.00    +0.000 A 
ATOM      8  C   UNL     1       1.857   8.872  18.636  0.00  0.00    +0.000 A 
BRANCH   6   9
ATOM      9  C   UNL     1       3.959   5.963  17.352  0.00  0.00    +0.000 A 
ATOM     10  C   UNL     1       3.916   4.559  17.419  0.00  0.00    +0.000 A 
ATOM     11  C   UNL     1       4.745   3.761  16.623  0.00  0.00    +0.000 A 
ATOM     12  C   UNL     1       5.623   4.366  15.733  0.00  0.00    +0.000 A 
ATOM     13  F   UNL     1       6.419   3.605  14.969  0.00  0.00    +0.000 F 
ATOM     14  C   UNL     1       5.690   5.747  15.631  0.00  0.00    +0.000 A 
ATOM     15  C   UNL     1       4.870   6.538  16.441  0.00  0.00    +0.000 A 
ENDBRANCH   6   9
ENDBRANCH   2   3
BRANCH   2  16
ATOM     16  C   UNL     1       0.459  10.768  20.292  0.00  0.00    +0.000 C 
BRANCH  16  17
ATOM     17  C   UNL     1      -1.017  11.249  20.172  0.00  0.00    +0.000 C 
ATOM     18  O   UNL     1      -1.545  11.866  21.104  0.00  0.00    +0.000 OA
ATOM     19  N   UNL     1      -1.681  11.088  18.976  0.00  0.00    +0.000 N 
ATOM     20  C   UNL     1      -2.942  11.776  18.742  0.00  0.00    +0.000 C 
ATOM     21  C   UNL     1      -3.352  11.390  17.327  0.00  0.00    +0.000 C 
ATOM     22  C   UNL     1      -2.752  10.005  17.181  0.00  0.00    +0.000 C 
ATOM     23  F   UNL     1      -3.552   9.114  17.833  0.00  0.00    +0.000 F 
ATOM     24  C   UNL     1      -1.422  10.112  17.925  0.00  0.00    +0.000 C 
ENDBRANCH  16  17
BRANCH  16  25
ATOM     25  N   UNL     1       1.170  11.784  21.122  0.00  0.00    +0.000 NA
ATOM     26  H   UNL     1       1.037  11.508  22.101  0.00  0.00    +0.000 HD
ATOM     27  H   UNL     1       0.643  12.657  21.060  0.00  0.00    +0.000 HD
ENDBRANCH  16  25
ENDBRANCH   2  16
TORSDOF 5
ENDMDL
MODEL 3
REMARK VINA RESULT:      -8.0      6.142      8.298
REMARK  Name = 
REMARK  6 active torsions:
REMARK  status: ('A' for Active; 'I' for Inactive)
REMARK    1  A    between atoms: C_1  and  C_2
REMARK    2  A    between atoms: C_2  and  C_3
REMARK    3  A    between atoms: C_2  and  C_16
REMARK    4  A    between atoms: C_6  and  C_7
REMARK    5  A    between atoms: C_16  and  N_17
REMARK    6  A    between atoms: C_16  and  C_18
REMARK                            x       y       z     vdW  Elec       q    Type
REMARK                         _______ _______ _______ _____ _____    ______ ____
ROOT
ATOM      1  C   UNL     1       7.154   4.402  16.646  0.00  0.00    +0.000 C 
ATOM      2  C   UNL     1       6.227   5.452  17.271  0.00  0.00    +0.000 C 
ENDROOT
BRANCH   2   3
ATOM      3  C   UNL     1       7.021   6.692  17.687  0.00  0.00    +0.000 A 
ATOM      4  C   UNL     1       7.945   6.627  18.730  0.00  0.00    +0.000 A 
ATOM      5  C   UNL     1       8.666   7.762  19.129  0.00  0.00    +0.000 A 
ATOM      6  C   UNL     1       8.504   9.006  18.493  0.00  0.00    +0.000 A 
ATOM      7  C   UNL     1       7.582   9.057  17.432  0.00  0.00    +0.000 A 
ATOM      8  C   UNL     1       6.852   7.929  17.044  0.00  0.00    +0.000 A 
BRANCH   6   9
ATOM      9  C   UNL     1       9.257  10.213  18.923  0.00  0.00    +0.000 A 
ATOM     10  C   UNL     1       9.907  11.039  17.990  0.00  0.00    +0.000 A 
ATOM     11  C   UNL     1      10.644  12.159  18.391  0.00  0.00    +0.000 A 
ATOM     12  C   UNL     1      10.726  12.474  19.741  0.00  0.00    +0.000 A 
ATOM     13  F   UNL     1      11.431  13.545  20.129  0.00  0.00    +0.000 F 
ATOM     14  C   UNL     1      10.092  11.688  20.692  0.00  0.00    +0.000 A 
ATOM     15  C   UNL     1       9.371  10.562  20.285  0.00  0.00    +0.000 A 
ENDBRANCH   6   9
ENDBRANCH   2   3
BRANCH   2  16
ATOM     16  C   UNL     1       5.329   4.914  18.422  0.00  0.00    +0.000 C 
BRANCH  16  17
ATOM     17  C   UNL     1       3.852   4.645  18.007  0.00  0.00    +0.000 C 
ATOM     18  O   UNL     1       3.521   4.710  16.818  0.00  0.00    +0.000 OA
ATOM     19  N   UNL     1       2.955   4.216  18.960  0.00  0.00    +0.000 N 
ATOM     20  C   UNL     1       1.661   3.684  18.558  0.00  0.00    +0.000 C 
ATOM     21  C   UNL     1       0.970   3.290  19.856  0.00  0.00    +0.000 C 
ATOM     22  C   UNL     1       1.550   4.279  20.848  0.00  0.00    +0.000 C 
ATOM     23  F   UNL     1       0.920   5.477  20.685  0.00  0.00    +0.000 F 
ATOM     24  C   UNL     1       3.005   4.420  20.403  0.00  0.00    +0.000 C 
ENDBRANCH  16  17
BRANCH  16  25
ATOM     25  N   UNL     1       5.841   3.646  19.018  0.00  0.00    +0.000 NA
ATOM     26  H   UNL     1       5.292   3.478  19.868  0.00  0.00    +0.000 HD
ATOM     27  H   UNL     1       6.776   3.833  19.386  0.00  0.00    +0.000 HD
ENDBRANCH  16  25
ENDBRANCH   2  16
TORSDOF 5
ENDMDL
MODEL 4
REMARK VINA RESULT:      -8.0      3.891      8.513
REMARK  Name = 
REMARK  6 active torsions:
REMARK  status: ('A' for Active; 'I' for Inactive)
REMARK    1  A    between atoms: C_1  and  C_2
REMARK    2  A    between atoms: C_2  and  C_3
REMARK    3  A    between atoms: C_2  and  C_16
REMARK    4  A    between atoms: C_6  and  C_7
REMARK    5  A    between atoms: C_16  and  N_17
REMARK    6  A    between atoms: C_16  and  C_18
REMARK                            x       y       z     vdW  Elec       q    Type
REMARK                         _______ _______ _______ _____ _____    ______ ____
ROOT
ATOM      1  C   UNL     1       1.942   4.894  20.308  0.00  0.00    +0.000 C 
ATOM      2  C   UNL     1       2.658   5.612  19.155  0.00  0.00    +0.000 C 
ENDROOT
BRANCH   2   3
ATOM      3  C   UNL     1       2.212   7.073  19.072  0.00  0.00    +0.000 A 
ATOM      4  C   UNL     1       1.655   7.711  20.181  0.00  0.00    +0.000 A 
ATOM      5  C   UNL     1       1.230   9.045  20.110  0.00  0.00    +0.000 A 
ATOM      6  C   UNL     1       1.355   9.803  18.932  0.00  0.00    +0.000 A 
ATOM      7  C   UNL     1       1.933   9.156  17.824  0.00  0.00    +0.000 A 
ATOM      8  C   UNL     1       2.344   7.821  17.891  0.00  0.00    +0.000 A 
BRANCH   6   9
ATOM      9  C   UNL     1       0.892  11.213  18.851  0.00  0.00    +0.000 A 
ATOM     10  C   UNL     1      -0.473  11.539  18.930  0.00  0.00    +0.000 A 
ATOM     11  C   UNL     1      -0.919  12.861  18.823  0.00  0.00    +0.000 A 
ATOM     12  C   UNL     1       0.008  13.881  18.650  0.00  0.00    +0.000 A 
ATOM     13  F   UNL     1      -0.414  15.148  18.546  0.00  0.00    +0.000 F 
ATOM     14  C   UNL     1       1.364  13.601  18.574  0.00  0.00    +0.000 A 
ATOM     15  C   UNL     1       1.800  12.276  18.666  0.00  0.00    +0.000 A 
ENDBRANCH   6   9
ENDBRANCH   2   3
BRANCH   2  16
ATOM     16  C   UNL     1       2.556   4.886  17.784  0.00  0.00    +0.000 C 
BRANCH  16  17
ATOM     17  C   UNL     1       3.787   3.996  17.439  0.00  0.00    +0.000 C 
ATOM     18  O   UNL     1       3.776   2.791  17.718  0.00  0.00    +0.000 OA
ATOM     19  N   UNL     1       4.826   4.538  16.717  0.00  0.00    +0.000 N 
ATOM     20  C   UNL     1       5.841   3.672  16.136  0.00  0.00    +0.000 C 
ATOM     21  C   UNL     1       6.790   4.606  15.397  0.00  0.00    +0.000 C 
ATOM     22  C   UNL     1       6.693   5.880  16.213  0.00  0.00    +0.000 C 
ATOM     23  F   UNL     1       7.451   5.734  17.337  0.00  0.00    +0.000 F 
ATOM     24  C   UNL     1       5.220   5.938  16.613  0.00  0.00    +0.000 C 
ENDBRANCH  16  17
BRANCH  16  25
ATOM     25  N   UNL     1       1.354   4.009  17.675  0.00  0.00    +0.000 NA
ATOM     26  H   UNL     1       1.185   3.624  18.610  0.00  0.00    +0.000 HD
ATOM     27  H   UNL     1       1.623   3.183  17.136  0.00  0.00    +0.000 HD
ENDBRANCH  16  25
ENDBRANCH   2  16
TORSDOF 5
ENDMDL
MODEL 5
REMARK VINA RESULT:      -7.9      4.279      8.234
REMARK  Name = 
REMARK  6 active torsions:
REMARK  status: ('A' for Active; 'I' for Inactive)
REMARK    1  A    between atoms: C_1  and  C_2
REMARK    2  A    between atoms: C_2  and  C_3
REMARK    3  A    between atoms: C_2  and  C_16
REMARK    4  A    between atoms: C_6  and  C_7
REMARK    5  A    between atoms: C_16  and  N_17
REMARK    6  A    between atoms: C_16  and  C_18
REMARK                            x       y       z     vdW  Elec       q    Type
REMARK                         _______ _______ _______ _____ _____    ______ ____
ROOT
ATOM      1  C   UNL     1       1.281   2.510  19.419  0.00  0.00    +0.000 C 
ATOM      2  C   UNL     1       2.599   3.297  19.425  0.00  0.00    +0.000 C 
ENDROOT
BRANCH   2   3
ATOM      3  C   UNL     1       2.328   4.801  19.398  0.00  0.00    +0.000 A 
ATOM      4  C   UNL     1       2.010   5.488  20.570  0.00  0.00    +0.000 A 
ATOM      5  C   UNL     1       1.744   6.865  20.553  0.00  0.00    +0.000 A 
ATOM      6  C   UNL     1       1.798   7.617  19.365  0.00  0.00    +0.000 A 
ATOM      7  C   UNL     1       2.136   6.919  18.192  0.00  0.00    +0.000 A 
ATOM      8  C   UNL     1       2.386   5.543  18.207  0.00  0.00    +0.000 A 
BRANCH   6   9
ATOM      9  C   UNL     1       1.503   9.073  19.343  0.00  0.00    +0.000 A 
ATOM     10  C   UNL     1       1.900   9.882  18.264  0.00  0.00    +0.000 A 
ATOM     11  C   UNL     1       1.653  11.259  18.250  0.00  0.00    +0.000 A 
ATOM     12  C   UNL     1       0.987  11.843  19.320  0.00  0.00    +0.000 A 
ATOM     13  F   UNL     1       0.749  13.162  19.312  0.00  0.00    +0.000 F 
ATOM     14  C   UNL     1       0.573  11.078  20.400  0.00  0.00    +0.000 A 
ATOM     15  C   UNL     1       0.837   9.705  20.413  0.00  0.00    +0.000 A 
ENDBRANCH   6   9
ENDBRANCH   2   3
BRANCH   2  16
ATOM     16  C   UNL     1       3.613   2.861  18.330  0.00  0.00    +0.000 C 
BRANCH  16  17
ATOM     17  C   UNL     1       4.950   3.660  18.342  0.00  0.00    +0.000 C 
ATOM     18  O   UNL     1       5.568   3.816  19.402  0.00  0.00    +0.000 OA
ATOM     19  N   UNL     1       5.492   4.080  17.148  0.00  0.00    +0.000 N 
ATOM     20  C   UNL     1       6.863   4.567  17.100  0.00  0.00    +0.000 C 
ATOM     21  C   UNL     1       7.117   4.903  15.637  0.00  0.00    +0.000 C 
ATOM     22  C   UNL     1       5.737   5.299  15.149  0.00  0.00    +0.000 C 
ATOM     23  F   UNL     1       5.478   6.571  15.566  0.00  0.00    +0.000 F 
ATOM     24  C   UNL     1       4.808   4.337  15.887  0.00  0.00    +0.000 C 
ENDBRANCH  16  17
BRANCH  16  25
ATOM     25  N   UNL     1       3.981   1.417  18.415  0.00  0.00    +0.000 NA
ATOM     26  H   UNL     1       4.668   1.333  19.172  0.00  0.00    +0.000 HD
ATOM     27  H   UNL     1       4.532   1.190  17.584  0.00  0.00    +0.000 HD
ENDBRANCH  16  25
ENDBRANCH   2  16
TORSDOF 5
ENDMDL
MODEL 6
REMARK VINA RESULT:      -7.9      3.897      8.461
REMARK  Name = 
REMARK  6 active torsions:
REMARK  status: ('A' for Active; 'I' for Inactive)
REMARK    1  A    between atoms: C_1  and  C_2
REMARK    2  A    between atoms: C_2  and  C_3
REMARK    3  A    between atoms: C_2  and  C_16
REMARK    4  A    between atoms: C_6  and  C_7
REMARK    5  A    between atoms: C_16  and  N_17
REMARK    6  A    between atoms: C_16  and  C_18
REMARK                            x       y       z     vdW  Elec       q    Type
REMARK                         _______ _______ _______ _____ _____    ______ ____
ROOT
ATOM      1  C   UNL     1       2.044   4.935  20.305  0.00  0.00    +0.000 C 
ATOM      2  C   UNL     1       2.711   5.672  19.136  0.00  0.00    +0.000 C 
ENDROOT
BRANCH   2   3
ATOM      3  C   UNL     1       2.223   7.119  19.062  0.00  0.00    +0.000 A 
ATOM      4  C   UNL     1       2.285   7.831  17.864  0.00  0.00    +0.000 A 
ATOM      5  C   UNL     1       1.855   9.164  17.790  0.00  0.00    +0.000 A 
ATOM      6  C   UNL     1       1.331   9.838  18.909  0.00  0.00    +0.000 A 
ATOM      7  C   UNL     1       1.257   9.107  20.108  0.00  0.00    +0.000 A 
ATOM      8  C   UNL     1       1.700   7.782  20.185  0.00  0.00    +0.000 A 
BRANCH   6   9
ATOM      9  C   UNL     1       0.888  11.254  18.836  0.00  0.00    +0.000 A 
ATOM     10  C   UNL     1       1.785  12.313  19.060  0.00  0.00    +0.000 A 
ATOM     11  C   UNL     1       1.367  13.648  19.024  0.00  0.00    +0.000 A 
ATOM     12  C   UNL     1       0.038  13.940  18.745  0.00  0.00    +0.000 A 
ATOM     13  F   UNL     1      -0.366  15.216  18.710  0.00  0.00    +0.000 F 
ATOM     14  C   UNL     1      -0.876  12.923  18.511  0.00  0.00    +0.000 A 
ATOM     15  C   UNL     1      -0.455  11.592  18.564  0.00  0.00    +0.000 A 
ENDBRANCH   6   9
ENDBRANCH   2   3
BRANCH   2  16
ATOM     16  C   UNL     1       2.597   4.942  17.767  0.00  0.00    +0.000 C 
BRANCH  16  17
ATOM     17  C   UNL     1       3.824   4.051  17.414  0.00  0.00    +0.000 C 
ATOM     18  O   UNL     1       3.803   2.840  17.665  0.00  0.00    +0.000 OA
ATOM     19  N   UNL     1       4.874   4.601  16.713  0.00  0.00    +0.000 N 
ATOM     20  C   UNL     1       5.889   3.741  16.123  0.00  0.00    +0.000 C 
ATOM     21  C   UNL     1       6.851   4.684  15.414  0.00  0.00    +0.000 C 
ATOM     22  C   UNL     1       6.756   5.941  16.258  0.00  0.00    +0.000 C 
ATOM     23  F   UNL     1       7.501   5.764  17.385  0.00  0.00    +0.000 F 
ATOM     24  C   UNL     1       5.279   6.000  16.645  0.00  0.00    +0.000 C 
ENDBRANCH  16  17
BRANCH  16  25
ATOM     25  N   UNL     1       1.394   4.064  17.671  0.00  0.00    +0.000 NA
ATOM     26  H   UNL     1       1.693   3.124  17.950  0.00  0.00    +0.000 HD
ATOM     27  H   UNL     1       1.176   3.947  16.680  0.00  0.00    +0.000 HD
ENDBRANCH  16  25
ENDBRANCH   2  16
TORSDOF 5
ENDMDL
MODEL 7
REMARK VINA RESULT:      -7.8      4.130      8.217
REMARK  Name = 
REMARK  6 active torsions:
REMARK  status: ('A' for Active; 'I' for Inactive)
REMARK    1  A    between atoms: C_1  and  C_2
REMARK    2  A    between atoms: C_2  and  C_3
REMARK    3  A    between atoms: C_2  and  C_16
REMARK    4  A    between atoms: C_6  and  C_7
REMARK    5  A    between atoms: C_16  and  N_17
REMARK    6  A    between atoms: C_16  and  C_18
REMARK                            x       y       z     vdW  Elec       q    Type
REMARK                         _______ _______ _______ _____ _____    ______ ____
ROOT
ATOM      1  C   UNL     1       2.134   2.389  17.905  0.00  0.00    +0.000 C 
ATOM      2  C   UNL     1       2.913   3.022  19.067  0.00  0.00    +0.000 C 
ENDROOT
BRANCH   2   3
ATOM      3  C   UNL     1       2.571   4.506  19.199  0.00  0.00    +0.000 A 
ATOM      4  C   UNL     1       2.273   5.059  20.445  0.00  0.00    +0.000 A 
ATOM      5  C   UNL     1       1.942   6.415  20.574  0.00  0.00    +0.000 A 
ATOM      6  C   UNL     1       1.908   7.281  19.466  0.00  0.00    +0.000 A 
ATOM      7  C   UNL     1       2.226   6.718  18.217  0.00  0.00    +0.000 A 
ATOM      8  C   UNL     1       2.541   5.361  18.085  0.00  0.00    +0.000 A 
BRANCH   6   9
ATOM      9  C   UNL     1       1.545   8.715  19.599  0.00  0.00    +0.000 A 
ATOM     10  C   UNL     1       1.060   9.236  20.811  0.00  0.00    +0.000 A 
ATOM     11  C   UNL     1       0.686  10.579  20.935  0.00  0.00    +0.000 A 
ATOM     12  C   UNL     1       0.810  11.425  19.841  0.00  0.00    +0.000 A 
ATOM     13  F   UNL     1       0.453  12.711  19.955  0.00  0.00    +0.000 F 
ATOM     14  C   UNL     1       1.292  10.951  18.630  0.00  0.00    +0.000 A 
ATOM     15  C   UNL     1       1.649   9.605  18.510  0.00  0.00    +0.000 A 
ENDBRANCH   6   9
ENDBRANCH   2   3
BRANCH   2  16
ATOM     16  C   UNL     1       4.448   2.773  19.022  0.00  0.00    +0.000 C 
BRANCH  16  17
ATOM     17  C   UNL     1       5.299   4.062  18.825  0.00  0.00    +0.000 C 
ATOM     18  O   UNL     1       5.632   4.740  19.804  0.00  0.00    +0.000 OA
ATOM     19  N   UNL     1       5.775   4.367  17.569  0.00  0.00    +0.000 N 
ATOM     20  C   UNL     1       6.798   5.388  17.404  0.00  0.00    +0.000 C 
ATOM     21  C   UNL     1       7.091   5.424  15.910  0.00  0.00    +0.000 C 
ATOM     22  C   UNL     1       5.759   5.020  15.308  0.00  0.00    +0.000 C 
ATOM     23  F   UNL     1       4.925   6.099  15.336  0.00  0.00    +0.000 F 
ATOM     24  C   UNL     1       5.234   3.963  16.277  0.00  0.00    +0.000 C 
ENDBRANCH  16  17
BRANCH  16  25
ATOM     25  N   UNL     1       4.967   2.106  20.251  0.00  0.00    +0.000 NA
ATOM     26  H   UNL     1       4.150   1.860  20.820  0.00  0.00    +0.000 HD
ATOM     27  H   UNL     1       5.430   2.820  20.818  0.00  0.00    +0.000 HD
ENDBRANCH  16  25
ENDBRANCH   2  16
TORSDOF 5
ENDMDL
MODEL 8
REMARK VINA RESULT:      -7.8      4.178      8.337
REMARK  Name = 
REMARK  6 active torsions:
REMARK  status: ('A' for Active; 'I' for Inactive)
REMARK    1  A    between atoms: C_1  and  C_2
REMARK    2  A    between atoms: C_2  and  C_3
REMARK    3  A    between atoms: C_2  and  C_16
REMARK    4  A    between atoms: C_6  and  C_7
REMARK    5  A    between atoms: C_16  and  N_17
REMARK    6  A    between atoms: C_16  and  C_18
REMARK                            x       y       z     vdW  Elec       q    Type
REMARK                         _______ _______ _______ _____ _____    ______ ____
ROOT
ATOM      1  C   UNL     1       2.501   2.760  17.257  0.00  0.00    +0.000 C 
ATOM      2  C   UNL     1       3.032   3.075  18.662  0.00  0.00    +0.000 C 
ENDROOT
BRANCH   2   3
ATOM      3  C   UNL     1       2.605   4.478  19.095  0.00  0.00    +0.000 A 
ATOM      4  C   UNL     1       2.191   4.723  20.406  0.00  0.00    +0.000 A 
ATOM      5  C   UNL     1       1.783   6.002  20.809  0.00  0.00    +0.000 A 
ATOM      6  C   UNL     1       1.784   7.095  19.923  0.00  0.00    +0.000 A 
ATOM      7  C   UNL     1       2.219   6.843  18.610  0.00  0.00    +0.000 A 
ATOM      8  C   UNL     1       2.611   5.563  18.203  0.00  0.00    +0.000 A 
BRANCH   6   9
ATOM      9  C   UNL     1       1.339   8.449  20.345  0.00  0.00    +0.000 A 
ATOM     10  C   UNL     1       1.204   9.496  19.417  0.00  0.00    +0.000 A 
ATOM     11  C   UNL     1       0.815  10.780  19.812  0.00  0.00    +0.000 A 
ATOM     12  C   UNL     1       0.541  11.029  21.151  0.00  0.00    +0.000 A 
ATOM     13  F   UNL     1       0.169  12.258  21.534  0.00  0.00    +0.000 F 
ATOM     14  C   UNL     1       0.656  10.020  22.096  0.00  0.00    +0.000 A 
ATOM     15  C   UNL     1       1.059   8.744  21.696  0.00  0.00    +0.000 A 
ENDBRANCH   6   9
ENDBRANCH   2   3
BRANCH   2  16
ATOM     16  C   UNL     1       4.559   2.843  18.839  0.00  0.00    +0.000 C 
BRANCH  16  17
ATOM     17  C   UNL     1       5.423   4.131  18.697  0.00  0.00    +0.000 C 
ATOM     18  O   UNL     1       5.771   4.757  19.705  0.00  0.00    +0.000 OA
ATOM     19  N   UNL     1       5.892   4.491  17.453  0.00  0.00    +0.000 N 
ATOM     20  C   UNL     1       6.925   5.508  17.328  0.00  0.00    +0.000 C 
ATOM     21  C   UNL     1       7.206   5.613  15.836  0.00  0.00    +0.000 C 
ATOM     22  C   UNL     1       5.865   5.253  15.226  0.00  0.00    +0.000 C 
ATOM     23  F   UNL     1       5.043   6.338  15.314  0.00  0.00    +0.000 F 
ATOM     24  C   UNL     1       5.337   4.155  16.148  0.00  0.00    +0.000 C 
ENDBRANCH  16  17
BRANCH  16  25
ATOM     25  N   UNL     1       4.909   2.241  20.159  0.00  0.00    +0.000 NA
ATOM     26  H   UNL     1       5.621   2.848  20.579  0.00  0.00    +0.000 HD
ATOM     27  H   UNL     1       5.427   1.379  19.978  0.00  0.00    +0.000 HD
ENDBRANCH  16  25
ENDBRANCH   2  16
TORSDOF 5
ENDMDL
MODEL 9
REMARK VINA RESULT:      -7.7      3.791      8.267
REMARK  Name = 
REMARK  6 active torsions:
REMARK  status: ('A' for Active; 'I' for Inactive)
REMARK    1  A    between atoms: C_1  and  C_2
REMARK    2  A    between atoms: C_2  and  C_3
REMARK    3  A    between atoms: C_2  and  C_16
REMARK    4  A    between atoms: C_6  and  C_7
REMARK    5  A    between atoms: C_16  and  N_17
REMARK    6  A    between atoms: C_16  and  C_18
REMARK                            x       y       z     vdW  Elec       q    Type
REMARK                         _______ _______ _______ _____ _____    ______ ____
ROOT
ATOM      1  C   UNL     1       1.596   4.357  20.898  0.00  0.00    +0.000 C 
ATOM      2  C   UNL     1       2.714   5.156  20.216  0.00  0.00    +0.000 C 
ENDROOT
BRANCH   2   3
ATOM      3  C   UNL     1       2.242   6.574  19.892  0.00  0.00    +0.000 A 
ATOM      4  C   UNL     1       1.587   7.343  20.855  0.00  0.00    +0.000 A 
ATOM      5  C   UNL     1       1.136   8.638  20.563  0.00  0.00    +0.000 A 
ATOM      6  C   UNL     1       1.333   9.226  19.299  0.00  0.00    +0.000 A 
ATOM      7  C   UNL     1       2.008   8.449  18.341  0.00  0.00    +0.000 A 
ATOM      8  C   UNL     1       2.445   7.151  18.628  0.00  0.00    +0.000 A 
BRANCH   6   9
ATOM      9  C   UNL     1       0.844  10.593  18.984  0.00  0.00    +0.000 A 
ATOM     10  C   UNL     1      -0.530  10.873  18.889  0.00  0.00    +0.000 A 
ATOM     11  C   UNL     1      -0.997  12.151  18.562  0.00  0.00    +0.000 A 
ATOM     12  C   UNL     1      -0.085  13.174  18.339  0.00  0.00    +0.000 A 
ATOM     13  F   UNL     1      -0.527  14.399  18.025  0.00  0.00    +0.000 F 
ATOM     14  C   UNL     1       1.279  12.939  18.431  0.00  0.00    +0.000 A 
ATOM     15  C   UNL     1       1.738  11.657  18.743  0.00  0.00    +0.000 A 
ENDBRANCH   6   9
ENDBRANCH   2   3
BRANCH   2  16
ATOM     16  C   UNL     1       3.348   4.450  18.983  0.00  0.00    +0.000 C 
BRANCH  16  17
ATOM     17  C   UNL     1       4.821   4.868  18.695  0.00  0.00    +0.000 C 
ATOM     18  O   UNL     1       5.519   5.338  19.600  0.00  0.00    +0.000 OA
ATOM     19  N   UNL     1       5.367   4.594  17.461  0.00  0.00    +0.000 N 
ATOM     20  C   UNL     1       6.804   4.705  17.257  0.00  0.00    +0.000 C 
ATOM     21  C   UNL     1       7.035   4.302  15.808  0.00  0.00    +0.000 C 
ATOM     22  C   UNL     1       5.741   4.728  15.141  0.00  0.00    +0.000 C 
ATOM     23  F   UNL     1       5.779   6.076  14.943  0.00  0.00    +0.000 F 
ATOM     24  C   UNL     1       4.677   4.410  16.190  0.00  0.00    +0.000 C 
ENDBRANCH  16  17
BRANCH  16  25
ATOM     25  N   UNL     1       3.343   2.963  19.095  0.00  0.00    +0.000 NA
ATOM     26  H   UNL     1       3.394   2.743  20.095  0.00  0.00    +0.000 HD
ATOM     27  H   UNL     1       4.241   2.624  18.744  0.00  0.00    +0.000 HD
ENDBRANCH  16  25
ENDBRANCH   2  16
TORSDOF 5
ENDMDL
