MODEL 1
REMARK VINA RESULT:      -7.6      0.000      0.000
REMARK  Name = 
REMARK  9 active torsions:
REMARK  status: ('A' for Active; 'I' for Inactive)
REMARK    1  A    between atoms: C_1  and  O_2
REMARK    2  A    between atoms: O_2  and  C_3
REMARK    3  A    between atoms: C_3  and  C_4
REMARK    4  A    between atoms: C_4  and  N_5
REMARK    5  A    between atoms: N_7  and  C_8
REMARK    6  A    between atoms: C_8  and  C_10
REMARK    7  A    between atoms: C_15  and  N_16
REMARK    8  A    between atoms: C_22  and  S_23
REMARK    9  A    between atoms: S_23  and  C_24
REMARK                            x       y       z     vdW  Elec       q    Type
REMARK                         _______ _______ _______ _____ _____    ______ ____
ROOT
ATOM      1  N   UNL     1       2.540   6.818  19.651  0.00  0.00    +0.000 N 
ATOM      2  C   UNL     1       2.049   7.974  19.038  0.00  0.00    +0.000 A 
ATOM      3  N   UNL     1       1.129   8.747  19.523  0.00  0.00    +0.000 NA
ATOM      4  S   UNL     1       2.919   8.273  17.503  0.00  0.00    +0.000 S 
ATOM      5  C   UNL     1       3.961   6.878  17.785  0.00  0.00    +0.000 A 
ATOM      6  C   UNL     1       4.995   6.477  16.957  0.00  0.00    +0.000 A 
ATOM      7  C   UNL     1       5.750   5.382  17.357  0.00  0.00    +0.000 A 
ATOM      8  C   UNL     1       5.485   4.730  18.572  0.00  0.00    +0.000 A 
ATOM      9  C   UNL     1       4.413   5.149  19.382  0.00  0.00    +0.000 A 
ATOM     10  C   UNL     1       3.628   6.230  18.988  0.00  0.00    +0.000 A 
ENDROOT
BRANCH   7  11
ATOM     11  S   UNL     1       7.097   4.858  16.322  0.00  0.00    +0.000 S 
ATOM     12  C   UNL     1       6.327   3.704  15.216  0.00  0.00    +0.000 C 
ATOM     13  O   UNL     1       7.521   6.009  15.551  0.00  0.00    +0.000 OA
ATOM     14  O   UNL     1       8.034   4.136  17.160  0.00  0.00    +0.000 OA
ENDBRANCH   7  11
BRANCH   3  15
ATOM     15  C   UNL     1       0.699   9.827  18.797  0.00  0.00    +0.000 C 
ATOM     16  O   UNL     1      -0.143   9.820  17.907  0.00  0.00    +0.000 OA
BRANCH  15  17
ATOM     17  C   UNL     1       1.284  11.131  19.169  0.00  0.00    +0.000 A 
ATOM     18  C   UNL     1       2.109  11.773  18.232  0.00  0.00    +0.000 A 
ATOM     19  C   UNL     1       2.649  13.032  18.514  0.00  0.00    +0.000 A 
ATOM     20  C   UNL     1       2.360  13.664  19.727  0.00  0.00    +0.000 A 
ATOM     21  C   UNL     1       1.543  13.032  20.667  0.00  0.00    +0.000 A 
ATOM     22  C   UNL     1       1.018  11.764  20.381  0.00  0.00    +0.000 A 
BRANCH  22  23
ATOM     23  N   UNL     1       0.131  11.159  21.357  0.00  0.00    +0.000 N 
ATOM     24  O   UNL     1      -1.082  11.351  21.219  0.00  0.00    +0.000 OA
ATOM     25  O   UNL     1       0.666  10.549  22.293  0.00  0.00    +0.000 OA
ENDBRANCH  22  23
ENDBRANCH  15  17
ENDBRANCH   3  15
BRANCH   1  26
ATOM     26  C   UNL     1       1.940   6.256  20.861  0.00  0.00    +0.000 C 
BRANCH  26  27
ATOM     27  C   UNL     1       1.368   4.850  20.622  0.00  0.00    +0.000 C 
BRANCH  27  29
ATOM     28  C   UNL     1       1.351   2.711  21.617  0.00  0.00    +0.000 C 
ATOM     29  O   UNL     1       2.110   3.895  21.390  0.00  0.00    +0.000 OA
ENDBRANCH  27  29
ENDBRANCH  26  27
ENDBRANCH   1  26
TORSDOF 7
ENDMDL
MODEL 2
REMARK VINA RESULT:      -7.4      1.554      2.318
REMARK  Name = 
REMARK  9 active torsions:
REMARK  status: ('A' for Active; 'I' for Inactive)
REMARK    1  A    between atoms: C_1  and  O_2
REMARK    2  A    between atoms: O_2  and  C_3
REMARK    3  A    between atoms: C_3  and  C_4
REMARK    4  A    between atoms: C_4  and  N_5
REMARK    5  A    between atoms: N_7  and  C_8
REMARK    6  A    between atoms: C_8  and  C_10
REMARK    7  A    between atoms: C_15  and  N_16
REMARK    8  A    between atoms: C_22  and  S_23
REMARK    9  A    between atoms: S_23  and  C_24
REMARK                            x       y       z     vdW  Elec       q    Type
REMARK                         _______ _______ _______ _____ _____    ______ ____
ROOT
ATOM      1  N   UNL     1       2.435   6.960  19.567  0.00  0.00    +0.000 N 
ATOM      2  C   UNL     1       2.072   8.189  19.011  0.00  0.00    +0.000 A 
ATOM      3  N   UNL     1       1.192   9.004  19.503  0.00  0.00    +0.000 NA
ATOM      4  S   UNL     1       3.043   8.513  17.544  0.00  0.00    +0.000 S 
ATOM      5  C   UNL     1       3.955   7.021  17.780  0.00  0.00    +0.000 A 
ATOM      6  C   UNL     1       4.997   6.590  16.977  0.00  0.00    +0.000 A 
ATOM      7  C   UNL     1       5.639   5.413  17.338  0.00  0.00    +0.000 A 
ATOM      8  C   UNL     1       5.259   4.709  18.492  0.00  0.00    +0.000 A 
ATOM      9  C   UNL     1       4.181   5.163  19.276  0.00  0.00    +0.000 A 
ATOM     10  C   UNL     1       3.508   6.328  18.919  0.00  0.00    +0.000 A 
ENDROOT
BRANCH   7  11
ATOM     11  S   UNL     1       6.994   4.846  16.336  0.00  0.00    +0.000 S 
ATOM     12  C   UNL     1       6.231   3.652  15.270  0.00  0.00    +0.000 C 
ATOM     13  O   UNL     1       7.427   5.965  15.525  0.00  0.00    +0.000 OA
ATOM     14  O   UNL     1       7.922   4.155  17.209  0.00  0.00    +0.000 OA
ENDBRANCH   7  11
BRANCH   3  15
ATOM     15  C   UNL     1       0.888  10.160  18.833  0.00  0.00    +0.000 C 
ATOM     16  O   UNL     1       1.679  11.024  18.472  0.00  0.00    +0.000 OA
BRANCH  15  17
ATOM     17  C   UNL     1      -0.533  10.347  18.477  0.00  0.00    +0.000 A 
ATOM     18  C   UNL     1      -1.030   9.653  17.363  0.00  0.00    +0.000 A 
ATOM     19  C   UNL     1      -2.380   9.756  17.013  0.00  0.00    +0.000 A 
ATOM     20  C   UNL     1      -3.246  10.543  17.777  0.00  0.00    +0.000 A 
ATOM     21  C   UNL     1      -2.760  11.241  18.885  0.00  0.00    +0.000 A 
ATOM     22  C   UNL     1      -1.403  11.142  19.221  0.00  0.00    +0.000 A 
BRANCH  22  23
ATOM     23  N   UNL     1      -0.942  11.837  20.409  0.00  0.00    +0.000 N 
ATOM     24  O   UNL     1      -1.060  11.253  21.491  0.00  0.00    +0.000 OA
ATOM     25  O   UNL     1      -0.528  12.994  20.251  0.00  0.00    +0.000 OA
ENDBRANCH  22  23
ENDBRANCH  15  17
ENDBRANCH   3  15
BRANCH   1  26
ATOM     26  C   UNL     1       1.729   6.374  20.706  0.00  0.00    +0.000 C 
BRANCH  26  27
ATOM     27  C   UNL     1       1.204   4.963  20.395  0.00  0.00    +0.000 C 
BRANCH  27  29
ATOM     28  C   UNL     1       1.390   2.697  21.024  0.00  0.00    +0.000 C 
ATOM     29  O   UNL     1       1.696   4.043  21.376  0.00  0.00    +0.000 OA
ENDBRANCH  27  29
ENDBRANCH  26  27
ENDBRANCH   1  26
TORSDOF 7
ENDMDL
MODEL 3
REMARK VINA RESULT:      -7.2      2.718      3.911
REMARK  Name = 
REMARK  9 active torsions:
REMARK  status: ('A' for Active; 'I' for Inactive)
REMARK    1  A    between atoms: C_1  and  O_2
REMARK    2  A    between atoms: O_2  and  C_3
REMARK    3  A    between atoms: C_3  and  C_4
REMARK    4  A    between atoms: C_4  and  N_5
REMARK    5  A    between atoms: N_7  and  C_8
REMARK    6  A    between atoms: C_8  and  C_10
REMARK    7  A    between atoms: C_15  and  N_16
REMARK    8  A    between atoms: C_22  and  S_23
REMARK    9  A    between atoms: S_23  and  C_24
REMARK                            x       y       z     vdW  Elec       q    Type
REMARK                         _______ _______ _______ _____ _____    ______ ____
ROOT
ATOM      1  N   UNL     1       1.223   8.485  20.264  0.00  0.00    +0.000 N 
ATOM      2  C   UNL     1       0.823   9.556  19.461  0.00  0.00    +0.000 A 
ATOM      3  N   UNL     1       0.112  10.565  19.855  0.00  0.00    +0.000 NA
ATOM      4  S   UNL     1       1.485   9.368  17.809  0.00  0.00    +0.000 S 
ATOM      5  C   UNL     1       2.339   7.899  18.285  0.00  0.00    +0.000 A 
ATOM      6  C   UNL     1       3.165   7.156  17.460  0.00  0.00    +0.000 A 
ATOM      7  C   UNL     1       3.800   6.052  18.014  0.00  0.00    +0.000 A 
ATOM      8  C   UNL     1       3.628   5.727  19.369  0.00  0.00    +0.000 A 
ATOM      9  C   UNL     1       2.765   6.491  20.177  0.00  0.00    +0.000 A 
ATOM     10  C   UNL     1       2.099   7.587  19.636  0.00  0.00    +0.000 A 
ENDROOT
BRANCH   7  11
ATOM     11  S   UNL     1       4.882   5.091  16.981  0.00  0.00    +0.000 S 
ATOM     12  C   UNL     1       6.235   4.710  18.063  0.00  0.00    +0.000 C 
ATOM     13  O   UNL     1       4.193   3.856  16.667  0.00  0.00    +0.000 OA
ATOM     14  O   UNL     1       5.367   5.962  15.929  0.00  0.00    +0.000 OA
ENDBRANCH   7  11
BRANCH   3  15
ATOM     15  C   UNL     1      -0.258  11.529  18.954  0.00  0.00    +0.000 C 
ATOM     16  O   UNL     1       0.466  12.390  18.467  0.00  0.00    +0.000 OA
BRANCH  15  17
ATOM     17  C   UNL     1      -1.662  11.484  18.498  0.00  0.00    +0.000 A 
ATOM     18  C   UNL     1      -1.956  10.742  17.344  0.00  0.00    +0.000 A 
ATOM     19  C   UNL     1      -3.277  10.626  16.897  0.00  0.00    +0.000 A 
ATOM     20  C   UNL     1      -4.314  11.239  17.606  0.00  0.00    +0.000 A 
ATOM     21  C   UNL     1      -4.031  11.983  18.754  0.00  0.00    +0.000 A 
ATOM     22  C   UNL     1      -2.703  12.104  19.186  0.00  0.00    +0.000 A 
BRANCH  22  23
ATOM     23  N   UNL     1      -2.450  12.839  20.412  0.00  0.00    +0.000 N 
ATOM     24  O   UNL     1      -2.689  12.264  21.479  0.00  0.00    +0.000 OA
ATOM     25  O   UNL     1      -2.076  14.014  20.289  0.00  0.00    +0.000 OA
ENDBRANCH  22  23
ENDBRANCH  15  17
ENDBRANCH   3  15
BRANCH   1  26
ATOM     26  C   UNL     1       0.736   8.305  21.632  0.00  0.00    +0.000 C 
BRANCH  26  27
ATOM     27  C   UNL     1       1.444   9.241  22.624  0.00  0.00    +0.000 C 
BRANCH  27  29
ATOM     28  C   UNL     1      -0.697  10.048  23.198  0.00  0.00    +0.000 C 
ATOM     29  O   UNL     1       0.550   9.567  23.694  0.00  0.00    +0.000 OA
ENDBRANCH  27  29
ENDBRANCH  26  27
ENDBRANCH   1  26
TORSDOF 7
ENDMDL
MODEL 4
REMARK VINA RESULT:      -7.1      2.144      3.384
REMARK  Name = 
REMARK  9 active torsions:
REMARK  status: ('A' for Active; 'I' for Inactive)
REMARK    1  A    between atoms: C_1  and  O_2
REMARK    2  A    between atoms: O_2  and  C_3
REMARK    3  A    between atoms: C_3  and  C_4
REMARK    4  A    between atoms: C_4  and  N_5
REMARK    5  A    between atoms: N_7  and  C_8
REMARK    6  A    between atoms: C_8  and  C_10
REMARK    7  A    between atoms: C_15  and  N_16
REMARK    8  A    between atoms: C_22  and  S_23
REMARK    9  A    between atoms: S_23  and  C_24
REMARK                            x       y       z     vdW  Elec       q    Type
REMARK                         _______ _______ _______ _____ _____    ______ ____
ROOT
ATOM      1  N   UNL     1       1.050   8.868  20.253  0.00  0.00    +0.000 N 
ATOM      2  C   UNL     1       0.965  10.035  19.490  0.00  0.00    +0.000 A 
ATOM      3  N   UNL     1       0.397  11.138  19.867  0.00  0.00    +0.000 NA
ATOM      4  S   UNL     1       1.808   9.813  17.928  0.00  0.00    +0.000 S 
ATOM      5  C   UNL     1       2.310   8.187  18.394  0.00  0.00    +0.000 A 
ATOM      6  C   UNL     1       3.097   7.347  17.626  0.00  0.00    +0.000 A 
ATOM      7  C   UNL     1       3.441   6.116  18.170  0.00  0.00    +0.000 A 
ATOM      8  C   UNL     1       3.025   5.758  19.462  0.00  0.00    +0.000 A 
ATOM      9  C   UNL     1       2.207   6.627  20.210  0.00  0.00    +0.000 A 
ATOM     10  C   UNL     1       1.831   7.856  19.675  0.00  0.00    +0.000 A 
ENDROOT
BRANCH   7  11
ATOM     11  S   UNL     1       4.468   5.025  17.213  0.00  0.00    +0.000 S 
ATOM     12  C   UNL     1       5.755   4.585  18.351  0.00  0.00    +0.000 C 
ATOM     13  O   UNL     1       3.688   3.837  16.931  0.00  0.00    +0.000 OA
ATOM     14  O   UNL     1       5.051   5.805  16.140  0.00  0.00    +0.000 OA
ENDBRANCH   7  11
BRANCH   3  15
ATOM     15  C   UNL     1       0.336  12.200  19.003  0.00  0.00    +0.000 C 
ATOM     16  O   UNL     1      -0.524  12.402  18.154  0.00  0.00    +0.000 OA
BRANCH  15  17
ATOM     17  C   UNL     1       1.395  13.218  19.154  0.00  0.00    +0.000 A 
ATOM     18  C   UNL     1       2.446  13.218  18.223  0.00  0.00    +0.000 A 
ATOM     19  C   UNL     1       3.448  14.191  18.290  0.00  0.00    +0.000 A 
ATOM     20  C   UNL     1       3.402  15.178  19.278  0.00  0.00    +0.000 A 
ATOM     21  C   UNL     1       2.363  15.186  20.212  0.00  0.00    +0.000 A 
ATOM     22  C   UNL     1       1.370  14.198  20.144  0.00  0.00    +0.000 A 
BRANCH  22  23
ATOM     23  N   UNL     1       0.276  14.265  21.095  0.00  0.00    +0.000 N 
ATOM     24  O   UNL     1       0.400  13.632  22.149  0.00  0.00    +0.000 OA
ATOM     25  O   UNL     1      -0.728  14.901  20.745  0.00  0.00    +0.000 OA
ENDBRANCH  22  23
ENDBRANCH  15  17
ENDBRANCH   3  15
BRANCH   1  26
ATOM     26  C   UNL     1       0.352   8.711  21.529  0.00  0.00    +0.000 C 
BRANCH  26  27
ATOM     27  C   UNL     1       1.176   9.251  22.708  0.00  0.00    +0.000 C 
BRANCH  27  29
ATOM     28  C   UNL     1      -0.877  10.324  23.155  0.00  0.00    +0.000 C 
ATOM     29  O   UNL     1       0.293   9.741  23.723  0.00  0.00    +0.000 OA
ENDBRANCH  27  29
ENDBRANCH  26  27
ENDBRANCH   1  26
TORSDOF 7
ENDMDL
MODEL 5
REMARK VINA RESULT:      -7.0      1.931      2.386
REMARK  Name = 
REMARK  9 active torsions:
REMARK  status: ('A' for Active; 'I' for Inactive)
REMARK    1  A    between atoms: C_1  and  O_2
REMARK    2  A    between atoms: O_2  and  C_3
REMARK    3  A    between atoms: C_3  and  C_4
REMARK    4  A    between atoms: C_4  and  N_5
REMARK    5  A    between atoms: N_7  and  C_8
REMARK    6  A    between atoms: C_8  and  C_10
REMARK    7  A    between atoms: C_15  and  N_16
REMARK    8  A    between atoms: C_22  and  S_23
REMARK    9  A    between atoms: S_23  and  C_24
REMARK                            x       y       z     vdW  Elec       q    Type
REMARK                         _______ _______ _______ _____ _____    ______ ____
ROOT
ATOM      1  N   UNL     1       2.551   5.954  19.875  0.00  0.00    +0.000 N 
ATOM      2  C   UNL     1       2.118   7.260  19.630  0.00  0.00    +0.000 A 
ATOM      3  N   UNL     1       1.238   7.903  20.331  0.00  0.00    +0.000 NA
ATOM      4  S   UNL     1       3.001   7.949  18.234  0.00  0.00    +0.000 S 
ATOM      5  C   UNL     1       3.973   6.483  18.085  0.00  0.00    +0.000 A 
ATOM      6  C   UNL     1       4.985   6.290  17.161  0.00  0.00    +0.000 A 
ATOM      7  C   UNL     1       5.684   5.092  17.217  0.00  0.00    +0.000 A 
ATOM      8  C   UNL     1       5.387   4.130  18.196  0.00  0.00    +0.000 A 
ATOM      9  C   UNL     1       4.338   4.347  19.109  0.00  0.00    +0.000 A 
ATOM     10  C   UNL     1       3.608   5.532  19.055  0.00  0.00    +0.000 A 
ENDROOT
BRANCH   7  11
ATOM     11  S   UNL     1       7.003   4.826  16.055  0.00  0.00    +0.000 S 
ATOM     12  C   UNL     1       6.260   3.768  14.841  0.00  0.00    +0.000 C 
ATOM     13  O   UNL     1       7.289   6.100  15.429  0.00  0.00    +0.000 OA
ATOM     14  O   UNL     1       8.042   4.081  16.739  0.00  0.00    +0.000 OA
ENDBRANCH   7  11
BRANCH   3  15
ATOM     15  C   UNL     1       0.862   9.166  19.955  0.00  0.00    +0.000 C 
ATOM     16  O   UNL     1       1.095   9.708  18.880  0.00  0.00    +0.000 OA
BRANCH  15  17
ATOM     17  C   UNL     1       0.057   9.920  20.936  0.00  0.00    +0.000 A 
ATOM     18  C   UNL     1       0.163   9.562  22.289  0.00  0.00    +0.000 A 
ATOM     19  C   UNL     1      -0.540  10.276  23.265  0.00  0.00    +0.000 A 
ATOM     20  C   UNL     1      -1.343  11.360  22.900  0.00  0.00    +0.000 A 
ATOM     21  C   UNL     1      -1.458  11.722  21.556  0.00  0.00    +0.000 A 
ATOM     22  C   UNL     1      -0.760  10.992  20.584  0.00  0.00    +0.000 A 
BRANCH  22  23
ATOM     23  N   UNL     1      -0.860  11.428  19.203  0.00  0.00    +0.000 N 
ATOM     24  O   UNL     1      -0.168  12.393  18.861  0.00  0.00    +0.000 OA
ATOM     25  O   UNL     1      -1.683  10.837  18.491  0.00  0.00    +0.000 OA
ENDBRANCH  22  23
ENDBRANCH  15  17
ENDBRANCH   3  15
BRANCH   1  26
ATOM     26  C   UNL     1       1.924   5.096  20.881  0.00  0.00    +0.000 C 
BRANCH  26  27
ATOM     27  C   UNL     1       0.904   4.129  20.258  0.00  0.00    +0.000 C 
BRANCH  27  29
ATOM     28  C   UNL     1       2.046   2.732  21.779  0.00  0.00    +0.000 C 
ATOM     29  O   UNL     1       1.258   2.782  20.593  0.00  0.00    +0.000 OA
ENDBRANCH  27  29
ENDBRANCH  26  27
ENDBRANCH   1  26
TORSDOF 7
ENDMDL
MODEL 6
REMARK VINA RESULT:      -6.9      1.759      2.487
REMARK  Name = 
REMARK  9 active torsions:
REMARK  status: ('A' for Active; 'I' for Inactive)
REMARK    1  A    between atoms: C_1  and  O_2
REMARK    2  A    between atoms: O_2  and  C_3
REMARK    3  A    between atoms: C_3  and  C_4
REMARK    4  A    between atoms: C_4  and  N_5
REMARK    5  A    between atoms: N_7  and  C_8
REMARK    6  A    between atoms: C_8  and  C_10
REMARK    7  A    between atoms: C_15  and  N_16
REMARK    8  A    between atoms: C_22  and  S_23
REMARK    9  A    between atoms: S_23  and  C_24
REMARK                            x       y       z     vdW  Elec       q    Type
REMARK                         _______ _______ _______ _____ _____    ______ ____
ROOT
ATOM      1  N   UNL     1       2.188   7.014  19.661  0.00  0.00    +0.000 N 
ATOM      2  C   UNL     1       1.864   8.284  19.179  0.00  0.00    +0.000 A 
ATOM      3  N   UNL     1       1.066   9.126  19.758  0.00  0.00    +0.000 NA
ATOM      4  S   UNL     1       2.757   8.615  17.664  0.00  0.00    +0.000 S 
ATOM      5  C   UNL     1       3.592   7.065  17.782  0.00  0.00    +0.000 A 
ATOM      6  C   UNL     1       4.553   6.609  16.896  0.00  0.00    +0.000 A 
ATOM      7  C   UNL     1       5.146   5.384  17.168  0.00  0.00    +0.000 A 
ATOM      8  C   UNL     1       4.798   4.654  18.315  0.00  0.00    +0.000 A 
ATOM      9  C   UNL     1       3.802   5.134  19.186  0.00  0.00    +0.000 A 
ATOM     10  C   UNL     1       3.177   6.350  18.920  0.00  0.00    +0.000 A 
ENDROOT
BRANCH   7  11
ATOM     11  S   UNL     1       6.398   4.784  16.057  0.00  0.00    +0.000 S 
ATOM     12  C   UNL     1       7.772   4.470  17.133  0.00  0.00    +0.000 C 
ATOM     13  O   UNL     1       5.936   3.515  15.532  0.00  0.00    +0.000 OA
ATOM     14  O   UNL     1       6.750   5.874  15.168  0.00  0.00    +0.000 OA
ENDBRANCH   7  11
BRANCH   3  15
ATOM     15  C   UNL     1       0.790  10.325  19.155  0.00  0.00    +0.000 C 
ATOM     16  O   UNL     1       1.578  11.243  18.959  0.00  0.00    +0.000 OA
BRANCH  15  17
ATOM     17  C   UNL     1      -0.589  10.495  18.657  0.00  0.00    +0.000 A 
ATOM     18  C   UNL     1      -0.976   9.761  17.525  0.00  0.00    +0.000 A 
ATOM     19  C   UNL     1      -2.285   9.848  17.041  0.00  0.00    +0.000 A 
ATOM     20  C   UNL     1      -3.221  10.659  17.690  0.00  0.00    +0.000 A 
ATOM     21  C   UNL     1      -2.846  11.397  18.814  0.00  0.00    +0.000 A 
ATOM     22  C   UNL     1      -1.527  11.313  19.284  0.00  0.00    +0.000 A 
BRANCH  22  23
ATOM     23  N   UNL     1      -1.184  12.051  20.485  0.00  0.00    +0.000 N 
ATOM     24  O   UNL     1      -0.783  13.212  20.344  0.00  0.00    +0.000 OA
ATOM     25  O   UNL     1      -1.257  11.435  21.557  0.00  0.00    +0.000 OA
ENDBRANCH  22  23
ENDBRANCH  15  17
ENDBRANCH   3  15
BRANCH   1  26
ATOM     26  C   UNL     1       1.522   6.420  20.820  0.00  0.00    +0.000 C 
BRANCH  26  27
ATOM     27  C   UNL     1       1.052   4.983  20.542  0.00  0.00    +0.000 C 
BRANCH  27  29
ATOM     28  C   UNL     1       1.510   2.729  21.063  0.00  0.00    +0.000 C 
ATOM     29  O   UNL     1       1.695   4.086  21.455  0.00  0.00    +0.000 OA
ENDBRANCH  27  29
ENDBRANCH  26  27
ENDBRANCH   1  26
TORSDOF 7
ENDMDL
MODEL 7
REMARK VINA RESULT:      -6.9      2.085      3.193
REMARK  Name = 
REMARK  9 active torsions:
REMARK  status: ('A' for Active; 'I' for Inactive)
REMARK    1  A    between atoms: C_1  and  O_2
REMARK    2  A    between atoms: O_2  and  C_3
REMARK    3  A    between atoms: C_3  and  C_4
REMARK    4  A    between atoms: C_4  and  N_5
REMARK    5  A    between atoms: N_7  and  C_8
REMARK    6  A    between atoms: C_8  and  C_10
REMARK    7  A    between atoms: C_15  and  N_16
REMARK    8  A    between atoms: C_22  and  S_23
REMARK    9  A    between atoms: S_23  and  C_24
REMARK                            x       y       z     vdW  Elec       q    Type
REMARK                         _______ _______ _______ _____ _____    ______ ____
ROOT
ATOM      1  N   UNL     1       1.080   8.718  20.252  0.00  0.00    +0.000 N 
ATOM      2  C   UNL     1       0.965   9.869  19.469  0.00  0.00    +0.000 A 
ATOM      3  N   UNL     1       0.353  10.956  19.818  0.00  0.00    +0.000 NA
ATOM      4  S   UNL     1       1.840   9.652  17.923  0.00  0.00    +0.000 S 
ATOM      5  C   UNL     1       2.393   8.053  18.424  0.00  0.00    +0.000 A 
ATOM      6  C   UNL     1       3.222   7.229  17.682  0.00  0.00    +0.000 A 
ATOM      7  C   UNL     1       3.600   6.021  18.252  0.00  0.00    +0.000 A 
ATOM      8  C   UNL     1       3.176   5.669  19.543  0.00  0.00    +0.000 A 
ATOM      9  C   UNL     1       2.317   6.519  20.264  0.00  0.00    +0.000 A 
ATOM     10  C   UNL     1       1.906   7.725  19.702  0.00  0.00    +0.000 A 
ENDROOT
BRANCH   7  11
ATOM     11  S   UNL     1       4.681   4.951  17.329  0.00  0.00    +0.000 S 
ATOM     12  C   UNL     1       5.227   5.986  15.997  0.00  0.00    +0.000 C 
ATOM     13  O   UNL     1       5.822   4.661  18.173  0.00  0.00    +0.000 OA
ATOM     14  O   UNL     1       3.869   3.884  16.779  0.00  0.00    +0.000 OA
ENDBRANCH   7  11
BRANCH   3  15
ATOM     15  C   UNL     1       0.267  12.001  18.936  0.00  0.00    +0.000 C 
ATOM     16  O   UNL     1      -0.576  12.150  18.059  0.00  0.00    +0.000 OA
BRANCH  15  17
ATOM     17  C   UNL     1       1.273  13.070  19.100  0.00  0.00    +0.000 A 
ATOM     18  C   UNL     1       2.328  13.129  18.177  0.00  0.00    +0.000 A 
ATOM     19  C   UNL     1       3.280  14.151  18.257  0.00  0.00    +0.000 A 
ATOM     20  C   UNL     1       3.178  15.128  19.251  0.00  0.00    +0.000 A 
ATOM     21  C   UNL     1       2.133  15.077  20.177  0.00  0.00    +0.000 A 
ATOM     22  C   UNL     1       1.192  14.041  20.096  0.00  0.00    +0.000 A 
BRANCH  22  23
ATOM     23  N   UNL     1       0.090  14.047  21.040  0.00  0.00    +0.000 N 
ATOM     24  O   UNL     1      -0.937  14.652  20.712  0.00  0.00    +0.000 OA
ATOM     25  O   UNL     1       0.290  13.500  22.133  0.00  0.00    +0.000 OA
ENDBRANCH  22  23
ENDBRANCH  15  17
ENDBRANCH   3  15
BRANCH   1  26
ATOM     26  C   UNL     1       0.367   8.556  21.519  0.00  0.00    +0.000 C 
BRANCH  26  27
ATOM     27  C   UNL     1       1.177   9.096  22.709  0.00  0.00    +0.000 C 
BRANCH  27  29
ATOM     28  C   UNL     1      -0.912  10.124  23.092  0.00  0.00    +0.000 C 
ATOM     29  O   UNL     1       0.498  10.222  23.277  0.00  0.00    +0.000 OA
ENDBRANCH  27  29
ENDBRANCH  26  27
ENDBRANCH   1  26
TORSDOF 7
ENDMDL
MODEL 8
REMARK VINA RESULT:      -6.9      4.902      9.889
REMARK  Name = 
REMARK  9 active torsions:
REMARK  status: ('A' for Active; 'I' for Inactive)
REMARK    1  A    between atoms: C_1  and  O_2
REMARK    2  A    between atoms: O_2  and  C_3
REMARK    3  A    between atoms: C_3  and  C_4
REMARK    4  A    between atoms: C_4  and  N_5
REMARK    5  A    between atoms: N_7  and  C_8
REMARK    6  A    between atoms: C_8  and  C_10
REMARK    7  A    between atoms: C_15  and  N_16
REMARK    8  A    between atoms: C_22  and  S_23
REMARK    9  A    between atoms: S_23  and  C_24
REMARK                            x       y       z     vdW  Elec       q    Type
REMARK                         _______ _______ _______ _____ _____    ______ ____
ROOT
ATOM      1  N   UNL     1      -2.825  11.807  18.803  0.00  0.00    +0.000 N 
ATOM      2  C   UNL     1      -1.534  11.635  19.306  0.00  0.00    +0.000 A 
ATOM      3  N   UNL     1      -0.507  11.242  18.620  0.00  0.00    +0.000 NA
ATOM      4  S   UNL     1      -1.479  12.096  21.034  0.00  0.00    +0.000 S 
ATOM      5  C   UNL     1      -3.177  12.576  20.991  0.00  0.00    +0.000 A 
ATOM      6  C   UNL     1      -3.878  13.115  22.056  0.00  0.00    +0.000 A 
ATOM      7  C   UNL     1      -5.198  13.485  21.833  0.00  0.00    +0.000 A 
ATOM      8  C   UNL     1      -5.782  13.341  20.564  0.00  0.00    +0.000 A 
ATOM      9  C   UNL     1      -5.048  12.770  19.507  0.00  0.00    +0.000 A 
ATOM     10  C   UNL     1      -3.731  12.370  19.715  0.00  0.00    +0.000 A 
ENDROOT
BRANCH   7  11
ATOM     11  S   UNL     1      -6.116  14.199  23.178  0.00  0.00    +0.000 S 
ATOM     12  C   UNL     1      -6.672  12.778  24.082  0.00  0.00    +0.000 C 
ATOM     13  O   UNL     1      -5.174  14.922  24.006  0.00  0.00    +0.000 OA
ATOM     14  O   UNL     1      -7.273  14.863  22.610  0.00  0.00    +0.000 OA
ENDBRANCH   7  11
BRANCH   3  15
ATOM     15  C   UNL     1       0.700  11.065  19.244  0.00  0.00    +0.000 C 
ATOM     16  O   UNL     1       1.305  11.895  19.913  0.00  0.00    +0.000 OA
BRANCH  15  17
ATOM     17  C   UNL     1       1.297   9.720  19.128  0.00  0.00    +0.000 A 
ATOM     18  C   UNL     1       1.926   9.380  17.920  0.00  0.00    +0.000 A 
ATOM     19  C   UNL     1       2.551   8.137  17.774  0.00  0.00    +0.000 A 
ATOM     20  C   UNL     1       2.563   7.229  18.837  0.00  0.00    +0.000 A 
ATOM     21  C   UNL     1       1.937   7.555  20.042  0.00  0.00    +0.000 A 
ATOM     22  C   UNL     1       1.302   8.799  20.173  0.00  0.00    +0.000 A 
BRANCH  22  23
ATOM     23  N   UNL     1       0.707   9.127  21.456  0.00  0.00    +0.000 N 
ATOM     24  O   UNL     1       1.432   9.673  22.295  0.00  0.00    +0.000 OA
ATOM     25  O   UNL     1      -0.466   8.773  21.632  0.00  0.00    +0.000 OA
ENDBRANCH  22  23
ENDBRANCH  15  17
ENDBRANCH   3  15
BRANCH   1  26
ATOM     26  C   UNL     1      -3.201  11.398  17.450  0.00  0.00    +0.000 C 
BRANCH  26  27
ATOM     27  C   UNL     1      -3.347   9.872  17.328  0.00  0.00    +0.000 C 
BRANCH  27  29
ATOM     28  C   UNL     1      -2.981  10.535  15.093  0.00  0.00    +0.000 C 
ATOM     29  O   UNL     1      -2.930   9.456  16.022  0.00  0.00    +0.000 OA
ENDBRANCH  27  29
ENDBRANCH  26  27
ENDBRANCH   1  26
TORSDOF 7
ENDMDL
MODEL 9
REMARK VINA RESULT:      -6.9      3.479      5.718
REMARK  Name = 
REMARK  9 active torsions:
REMARK  status: ('A' for Active; 'I' for Inactive)
REMARK    1  A    between atoms: C_1  and  O_2
REMARK    2  A    between atoms: O_2  and  C_3
REMARK    3  A    between atoms: C_3  and  C_4
REMARK    4  A    between atoms: C_4  and  N_5
REMARK    5  A    between atoms: N_7  and  C_8
REMARK    6  A    between atoms: C_8  and  C_10
REMARK    7  A    between atoms: C_15  and  N_16
REMARK    8  A    between atoms: C_22  and  S_23
REMARK    9  A    between atoms: S_23  and  C_24
REMARK                            x       y       z     vdW  Elec       q    Type
REMARK                         _______ _______ _______ _____ _____    ______ ____
ROOT
ATOM      1  N   UNL     1       0.033  10.844  19.467  0.00  0.00    +0.000 N 
ATOM      2  C   UNL     1      -0.411  10.902  20.790  0.00  0.00    +0.000 A 
ATOM      3  N   UNL     1      -1.241  11.777  21.266  0.00  0.00    +0.000 NA
ATOM      4  S   UNL     1       0.285   9.550  21.733  0.00  0.00    +0.000 S 
ATOM      5  C   UNL     1       1.082   8.915  20.293  0.00  0.00    +0.000 A 
ATOM      6  C   UNL     1       1.841   7.759  20.248  0.00  0.00    +0.000 A 
ATOM      7  C   UNL     1       2.356   7.376  19.016  0.00  0.00    +0.000 A 
ATOM      8  C   UNL     1       2.087   8.125  17.860  0.00  0.00    +0.000 A 
ATOM      9  C   UNL     1       1.328   9.308  17.942  0.00  0.00    +0.000 A 
ATOM     10  C   UNL     1       0.822   9.723  19.171  0.00  0.00    +0.000 A 
ENDROOT
BRANCH   7  11
ATOM     11  S   UNL     1       3.318   5.884  18.927  0.00  0.00    +0.000 S 
ATOM     12  C   UNL     1       2.362   4.854  17.846  0.00  0.00    +0.000 C 
ATOM     13  O   UNL     1       4.560   6.213  18.257  0.00  0.00    +0.000 OA
ATOM     14  O   UNL     1       3.320   5.288  20.248  0.00  0.00    +0.000 OA
ENDBRANCH   7  11
BRANCH   3  15
ATOM     15  C   UNL     1      -1.559  11.757  22.598  0.00  0.00    +0.000 C 
ATOM     16  O   UNL     1      -1.590  10.771  23.327  0.00  0.00    +0.000 OA
BRANCH  15  17
ATOM     17  C   UNL     1      -1.849  13.067  23.214  0.00  0.00    +0.000 A 
ATOM     18  C   UNL     1      -0.812  14.011  23.272  0.00  0.00    +0.000 A 
ATOM     19  C   UNL     1      -1.045  15.284  23.801  0.00  0.00    +0.000 A 
ATOM     20  C   UNL     1      -2.318  15.629  24.264  0.00  0.00    +0.000 A 
ATOM     21  C   UNL     1      -3.356  14.696  24.215  0.00  0.00    +0.000 A 
ATOM     22  C   UNL     1      -3.108  13.417  23.695  0.00  0.00    +0.000 A 
BRANCH  22  23
ATOM     23  N   UNL     1      -4.221  12.490  23.609  0.00  0.00    +0.000 N 
ATOM     24  O   UNL     1      -4.817  12.415  22.529  0.00  0.00    +0.000 OA
ATOM     25  O   UNL     1      -4.530  11.893  24.650  0.00  0.00    +0.000 OA
ENDBRANCH  22  23
ENDBRANCH  15  17
ENDBRANCH   3  15
BRANCH   1  26
ATOM     26  C   UNL     1      -0.276  11.888  18.489  0.00  0.00    +0.000 C 
BRANCH  26  27
ATOM     27  C   UNL     1      -1.721  11.787  17.974  0.00  0.00    +0.000 C 
BRANCH  27  29
ATOM     28  C   UNL     1      -3.019   9.857  17.584  0.00  0.00    +0.000 C 
ATOM     29  O   UNL     1      -1.866  10.596  17.191  0.00  0.00    +0.000 OA
ENDBRANCH  27  29
ENDBRANCH  26  27
ENDBRANCH   1  26
TORSDOF 7
ENDMDL
