MODEL 1
REMARK VINA RESULT:      -8.2      0.000      0.000
REMARK  Name = 
REMARK  7 active torsions:
REMARK  status: ('A' for Active; 'I' for Inactive)
REMARK    1  A    between atoms: C_1  and  O_2
REMARK    2  A    between atoms: O_2  and  C_3
REMARK    3  A    between atoms: C_14  and  C_15
REMARK    4  A    between atoms: C_18  and  C_19
REMARK    5  A    between atoms: C_19  and  C_20
REMARK    6  A    between atoms: C_19  and  C_21
REMARK    7  A    between atoms: C_19  and  C_22
REMARK                            x       y       z     vdW  Elec       q    Type
REMARK                         _______ _______ _______ _____ _____    ______ ____
ROOT
ATOM      1  C   UNL     1      -3.083  10.614  16.934  0.00  0.00    +0.000 A 
ATOM      2  C   UNL     1      -1.907   9.893  16.865  0.00  0.00    +0.000 A 
ATOM      3  C   UNL     1      -0.949  10.030  17.867  0.00  0.00    +0.000 A 
ATOM      4  C   UNL     1      -1.114  10.849  18.988  0.00  0.00    +0.000 A 
ATOM      5  C   UNL     1      -2.290  11.623  19.025  0.00  0.00    +0.000 A 
ATOM      6  C   UNL     1      -3.253  11.510  17.992  0.00  0.00    +0.000 A 
ATOM      7  C   UNL     1      -2.514  12.665  20.096  0.00  0.00    +0.000 C 
ATOM      8  C   UNL     1      -1.759  12.392  21.385  0.00  0.00    +0.000 C 
ATOM      9  C   UNL     1      -0.316  12.050  21.108  0.00  0.00    +0.000 C 
ATOM     10  O   UNL     1       0.602  12.552  21.753  0.00  0.00    +0.000 OA
ATOM     11  C   UNL     1      -0.091  10.973  20.078  0.00  0.00    +0.000 C 
ATOM     12  C   UNL     1       0.975  10.179  20.358  0.00  0.00    +0.000 C 
ENDROOT
BRANCH  12  13
ATOM     13  C   UNL     1       1.353   8.964  19.625  0.00  0.00    +0.000 A 
ATOM     14  C   UNL     1       1.427   7.739  20.293  0.00  0.00    +0.000 A 
ATOM     15  C   UNL     1       2.215   6.705  19.766  0.00  0.00    +0.000 A 
ATOM     16  C   UNL     1       2.921   6.869  18.559  0.00  0.00    +0.000 A 
ATOM     17  C   UNL     1       2.655   8.033  17.811  0.00  0.00    +0.000 A 
ATOM     18  C   UNL     1       1.884   9.074  18.338  0.00  0.00    +0.000 A 
BRANCH  16  19
ATOM     19  C   UNL     1       4.027   5.898  18.105  0.00  0.00    +0.000 C 
ATOM     20  C   UNL     1       4.980   5.474  19.244  0.00  0.00    +0.000 C 
ATOM     21  C   UNL     1       3.408   4.625  17.502  0.00  0.00    +0.000 C 
ATOM     22  C   UNL     1       4.916   6.578  17.032  0.00  0.00    +0.000 C 
ENDBRANCH  16  19
ENDBRANCH  12  13
BRANCH   1  24
ATOM     23  C   UNL     1      -3.639  10.260  14.675  0.00  0.00    +0.000 C 
ATOM     24  O   UNL     1      -4.081  10.548  16.003  0.00  0.00    +0.000 OA
ENDBRANCH   1  24
TORSDOF 3
ENDMDL
MODEL 2
REMARK VINA RESULT:      -7.9      1.658      2.419
REMARK  Name = 
REMARK  7 active torsions:
REMARK  status: ('A' for Active; 'I' for Inactive)
REMARK    1  A    between atoms: C_1  and  O_2
REMARK    2  A    between atoms: O_2  and  C_3
REMARK    3  A    between atoms: C_14  and  C_15
REMARK    4  A    between atoms: C_18  and  C_19
REMARK    5  A    between atoms: C_19  and  C_20
REMARK    6  A    between atoms: C_19  and  C_21
REMARK    7  A    between atoms: C_19  and  C_22
REMARK                            x       y       z     vdW  Elec       q    Type
REMARK                         _______ _______ _______ _____ _____    ______ ____
ROOT
ATOM      1  C   UNL     1      -1.392  11.021  18.161  0.00  0.00    +0.000 A 
ATOM      2  C   UNL     1      -0.465  10.022  17.935  0.00  0.00    +0.000 A 
ATOM      3  C   UNL     1       0.190   9.427  19.011  0.00  0.00    +0.000 A 
ATOM      4  C   UNL     1      -0.054   9.760  20.346  0.00  0.00    +0.000 A 
ATOM      5  C   UNL     1      -0.959  10.817  20.568  0.00  0.00    +0.000 A 
ATOM      6  C   UNL     1      -1.605  11.446  19.475  0.00  0.00    +0.000 A 
ATOM      7  C   UNL     1      -1.188  11.381  21.950  0.00  0.00    +0.000 C 
ATOM      8  C   UNL     1      -0.903  10.396  23.071  0.00  0.00    +0.000 C 
ATOM      9  C   UNL     1       0.425   9.708  22.865  0.00  0.00    +0.000 C 
ATOM     10  O   UNL     1       1.232   9.575  23.781  0.00  0.00    +0.000 OA
ATOM     11  C   UNL     1       0.635   9.098  21.502  0.00  0.00    +0.000 C 
ATOM     12  C   UNL     1       1.346   7.941  21.538  0.00  0.00    +0.000 C 
ENDROOT
BRANCH  12  13
ATOM     13  C   UNL     1       1.584   7.047  20.398  0.00  0.00    +0.000 A 
ATOM     14  C   UNL     1       1.173   5.713  20.458  0.00  0.00    +0.000 A 
ATOM     15  C   UNL     1       1.785   4.758  19.633  0.00  0.00    +0.000 A 
ATOM     16  C   UNL     1       2.796   5.122  18.723  0.00  0.00    +0.000 A 
ATOM     17  C   UNL     1       3.033   6.498  18.540  0.00  0.00    +0.000 A 
ATOM     18  C   UNL     1       2.438   7.454  19.371  0.00  0.00    +0.000 A 
BRANCH  16  19
ATOM     19  C   UNL     1       3.702   4.086  18.030  0.00  0.00    +0.000 C 
ATOM     20  C   UNL     1       4.471   4.654  16.817  0.00  0.00    +0.000 C 
ATOM     21  C   UNL     1       4.730   3.523  19.026  0.00  0.00    +0.000 C 
ATOM     22  C   UNL     1       2.843   2.916  17.484  0.00  0.00    +0.000 C 
ENDBRANCH  16  19
ENDBRANCH  12  13
BRANCH   1  24
ATOM     23  C   UNL     1      -2.546  10.816  16.121  0.00  0.00    +0.000 C 
ATOM     24  O   UNL     1      -2.085  11.664  17.174  0.00  0.00    +0.000 OA
ENDBRANCH   1  24
TORSDOF 3
ENDMDL
MODEL 3
REMARK VINA RESULT:      -7.9      0.926      1.371
REMARK  Name = 
REMARK  7 active torsions:
REMARK  status: ('A' for Active; 'I' for Inactive)
REMARK    1  A    between atoms: C_1  and  O_2
REMARK    2  A    between atoms: O_2  and  C_3
REMARK    3  A    between atoms: C_14  and  C_15
REMARK    4  A    between atoms: C_18  and  C_19
REMARK    5  A    between atoms: C_19  and  C_20
REMARK    6  A    between atoms: C_19  and  C_21
REMARK    7  A    between atoms: C_19  and  C_22
REMARK                            x       y       z     vdW  Elec       q    Type
REMARK                         _______ _______ _______ _____ _____    ______ ____
ROOT
ATOM      1  C   UNL     1      -3.571  10.897  17.830  0.00  0.00    +0.000 A 
ATOM      2  C   UNL     1      -2.443  10.134  17.602  0.00  0.00    +0.000 A 
ATOM      3  C   UNL     1      -1.304  10.329  18.382  0.00  0.00    +0.000 A 
ATOM      4  C   UNL     1      -1.232  11.252  19.429  0.00  0.00    +0.000 A 
ATOM      5  C   UNL     1      -2.367  12.065  19.620  0.00  0.00    +0.000 A 
ATOM      6  C   UNL     1      -3.516  11.891  18.810  0.00  0.00    +0.000 A 
ATOM      7  C   UNL     1      -2.360  13.207  20.610  0.00  0.00    +0.000 C 
ATOM      8  C   UNL     1      -1.370  13.027  21.748  0.00  0.00    +0.000 C 
ATOM      9  C   UNL     1      -0.014  12.613  21.229  0.00  0.00    +0.000 C 
ATOM     10  O   UNL     1       1.019  13.139  21.632  0.00  0.00    +0.000 OA
ATOM     11  C   UNL     1      -0.013  11.439  20.282  0.00  0.00    +0.000 C 
ATOM     12  C   UNL     1       1.075  10.639  20.424  0.00  0.00    +0.000 C 
ENDROOT
BRANCH  12  13
ATOM     13  C   UNL     1       1.283   9.351  19.752  0.00  0.00    +0.000 A 
ATOM     14  C   UNL     1       1.309   8.169  20.496  0.00  0.00    +0.000 A 
ATOM     15  C   UNL     1       1.957   7.036  19.983  0.00  0.00    +0.000 A 
ATOM     16  C   UNL     1       2.568   7.058  18.714  0.00  0.00    +0.000 A 
ATOM     17  C   UNL     1       2.339   8.191  17.909  0.00  0.00    +0.000 A 
ATOM     18  C   UNL     1       1.708   9.330  18.421  0.00  0.00    +0.000 A 
BRANCH  16  19
ATOM     19  C   UNL     1       3.544   5.963  18.242  0.00  0.00    +0.000 C 
ATOM     20  C   UNL     1       2.837   4.709  17.681  0.00  0.00    +0.000 C 
ATOM     21  C   UNL     1       4.479   6.513  17.152  0.00  0.00    +0.000 C 
ATOM     22  C   UNL     1       4.403   5.473  19.437  0.00  0.00    +0.000 C 
ENDBRANCH  16  19
ENDBRANCH  12  13
BRANCH   1  24
ATOM     23  C   UNL     1      -5.839  11.501  17.667  0.00  0.00    +0.000 C 
ATOM     24  O   UNL     1      -4.734  10.780  17.121  0.00  0.00    +0.000 OA
ENDBRANCH   1  24
TORSDOF 3
ENDMDL
MODEL 4
REMARK VINA RESULT:      -7.6      3.312      7.952
REMARK  Name = 
REMARK  7 active torsions:
REMARK  status: ('A' for Active; 'I' for Inactive)
REMARK    1  A    between atoms: C_1  and  O_2
REMARK    2  A    between atoms: O_2  and  C_3
REMARK    3  A    between atoms: C_14  and  C_15
REMARK    4  A    between atoms: C_18  and  C_19
REMARK    5  A    between atoms: C_19  and  C_20
REMARK    6  A    between atoms: C_19  and  C_21
REMARK    7  A    between atoms: C_19  and  C_22
REMARK                            x       y       z     vdW  Elec       q    Type
REMARK                         _______ _______ _______ _____ _____    ______ ____
ROOT
ATOM      1  C   UNL     1       2.158   3.238  19.951  0.00  0.00    +0.000 A 
ATOM      2  C   UNL     1       1.731   4.516  20.255  0.00  0.00    +0.000 A 
ATOM      3  C   UNL     1       2.246   5.605  19.554  0.00  0.00    +0.000 A 
ATOM      4  C   UNL     1       3.171   5.487  18.513  0.00  0.00    +0.000 A 
ATOM      5  C   UNL     1       3.644   4.188  18.244  0.00  0.00    +0.000 A 
ATOM      6  C   UNL     1       3.146   3.081  18.975  0.00  0.00    +0.000 A 
ATOM      7  C   UNL     1       4.761   3.944  17.256  0.00  0.00    +0.000 C 
ATOM      8  C   UNL     1       4.880   5.017  16.188  0.00  0.00    +0.000 C 
ATOM      9  C   UNL     1       4.846   6.397  16.797  0.00  0.00    +0.000 C 
ATOM     10  O   UNL     1       5.644   7.270  16.465  0.00  0.00    +0.000 OA
ATOM     11  C   UNL     1       3.702   6.660  17.743  0.00  0.00    +0.000 C 
ATOM     12  C   UNL     1       3.234   7.934  17.676  0.00  0.00    +0.000 C 
ENDROOT
BRANCH  12  13
ATOM     13  C   UNL     1       2.042   8.445  18.362  0.00  0.00    +0.000 A 
ATOM     14  C   UNL     1       1.119   9.233  17.670  0.00  0.00    +0.000 A 
ATOM     15  C   UNL     1       0.270  10.096  18.377  0.00  0.00    +0.000 A 
ATOM     16  C   UNL     1       0.313  10.171  19.782  0.00  0.00    +0.000 A 
ATOM     17  C   UNL     1       1.100   9.216  20.454  0.00  0.00    +0.000 A 
ATOM     18  C   UNL     1       1.961   8.363  19.755  0.00  0.00    +0.000 A 
BRANCH  16  19
ATOM     19  C   UNL     1      -0.364  11.306  20.575  0.00  0.00    +0.000 C 
ATOM     20  C   UNL     1      -1.674  11.811  19.930  0.00  0.00    +0.000 C 
ATOM     21  C   UNL     1      -0.683  10.843  22.006  0.00  0.00    +0.000 C 
ATOM     22  C   UNL     1       0.581  12.534  20.646  0.00  0.00    +0.000 C 
ENDBRANCH  16  19
ENDBRANCH  12  13
BRANCH   1  24
ATOM     23  C   UNL     1       1.430   2.274  21.970  0.00  0.00    +0.000 C 
ATOM     24  O   UNL     1       1.713   2.109  20.580  0.00  0.00    +0.000 OA
ENDBRANCH   1  24
TORSDOF 3
ENDMDL
MODEL 5
REMARK VINA RESULT:      -7.6      0.579      1.051
REMARK  Name = 
REMARK  7 active torsions:
REMARK  status: ('A' for Active; 'I' for Inactive)
REMARK    1  A    between atoms: C_1  and  O_2
REMARK    2  A    between atoms: O_2  and  C_3
REMARK    3  A    between atoms: C_14  and  C_15
REMARK    4  A    between atoms: C_18  and  C_19
REMARK    5  A    between atoms: C_19  and  C_20
REMARK    6  A    between atoms: C_19  and  C_21
REMARK    7  A    between atoms: C_19  and  C_22
REMARK                            x       y       z     vdW  Elec       q    Type
REMARK                         _______ _______ _______ _____ _____    ______ ____
ROOT
ATOM      1  C   UNL     1      -3.332  10.901  17.645  0.00  0.00    +0.000 A 
ATOM      2  C   UNL     1      -2.199  10.130  17.477  0.00  0.00    +0.000 A 
ATOM      3  C   UNL     1      -1.124  10.275  18.352  0.00  0.00    +0.000 A 
ATOM      4  C   UNL     1      -1.125  11.154  19.439  0.00  0.00    +0.000 A 
ATOM      5  C   UNL     1      -2.260  11.977  19.572  0.00  0.00    +0.000 A 
ATOM      6  C   UNL     1      -3.343  11.854  18.666  0.00  0.00    +0.000 A 
ATOM      7  C   UNL     1      -2.318  13.078  20.605  0.00  0.00    +0.000 C 
ATOM      8  C   UNL     1      -1.426  12.837  21.810  0.00  0.00    +0.000 C 
ATOM      9  C   UNL     1      -0.039  12.422  21.386  0.00  0.00    +0.000 C 
ATOM     10  O   UNL     1       0.966  12.915  21.891  0.00  0.00    +0.000 OA
ATOM     11  C   UNL     1       0.023  11.287  20.394  0.00  0.00    +0.000 C 
ATOM     12  C   UNL     1       1.086  10.464  20.590  0.00  0.00    +0.000 C 
ENDROOT
BRANCH  12  13
ATOM     13  C   UNL     1       1.331   9.201  19.884  0.00  0.00    +0.000 A 
ATOM     14  C   UNL     1       1.408   8.003  20.598  0.00  0.00    +0.000 A 
ATOM     15  C   UNL     1       2.089   6.907  20.050  0.00  0.00    +0.000 A 
ATOM     16  C   UNL     1       2.683   6.980  18.775  0.00  0.00    +0.000 A 
ATOM     17  C   UNL     1       2.405   8.124  18.001  0.00  0.00    +0.000 A 
ATOM     18  C   UNL     1       1.741   9.227  18.548  0.00  0.00    +0.000 A 
BRANCH  16  19
ATOM     19  C   UNL     1       3.690   5.932  18.266  0.00  0.00    +0.000 C 
ATOM     20  C   UNL     1       4.620   6.462  17.151  0.00  0.00    +0.000 C 
ATOM     21  C   UNL     1       4.571   5.430  19.423  0.00  0.00    +0.000 C 
ATOM     22  C   UNL     1       2.932   4.726  17.656  0.00  0.00    +0.000 C 
ENDBRANCH  16  19
ENDBRANCH  12  13
BRANCH   1  24
ATOM     23  C   UNL     1      -4.149  10.749  15.443  0.00  0.00    +0.000 C 
ATOM     24  O   UNL     1      -4.435  10.832  16.841  0.00  0.00    +0.000 OA
ENDBRANCH   1  24
TORSDOF 3
ENDMDL
MODEL 6
REMARK VINA RESULT:      -7.5      3.192      7.877
REMARK  Name = 
REMARK  7 active torsions:
REMARK  status: ('A' for Active; 'I' for Inactive)
REMARK    1  A    between atoms: C_1  and  O_2
REMARK    2  A    between atoms: O_2  and  C_3
REMARK    3  A    between atoms: C_14  and  C_15
REMARK    4  A    between atoms: C_18  and  C_19
REMARK    5  A    between atoms: C_19  and  C_20
REMARK    6  A    between atoms: C_19  and  C_21
REMARK    7  A    between atoms: C_19  and  C_22
REMARK                            x       y       z     vdW  Elec       q    Type
REMARK                         _______ _______ _______ _____ _____    ______ ____
ROOT
ATOM      1  C   UNL     1       1.894   3.486  19.952  0.00  0.00    +0.000 A 
ATOM      2  C   UNL     1       1.436   4.764  20.202  0.00  0.00    +0.000 A 
ATOM      3  C   UNL     1       1.994   5.846  19.524  0.00  0.00    +0.000 A 
ATOM      4  C   UNL     1       2.995   5.720  18.557  0.00  0.00    +0.000 A 
ATOM      5  C   UNL     1       3.497   4.421  18.347  0.00  0.00    +0.000 A 
ATOM      6  C   UNL     1       2.954   3.321  19.056  0.00  0.00    +0.000 A 
ATOM      7  C   UNL     1       4.687   4.171  17.450  0.00  0.00    +0.000 C 
ATOM      8  C   UNL     1       4.878   5.228  16.376  0.00  0.00    +0.000 C 
ATOM      9  C   UNL     1       4.788   6.617  16.957  0.00  0.00    +0.000 C 
ATOM     10  O   UNL     1       5.602   7.491  16.671  0.00  0.00    +0.000 OA
ATOM     11  C   UNL     1       3.574   6.885  17.810  0.00  0.00    +0.000 C 
ATOM     12  C   UNL     1       3.103   8.153  17.687  0.00  0.00    +0.000 C 
ENDROOT
BRANCH  12  13
ATOM     13  C   UNL     1       1.858   8.665  18.273  0.00  0.00    +0.000 A 
ATOM     14  C   UNL     1       0.746   8.899  17.461  0.00  0.00    +0.000 A 
ATOM     15  C   UNL     1      -0.245   9.799  17.879  0.00  0.00    +0.000 A 
ATOM     16  C   UNL     1      -0.154  10.459  19.119  0.00  0.00    +0.000 A 
ATOM     17  C   UNL     1       0.864  10.040  19.998  0.00  0.00    +0.000 A 
ATOM     18  C   UNL     1       1.865   9.157  19.581  0.00  0.00    +0.000 A 
BRANCH  16  19
ATOM     19  C   UNL     1      -1.037  11.668  19.484  0.00  0.00    +0.000 C 
ATOM     20  C   UNL     1      -0.416  13.026  19.086  0.00  0.00    +0.000 C 
ATOM     21  C   UNL     1      -2.411  11.553  18.801  0.00  0.00    +0.000 C 
ATOM     22  C   UNL     1      -1.245  11.724  21.019  0.00  0.00    +0.000 C 
ENDBRANCH  16  19
ENDBRANCH  12  13
BRANCH   1  24
ATOM     23  C   UNL     1       1.554   2.352  21.986  0.00  0.00    +0.000 C 
ATOM     24  O   UNL     1       1.412   2.363  20.565  0.00  0.00    +0.000 OA
ENDBRANCH   1  24
TORSDOF 3
ENDMDL
MODEL 7
REMARK VINA RESULT:      -7.4      3.510      8.312
REMARK  Name = 
REMARK  7 active torsions:
REMARK  status: ('A' for Active; 'I' for Inactive)
REMARK    1  A    between atoms: C_1  and  O_2
REMARK    2  A    between atoms: O_2  and  C_3
REMARK    3  A    between atoms: C_14  and  C_15
REMARK    4  A    between atoms: C_18  and  C_19
REMARK    5  A    between atoms: C_19  and  C_20
REMARK    6  A    between atoms: C_19  and  C_21
REMARK    7  A    between atoms: C_19  and  C_22
REMARK                            x       y       z     vdW  Elec       q    Type
REMARK                         _______ _______ _______ _____ _____    ______ ____
ROOT
ATOM      1  C   UNL     1       6.187   5.414  16.017  0.00  0.00    +0.000 A 
ATOM      2  C   UNL     1       5.334   6.430  16.400  0.00  0.00    +0.000 A 
ATOM      3  C   UNL     1       4.164   6.129  17.095  0.00  0.00    +0.000 A 
ATOM      4  C   UNL     1       3.798   4.833  17.467  0.00  0.00    +0.000 A 
ATOM      5  C   UNL     1       4.643   3.796  17.026  0.00  0.00    +0.000 A 
ATOM      6  C   UNL     1       5.818   4.095  16.293  0.00  0.00    +0.000 A 
ATOM      7  C   UNL     1       4.277   2.344  17.222  0.00  0.00    +0.000 C 
ATOM      8  C   UNL     1       3.347   2.098  18.397  0.00  0.00    +0.000 C 
ATOM      9  C   UNL     1       2.185   3.061  18.381  0.00  0.00    +0.000 C 
ATOM     10  O   UNL     1       1.031   2.684  18.569  0.00  0.00    +0.000 OA
ATOM     11  C   UNL     1       2.551   4.517  18.239  0.00  0.00    +0.000 C 
ATOM     12  C   UNL     1       1.736   5.345  18.943  0.00  0.00    +0.000 C 
ENDROOT
BRANCH  12  13
ATOM     13  C   UNL     1       1.928   6.789  19.118  0.00  0.00    +0.000 A 
ATOM     14  C   UNL     1       1.841   7.357  20.391  0.00  0.00    +0.000 A 
ATOM     15  C   UNL     1       1.549   8.722  20.527  0.00  0.00    +0.000 A 
ATOM     16  C   UNL     1       1.362   9.543  19.398  0.00  0.00    +0.000 A 
ATOM     17  C   UNL     1       1.666   8.987  18.140  0.00  0.00    +0.000 A 
ATOM     18  C   UNL     1       1.941   7.623  17.997  0.00  0.00    +0.000 A 
BRANCH  16  19
ATOM     19  C   UNL     1       0.744  10.952  19.488  0.00  0.00    +0.000 C 
ATOM     20  C   UNL     1       0.572  11.457  20.938  0.00  0.00    +0.000 C 
ATOM     21  C   UNL     1       1.613  11.968  18.728  0.00  0.00    +0.000 C 
ATOM     22  C   UNL     1      -0.676  10.943  18.865  0.00  0.00    +0.000 C 
ENDBRANCH  16  19
ENDBRANCH  12  13
BRANCH   1  24
ATOM     23  C   UNL     1       7.398   5.000  14.042  0.00  0.00    +0.000 C 
ATOM     24  O   UNL     1       7.355   5.608  15.334  0.00  0.00    +0.000 OA
ENDBRANCH   1  24
TORSDOF 3
ENDMDL
MODEL 8
REMARK VINA RESULT:      -7.3      3.470      7.892
REMARK  Name = 
REMARK  7 active torsions:
REMARK  status: ('A' for Active; 'I' for Inactive)
REMARK    1  A    between atoms: C_1  and  O_2
REMARK    2  A    between atoms: O_2  and  C_3
REMARK    3  A    between atoms: C_14  and  C_15
REMARK    4  A    between atoms: C_18  and  C_19
REMARK    5  A    between atoms: C_19  and  C_20
REMARK    6  A    between atoms: C_19  and  C_21
REMARK    7  A    between atoms: C_19  and  C_22
REMARK                            x       y       z     vdW  Elec       q    Type
REMARK                         _______ _______ _______ _____ _____    ______ ____
ROOT
ATOM      1  C   UNL     1       2.218   2.891  18.262  0.00  0.00    +0.000 A 
ATOM      2  C   UNL     1       1.785   4.060  18.856  0.00  0.00    +0.000 A 
ATOM      3  C   UNL     1       2.429   5.263  18.571  0.00  0.00    +0.000 A 
ATOM      4  C   UNL     1       3.497   5.376  17.677  0.00  0.00    +0.000 A 
ATOM      5  C   UNL     1       3.969   4.173  17.118  0.00  0.00    +0.000 A 
ATOM      6  C   UNL     1       3.337   2.943  17.427  0.00  0.00    +0.000 A 
ATOM      7  C   UNL     1       5.216   4.137  16.264  0.00  0.00    +0.000 C 
ATOM      8  C   UNL     1       5.524   5.453  15.572  0.00  0.00    +0.000 C 
ATOM      9  C   UNL     1       5.436   6.609  16.539  0.00  0.00    +0.000 C 
ATOM     10  O   UNL     1       6.298   7.483  16.581  0.00  0.00    +0.000 OA
ATOM     11  C   UNL     1       4.169   6.677  17.354  0.00  0.00    +0.000 C 
ATOM     12  C   UNL     1       3.752   7.948  17.588  0.00  0.00    +0.000 C 
ENDROOT
BRANCH  12  13
ATOM     13  C   UNL     1       2.483   8.330  18.221  0.00  0.00    +0.000 A 
ATOM     14  C   UNL     1       1.614   9.210  17.572  0.00  0.00    +0.000 A 
ATOM     15  C   UNL     1       0.676   9.939  18.318  0.00  0.00    +0.000 A 
ATOM     16  C   UNL     1       0.576   9.785  19.714  0.00  0.00    +0.000 A 
ATOM     17  C   UNL     1       1.317   8.741  20.301  0.00  0.00    +0.000 A 
ATOM     18  C   UNL     1       2.265   8.022  19.567  0.00  0.00    +0.000 A 
BRANCH  16  19
ATOM     19  C   UNL     1      -0.206  10.770  20.604  0.00  0.00    +0.000 C 
ATOM     20  C   UNL     1       0.601  12.031  20.983  0.00  0.00    +0.000 C 
ATOM     21  C   UNL     1      -1.496  11.222  19.897  0.00  0.00    +0.000 C 
ATOM     22  C   UNL     1      -0.584  10.083  21.942  0.00  0.00    +0.000 C 
ENDBRANCH  16  19
ENDBRANCH  12  13
BRANCH   1  24
ATOM     23  C   UNL     1       0.411   1.697  19.182  0.00  0.00    +0.000 C 
ATOM     24  O   UNL     1       1.653   1.665  18.476  0.00  0.00    +0.000 OA
ENDBRANCH   1  24
TORSDOF 3
ENDMDL
MODEL 9
REMARK VINA RESULT:      -7.2      3.271      7.897
REMARK  Name = 
REMARK  7 active torsions:
REMARK  status: ('A' for Active; 'I' for Inactive)
REMARK    1  A    between atoms: C_1  and  O_2
REMARK    2  A    between atoms: O_2  and  C_3
REMARK    3  A    between atoms: C_14  and  C_15
REMARK    4  A    between atoms: C_18  and  C_19
REMARK    5  A    between atoms: C_19  and  C_20
REMARK    6  A    between atoms: C_19  and  C_21
REMARK    7  A    between atoms: C_19  and  C_22
REMARK                            x       y       z     vdW  Elec       q    Type
REMARK                         _______ _______ _______ _____ _____    ______ ____
ROOT
ATOM      1  C   UNL     1       5.433   5.872  16.832  0.00  0.00    +0.000 A 
ATOM      2  C   UNL     1       4.559   6.888  17.166  0.00  0.00    +0.000 A 
ATOM      3  C   UNL     1       3.557   6.660  18.108  0.00  0.00    +0.000 A 
ATOM      4  C   UNL     1       3.389   5.446  18.780  0.00  0.00    +0.000 A 
ATOM      5  C   UNL     1       4.248   4.398  18.395  0.00  0.00    +0.000 A 
ATOM      6  C   UNL     1       5.248   4.616  17.415  0.00  0.00    +0.000 A 
ATOM      7  C   UNL     1       4.066   2.995  18.926  0.00  0.00    +0.000 C 
ATOM      8  C   UNL     1       3.374   2.935  20.277  0.00  0.00    +0.000 C 
ATOM      9  C   UNL     1       2.136   3.797  20.293  0.00  0.00    +0.000 C 
ATOM     10  O   UNL     1       1.073   3.393  20.757  0.00  0.00    +0.000 OA
ATOM     11  C   UNL     1       2.326   5.214  19.813  0.00  0.00    +0.000 C 
ATOM     12  C   UNL     1       1.563   6.114  20.485  0.00  0.00    +0.000 C 
ENDROOT
BRANCH  12  13
ATOM     13  C   UNL     1       1.637   7.573  20.346  0.00  0.00    +0.000 A 
ATOM     14  C   UNL     1       1.507   8.391  21.470  0.00  0.00    +0.000 A 
ATOM     15  C   UNL     1       1.105   9.726  21.319  0.00  0.00    +0.000 A 
ATOM     16  C   UNL     1       0.848  10.270  20.046  0.00  0.00    +0.000 A 
ATOM     17  C   UNL     1       1.193   9.484  18.929  0.00  0.00    +0.000 A 
ATOM     18  C   UNL     1       1.578   8.147  19.073  0.00  0.00    +0.000 A 
BRANCH  16  19
ATOM     19  C   UNL     1       0.117  11.611  19.847  0.00  0.00    +0.000 C 
ATOM     20  C   UNL     1      -0.327  12.272  21.171  0.00  0.00    +0.000 C 
ATOM     21  C   UNL     1       1.017  12.606  19.095  0.00  0.00    +0.000 C 
ATOM     22  C   UNL     1      -1.178  11.388  19.024  0.00  0.00    +0.000 C 
ENDBRANCH  16  19
ENDBRANCH  12  13
BRANCH   1  24
ATOM     23  C   UNL     1       7.005   4.760  15.480  0.00  0.00    +0.000 C 
ATOM     24  O   UNL     1       6.445   5.998  15.923  0.00  0.00    +0.000 OA
ENDBRANCH   1  24
TORSDOF 3
ENDMDL
