MODEL 1
REMARK VINA RESULT:      -8.6      0.000      0.000
REMARK  Name = 
REMARK  4 active torsions:
REMARK  status: ('A' for Active; 'I' for Inactive)
REMARK    1  A    between atoms: C_9  and  C_10
REMARK    2  A    between atoms: C_13  and  N_14
REMARK    3  A    between atoms: N_17  and  C_18
REMARK    4  A    between atoms: C_23  and  C_24
REMARK                            x       y       z     vdW  Elec       q    Type
REMARK                         _______ _______ _______ _____ _____    ______ ____
ROOT
ATOM      1  C   UNL     1       2.835   7.123  18.261  0.00  0.00    +0.000 A 
ATOM      2  C   UNL     1       2.482   7.048  19.619  0.00  0.00    +0.000 A 
ATOM      3  C   UNL     1       1.734   8.052  20.238  0.00  0.00    +0.000 A 
ATOM      4  C   UNL     1       1.357   9.199  19.539  0.00  0.00    +0.000 A 
ATOM      5  C   UNL     1       1.626   9.261  18.176  0.00  0.00    +0.000 A 
ATOM      6  C   UNL     1       2.320   8.215  17.544  0.00  0.00    +0.000 A 
ENDROOT
BRANCH   1  15
ATOM      7  N   UNL     1       1.305   4.177  18.982  0.00  0.00    +0.000 N 
ATOM      8  C   UNL     1       2.428   3.808  18.332  0.00  0.00    +0.000 A 
ATOM      9  N   UNL     1       2.746   2.523  18.157  0.00  0.00    +0.000 NA
ATOM     10  O   UNL     1       3.907   2.518  17.420  0.00  0.00    +0.000 OA
ATOM     11  C   UNL     1       4.294   3.793  17.169  0.00  0.00    +0.000 A 
ATOM     12  C   UNL     1       5.422   4.139  16.431  0.00  0.00    +0.000 A 
ATOM     13  C   UNL     1       5.662   5.498  16.270  0.00  0.00    +0.000 A 
ATOM     14  C   UNL     1       4.817   6.442  16.859  0.00  0.00    +0.000 A 
ATOM     15  C   UNL     1       3.677   6.083  17.634  0.00  0.00    +0.000 A 
ATOM     16  C   UNL     1       3.404   4.688  17.755  0.00  0.00    +0.000 A 
ATOM     17  H   UNL     1       0.656   3.435  19.221  0.00  0.00    +0.000 HD
ATOM     18  H   UNL     1       0.843   5.044  18.730  0.00  0.00    +0.000 HD
ENDBRANCH   1  15
BRANCH   4  19
ATOM     19  N   UNL     1       0.712  10.291  20.158  0.00  0.00    +0.000 N 
ATOM     20  C   UNL     1      -0.656  10.511  20.123  0.00  0.00    +0.000 C 
ATOM     21  O   UNL     1      -1.479   9.733  19.647  0.00  0.00    +0.000 OA
ATOM     22  N   UNL     1      -0.989  11.740  20.665  0.00  0.00    +0.000 N 
ATOM     23  H   UNL     1       1.218  10.781  20.882  0.00  0.00    +0.000 HD
ATOM     24  H   UNL     1      -0.295  12.458  20.477  0.00  0.00    +0.000 HD
BRANCH  22  25
ATOM     25  C   UNL     1      -2.345  12.149  20.739  0.00  0.00    +0.000 A 
ATOM     26  C   UNL     1      -3.052  12.391  19.550  0.00  0.00    +0.000 A 
ATOM     27  C   UNL     1      -4.370  12.848  19.578  0.00  0.00    +0.000 A 
ATOM     28  C   UNL     1      -5.000  13.059  20.795  0.00  0.00    +0.000 A 
ATOM     29  C   UNL     1      -4.318  12.800  21.983  0.00  0.00    +0.000 A 
ATOM     30  C   UNL     1      -2.985  12.333  21.975  0.00  0.00    +0.000 A 
BRANCH  30  31
ATOM     31  C   UNL     1      -2.295  12.157  23.301  0.00  0.00    +0.000 C 
ATOM     32  F   UNL     1      -1.208  12.968  23.476  0.00  0.00    +0.000 F 
ATOM     33  F   UNL     1      -3.116  12.412  24.357  0.00  0.00    +0.000 F 
ATOM     34  F   UNL     1      -1.833  10.890  23.485  0.00  0.00    +0.000 F 
ENDBRANCH  30  31
ENDBRANCH  22  25
ENDBRANCH   4  19
TORSDOF 4
ENDMDL
MODEL 2
REMARK VINA RESULT:      -8.6      3.960      4.861
REMARK  Name = 
REMARK  4 active torsions:
REMARK  status: ('A' for Active; 'I' for Inactive)
REMARK    1  A    between atoms: C_9  and  C_10
REMARK    2  A    between atoms: C_13  and  N_14
REMARK    3  A    between atoms: N_17  and  C_18
REMARK    4  A    between atoms: C_23  and  C_24
REMARK                            x       y       z     vdW  Elec       q    Type
REMARK                         _______ _______ _______ _____ _____    ______ ____
ROOT
ATOM      1  C   UNL     1       2.154   6.770  19.394  0.00  0.00    +0.000 A 
ATOM      2  C   UNL     1       1.649   7.774  20.238  0.00  0.00    +0.000 A 
ATOM      3  C   UNL     1       1.453   9.081  19.786  0.00  0.00    +0.000 A 
ATOM      4  C   UNL     1       1.807   9.451  18.489  0.00  0.00    +0.000 A 
ATOM      5  C   UNL     1       2.234   8.460  17.611  0.00  0.00    +0.000 A 
ATOM      6  C   UNL     1       2.363   7.133  18.054  0.00  0.00    +0.000 A 
ENDROOT
BRANCH   1  15
ATOM      7  N   UNL     1       5.349   6.061  18.482  0.00  0.00    +0.000 N 
ATOM      8  C   UNL     1       4.916   4.921  19.059  0.00  0.00    +0.000 A 
ATOM      9  N   UNL     1       5.683   3.830  19.114  0.00  0.00    +0.000 NA
ATOM     10  O   UNL     1       4.955   2.891  19.806  0.00  0.00    +0.000 OA
ATOM     11  C   UNL     1       3.750   3.410  20.150  0.00  0.00    +0.000 A 
ATOM     12  C   UNL     1       2.779   2.725  20.874  0.00  0.00    +0.000 A 
ATOM     13  C   UNL     1       1.604   3.417  21.140  0.00  0.00    +0.000 A 
ATOM     14  C   UNL     1       1.424   4.717  20.663  0.00  0.00    +0.000 A 
ATOM     15  C   UNL     1       2.411   5.406  19.901  0.00  0.00    +0.000 A 
ATOM     16  C   UNL     1       3.636   4.712  19.673  0.00  0.00    +0.000 A 
ATOM     17  H   UNL     1       6.324   6.086  18.205  0.00  0.00    +0.000 HD
ATOM     18  H   UNL     1       5.009   6.955  18.823  0.00  0.00    +0.000 HD
ENDBRANCH   1  15
BRANCH   4  19
ATOM     19  N   UNL     1       1.744  10.785  18.032  0.00  0.00    +0.000 N 
ATOM     20  C   UNL     1       1.414  11.868  18.831  0.00  0.00    +0.000 C 
ATOM     21  O   UNL     1       1.244  11.816  20.047  0.00  0.00    +0.000 OA
ATOM     22  N   UNL     1       1.265  13.024  18.087  0.00  0.00    +0.000 N 
ATOM     23  H   UNL     1       2.220  11.004  17.168  0.00  0.00    +0.000 HD
ATOM     24  H   UNL     1       0.866  12.857  17.168  0.00  0.00    +0.000 HD
BRANCH  22  25
ATOM     25  C   UNL     1       0.944  14.252  18.722  0.00  0.00    +0.000 A 
ATOM     26  C   UNL     1      -0.369  14.464  19.174  0.00  0.00    +0.000 A 
ATOM     27  C   UNL     1      -0.742  15.677  19.753  0.00  0.00    +0.000 A 
ATOM     28  C   UNL     1       0.196  16.689  19.896  0.00  0.00    +0.000 A 
ATOM     29  C   UNL     1       1.508  16.483  19.473  0.00  0.00    +0.000 A 
ATOM     30  C   UNL     1       1.905  15.261  18.888  0.00  0.00    +0.000 A 
BRANCH  30  31
ATOM     31  C   UNL     1       3.319  15.151  18.384  0.00  0.00    +0.000 C 
ATOM     32  F   UNL     1       3.974  14.025  18.800  0.00  0.00    +0.000 F 
ATOM     33  F   UNL     1       3.392  15.136  17.024  0.00  0.00    +0.000 F 
ATOM     34  F   UNL     1       4.100  16.191  18.787  0.00  0.00    +0.000 F 
ENDBRANCH  30  31
ENDBRANCH  22  25
ENDBRANCH   4  19
TORSDOF 4
ENDMDL
MODEL 3
REMARK VINA RESULT:      -8.6      3.749      4.682
REMARK  Name = 
REMARK  4 active torsions:
REMARK  status: ('A' for Active; 'I' for Inactive)
REMARK    1  A    between atoms: C_9  and  C_10
REMARK    2  A    between atoms: C_13  and  N_14
REMARK    3  A    between atoms: N_17  and  C_18
REMARK    4  A    between atoms: C_23  and  C_24
REMARK                            x       y       z     vdW  Elec       q    Type
REMARK                         _______ _______ _______ _____ _____    ______ ____
ROOT
ATOM      1  C   UNL     1       2.174   6.717  19.446  0.00  0.00    +0.000 A 
ATOM      2  C   UNL     1       2.543   7.116  18.150  0.00  0.00    +0.000 A 
ATOM      3  C   UNL     1       2.375   8.432  17.713  0.00  0.00    +0.000 A 
ATOM      4  C   UNL     1       1.780   9.389  18.535  0.00  0.00    +0.000 A 
ATOM      5  C   UNL     1       1.479   9.040  19.847  0.00  0.00    +0.000 A 
ATOM      6  C   UNL     1       1.714   7.731  20.301  0.00  0.00    +0.000 A 
ENDROOT
BRANCH   1  15
ATOM      7  N   UNL     1       5.403   5.876  18.810  0.00  0.00    +0.000 N 
ATOM      8  C   UNL     1       4.852   4.728  19.254  0.00  0.00    +0.000 A 
ATOM      9  N   UNL     1       5.548   3.591  19.306  0.00  0.00    +0.000 NA
ATOM     10  O   UNL     1       4.702   2.653  19.851  0.00  0.00    +0.000 OA
ATOM     11  C   UNL     1       3.498   3.222  20.109  0.00  0.00    +0.000 A 
ATOM     12  C   UNL     1       2.421   2.550  20.680  0.00  0.00    +0.000 A 
ATOM     13  C   UNL     1       1.264   3.294  20.877  0.00  0.00    +0.000 A 
ATOM     14  C   UNL     1       1.205   4.632  20.481  0.00  0.00    +0.000 A 
ATOM     15  C   UNL     1       2.303   5.308  19.875  0.00  0.00    +0.000 A 
ATOM     16  C   UNL     1       3.505   4.557  19.720  0.00  0.00    +0.000 A 
ATOM     17  H   UNL     1       6.403   5.859  18.634  0.00  0.00    +0.000 HD
ATOM     18  H   UNL     1       5.079   6.764  19.179  0.00  0.00    +0.000 HD
ENDBRANCH   1  15
BRANCH   4  19
ATOM     19  N   UNL     1       1.477  10.694  18.090  0.00  0.00    +0.000 N 
ATOM     20  C   UNL     1       1.250  11.772  18.931  0.00  0.00    +0.000 C 
ATOM     21  O   UNL     1       1.391  11.751  20.151  0.00  0.00    +0.000 OA
ATOM     22  N   UNL     1       0.812  12.881  18.231  0.00  0.00    +0.000 N 
ATOM     23  H   UNL     1       1.702  10.923  17.132  0.00  0.00    +0.000 HD
ATOM     24  H   UNL     1       0.217  12.644  17.442  0.00  0.00    +0.000 HD
BRANCH  22  25
ATOM     25  C   UNL     1       0.539  14.098  18.908  0.00  0.00    +0.000 A 
ATOM     26  C   UNL     1      -0.756  14.330  19.401  0.00  0.00    +0.000 A 
ATOM     27  C   UNL     1      -1.082  15.535  20.024  0.00  0.00    +0.000 A 
ATOM     28  C   UNL     1      -0.115  16.518  20.171  0.00  0.00    +0.000 A 
ATOM     29  C   UNL     1       1.181  16.291  19.708  0.00  0.00    +0.000 A 
ATOM     30  C   UNL     1       1.531  15.077  19.078  0.00  0.00    +0.000 A 
BRANCH  30  31
ATOM     31  C   UNL     1       2.928  14.945  18.535  0.00  0.00    +0.000 C 
ATOM     32  F   UNL     1       2.983  14.676  17.195  0.00  0.00    +0.000 F 
ATOM     33  F   UNL     1       3.668  16.074  18.713  0.00  0.00    +0.000 F 
ATOM     34  F   UNL     1       3.629  13.942  19.133  0.00  0.00    +0.000 F 
ENDBRANCH  30  31
ENDBRANCH  22  25
ENDBRANCH   4  19
TORSDOF 4
ENDMDL
MODEL 4
REMARK VINA RESULT:      -8.6      1.785      2.505
REMARK  Name = 
REMARK  4 active torsions:
REMARK  status: ('A' for Active; 'I' for Inactive)
REMARK    1  A    between atoms: C_9  and  C_10
REMARK    2  A    between atoms: C_13  and  N_14
REMARK    3  A    between atoms: N_17  and  C_18
REMARK    4  A    between atoms: C_23  and  C_24
REMARK                            x       y       z     vdW  Elec       q    Type
REMARK                         _______ _______ _______ _____ _____    ______ ____
ROOT
ATOM      1  C   UNL     1       2.456   7.464  18.701  0.00  0.00    +0.000 A 
ATOM      2  C   UNL     1       2.111   8.460  17.772  0.00  0.00    +0.000 A 
ATOM      3  C   UNL     1       1.306   9.545  18.127  0.00  0.00    +0.000 A 
ATOM      4  C   UNL     1       0.767   9.649  19.409  0.00  0.00    +0.000 A 
ATOM      5  C   UNL     1       1.157   8.720  20.368  0.00  0.00    +0.000 A 
ATOM      6  C   UNL     1       2.022   7.668  20.021  0.00  0.00    +0.000 A 
ENDROOT
BRANCH   1  15
ATOM      7  N   UNL     1       1.101   4.832  20.369  0.00  0.00    +0.000 N 
ATOM      8  C   UNL     1       2.161   4.298  19.728  0.00  0.00    +0.000 A 
ATOM      9  N   UNL     1       2.499   3.016  19.881  0.00  0.00    +0.000 NA
ATOM     10  O   UNL     1       3.577   2.807  19.053  0.00  0.00    +0.000 OA
ATOM     11  C   UNL     1       3.895   3.963  18.419  0.00  0.00    +0.000 A 
ATOM     12  C   UNL     1       4.930   4.092  17.496  0.00  0.00    +0.000 A 
ATOM     13  C   UNL     1       5.109   5.353  16.941  0.00  0.00    +0.000 A 
ATOM     14  C   UNL     1       4.301   6.422  17.336  0.00  0.00    +0.000 A 
ATOM     15  C   UNL     1       3.259   6.291  18.298  0.00  0.00    +0.000 A 
ATOM     16  C   UNL     1       3.044   4.984  18.828  0.00  0.00    +0.000 A 
ATOM     17  H   UNL     1       0.504   4.185  20.872  0.00  0.00    +0.000 HD
ATOM     18  H   UNL     1       0.588   5.595  19.939  0.00  0.00    +0.000 HD
ENDBRANCH   1  15
BRANCH   4  19
ATOM     19  N   UNL     1      -0.150  10.659  19.771  0.00  0.00    +0.000 N 
ATOM     20  C   UNL     1       0.086  11.613  20.747  0.00  0.00    +0.000 C 
ATOM     21  O   UNL     1       1.154  11.765  21.336  0.00  0.00    +0.000 OA
ATOM     22  N   UNL     1      -1.045  12.366  21.008  0.00  0.00    +0.000 N 
ATOM     23  H   UNL     1      -0.889  10.873  19.116  0.00  0.00    +0.000 HD
ATOM     24  H   UNL     1      -1.904  11.830  20.938  0.00  0.00    +0.000 HD
BRANCH  22  25
ATOM     25  C   UNL     1      -1.007  13.412  21.967  0.00  0.00    +0.000 A 
ATOM     26  C   UNL     1      -0.084  14.457  21.803  0.00  0.00    +0.000 A 
ATOM     27  C   UNL     1       0.025  15.475  22.751  0.00  0.00    +0.000 A 
ATOM     28  C   UNL     1      -0.794  15.465  23.869  0.00  0.00    +0.000 A 
ATOM     29  C   UNL     1      -1.731  14.446  24.033  0.00  0.00    +0.000 A 
ATOM     30  C   UNL     1      -1.859  13.409  23.083  0.00  0.00    +0.000 A 
BRANCH  30  31
ATOM     31  C   UNL     1      -2.838  12.305  23.377  0.00  0.00    +0.000 C 
ATOM     32  F   UNL     1      -3.781  12.120  22.404  0.00  0.00    +0.000 F 
ATOM     33  F   UNL     1      -2.232  11.095  23.535  0.00  0.00    +0.000 F 
ATOM     34  F   UNL     1      -3.541  12.521  24.523  0.00  0.00    +0.000 F 
ENDBRANCH  30  31
ENDBRANCH  22  25
ENDBRANCH   4  19
TORSDOF 4
ENDMDL
MODEL 5
REMARK VINA RESULT:      -8.6      1.555      2.304
REMARK  Name = 
REMARK  4 active torsions:
REMARK  status: ('A' for Active; 'I' for Inactive)
REMARK    1  A    between atoms: C_9  and  C_10
REMARK    2  A    between atoms: C_13  and  N_14
REMARK    3  A    between atoms: N_17  and  C_18
REMARK    4  A    between atoms: C_23  and  C_24
REMARK                            x       y       z     vdW  Elec       q    Type
REMARK                         _______ _______ _______ _____ _____    ______ ____
ROOT
ATOM      1  C   UNL     1       2.433   6.697  18.443  0.00  0.00    +0.000 A 
ATOM      2  C   UNL     1       2.242   7.704  17.482  0.00  0.00    +0.000 A 
ATOM      3  C   UNL     1       1.789   8.977  17.837  0.00  0.00    +0.000 A 
ATOM      4  C   UNL     1       1.456   9.278  19.157  0.00  0.00    +0.000 A 
ATOM      5  C   UNL     1       1.711   8.325  20.137  0.00  0.00    +0.000 A 
ATOM      6  C   UNL     1       2.231   7.069  19.782  0.00  0.00    +0.000 A 
ENDROOT
BRANCH   1  15
ATOM      7  N   UNL     1       5.572   7.060  17.196  0.00  0.00    +0.000 N 
ATOM      8  C   UNL     1       5.299   5.754  17.007  0.00  0.00    +0.000 A 
ATOM      9  N   UNL     1       6.158   4.940  16.391  0.00  0.00    +0.000 NA
ATOM     10  O   UNL     1       5.586   3.690  16.422  0.00  0.00    +0.000 OA
ATOM     11  C   UNL     1       4.381   3.756  17.041  0.00  0.00    +0.000 A 
ATOM     12  C   UNL     1       3.548   2.661  17.254  0.00  0.00    +0.000 A 
ATOM     13  C   UNL     1       2.350   2.915  17.910  0.00  0.00    +0.000 A 
ATOM     14  C   UNL     1       2.012   4.216  18.290  0.00  0.00    +0.000 A 
ATOM     15  C   UNL     1       2.856   5.337  18.048  0.00  0.00    +0.000 A 
ATOM     16  C   UNL     1       4.108   5.066  17.420  0.00  0.00    +0.000 A 
ATOM     17  H   UNL     1       6.510   7.366  16.957  0.00  0.00    +0.000 HD
ATOM     18  H   UNL     1       5.192   7.540  18.005  0.00  0.00    +0.000 HD
ENDBRANCH   1  15
BRANCH   4  19
ATOM     19  N   UNL     1       0.877  10.508  19.536  0.00  0.00    +0.000 N 
ATOM     20  C   UNL     1      -0.436  10.657  19.953  0.00  0.00    +0.000 C 
ATOM     21  O   UNL     1      -1.220   9.730  20.146  0.00  0.00    +0.000 OA
ATOM     22  N   UNL     1      -0.777  11.990  20.098  0.00  0.00    +0.000 N 
ATOM     23  H   UNL     1       1.504  11.262  19.781  0.00  0.00    +0.000 HD
ATOM     24  H   UNL     1      -0.329  12.591  19.413  0.00  0.00    +0.000 HD
BRANCH  22  25
ATOM     25  C   UNL     1      -2.077  12.356  20.535  0.00  0.00    +0.000 A 
ATOM     26  C   UNL     1      -3.130  12.376  19.605  0.00  0.00    +0.000 A 
ATOM     27  C   UNL     1      -4.410  12.784  19.980  0.00  0.00    +0.000 A 
ATOM     28  C   UNL     1      -4.656  13.166  21.290  0.00  0.00    +0.000 A 
ATOM     29  C   UNL     1      -3.625  13.128  22.228  0.00  0.00    +0.000 A 
ATOM     30  C   UNL     1      -2.324  12.715  21.869  0.00  0.00    +0.000 A 
BRANCH  30  31
ATOM     31  C   UNL     1      -1.251  12.782  22.922  0.00  0.00    +0.000 C 
ATOM     32  F   UNL     1      -1.630  13.430  24.066  0.00  0.00    +0.000 F 
ATOM     33  F   UNL     1      -0.831  11.549  23.322  0.00  0.00    +0.000 F 
ATOM     34  F   UNL     1      -0.136  13.434  22.492  0.00  0.00    +0.000 F 
ENDBRANCH  30  31
ENDBRANCH  22  25
ENDBRANCH   4  19
TORSDOF 4
ENDMDL
MODEL 6
REMARK VINA RESULT:      -8.5      3.271      4.059
REMARK  Name = 
REMARK  4 active torsions:
REMARK  status: ('A' for Active; 'I' for Inactive)
REMARK    1  A    between atoms: C_9  and  C_10
REMARK    2  A    between atoms: C_13  and  N_14
REMARK    3  A    between atoms: N_17  and  C_18
REMARK    4  A    between atoms: C_23  and  C_24
REMARK                            x       y       z     vdW  Elec       q    Type
REMARK                         _______ _______ _______ _____ _____    ______ ____
ROOT
ATOM      1  C   UNL     1       2.650   6.875  19.082  0.00  0.00    +0.000 A 
ATOM      2  C   UNL     1       2.552   7.468  17.811  0.00  0.00    +0.000 A 
ATOM      3  C   UNL     1       1.862   8.666  17.614  0.00  0.00    +0.000 A 
ATOM      4  C   UNL     1       1.195   9.291  18.667  0.00  0.00    +0.000 A 
ATOM      5  C   UNL     1       1.342   8.768  19.947  0.00  0.00    +0.000 A 
ATOM      6  C   UNL     1       2.095   7.599  20.149  0.00  0.00    +0.000 A 
ENDROOT
BRANCH   1  15
ATOM      7  N   UNL     1       5.690   7.242  17.610  0.00  0.00    +0.000 N 
ATOM      8  C   UNL     1       5.674   5.952  18.003  0.00  0.00    +0.000 A 
ATOM      9  N   UNL     1       6.687   5.125  17.732  0.00  0.00    +0.000 NA
ATOM     10  O   UNL     1       6.362   3.924  18.318  0.00  0.00    +0.000 OA
ATOM     11  C   UNL     1       5.152   4.025  18.924  0.00  0.00    +0.000 A 
ATOM     12  C   UNL     1       4.538   2.991  19.625  0.00  0.00    +0.000 A 
ATOM     13  C   UNL     1       3.299   3.276  20.185  0.00  0.00    +0.000 A 
ATOM     14  C   UNL     1       2.711   4.531  20.006  0.00  0.00    +0.000 A 
ATOM     15  C   UNL     1       3.333   5.577  19.267  0.00  0.00    +0.000 A 
ATOM     16  C   UNL     1       4.627   5.299  18.736  0.00  0.00    +0.000 A 
ATOM     17  H   UNL     1       6.558   7.583  17.209  0.00  0.00    +0.000 HD
ATOM     18  H   UNL     1       5.207   7.941  18.165  0.00  0.00    +0.000 HD
ENDBRANCH   1  15
BRANCH   4  19
ATOM     19  N   UNL     1       0.383  10.432  18.485  0.00  0.00    +0.000 N 
ATOM     20  C   UNL     1      -0.983  10.462  18.716  0.00  0.00    +0.000 C 
ATOM     21  O   UNL     1      -1.631   9.541  19.206  0.00  0.00    +0.000 OA
ATOM     22  N   UNL     1      -1.544  11.654  18.297  0.00  0.00    +0.000 N 
ATOM     23  H   UNL     1       0.844  11.330  18.454  0.00  0.00    +0.000 HD
ATOM     24  H   UNL     1      -1.103  12.029  17.462  0.00  0.00    +0.000 HD
BRANCH  22  25
ATOM     25  C   UNL     1      -2.934  11.892  18.461  0.00  0.00    +0.000 A 
ATOM     26  C   UNL     1      -3.386  12.525  19.630  0.00  0.00    +0.000 A 
ATOM     27  C   UNL     1      -4.747  12.727  19.857  0.00  0.00    +0.000 A 
ATOM     28  C   UNL     1      -5.673  12.309  18.913  0.00  0.00    +0.000 A 
ATOM     29  C   UNL     1      -5.236  11.700  17.737  0.00  0.00    +0.000 A 
ATOM     30  C   UNL     1      -3.862  11.490  17.487  0.00  0.00    +0.000 A 
BRANCH  30  31
ATOM     31  C   UNL     1      -3.482  10.753  16.232  0.00  0.00    +0.000 C 
ATOM     32  F   UNL     1      -2.438  11.314  15.549  0.00  0.00    +0.000 F 
ATOM     33  F   UNL     1      -3.113   9.464  16.471  0.00  0.00    +0.000 F 
ATOM     34  F   UNL     1      -4.504  10.687  15.335  0.00  0.00    +0.000 F 
ENDBRANCH  30  31
ENDBRANCH  22  25
ENDBRANCH   4  19
TORSDOF 4
ENDMDL
MODEL 7
REMARK VINA RESULT:      -8.5      2.986      3.638
REMARK  Name = 
REMARK  4 active torsions:
REMARK  status: ('A' for Active; 'I' for Inactive)
REMARK    1  A    between atoms: C_9  and  C_10
REMARK    2  A    between atoms: C_13  and  N_14
REMARK    3  A    between atoms: N_17  and  C_18
REMARK    4  A    between atoms: C_23  and  C_24
REMARK                            x       y       z     vdW  Elec       q    Type
REMARK                         _______ _______ _______ _____ _____    ______ ____
ROOT
ATOM      1  C   UNL     1       2.706   6.802  19.177  0.00  0.00    +0.000 A 
ATOM      2  C   UNL     1       2.692   7.469  17.940  0.00  0.00    +0.000 A 
ATOM      3  C   UNL     1       2.024   8.685  17.772  0.00  0.00    +0.000 A 
ATOM      4  C   UNL     1       1.297   9.253  18.817  0.00  0.00    +0.000 A 
ATOM      5  C   UNL     1       1.360   8.654  20.071  0.00  0.00    +0.000 A 
ATOM      6  C   UNL     1       2.091   7.467  20.249  0.00  0.00    +0.000 A 
ENDROOT
BRANCH   1  15
ATOM      7  N   UNL     1       0.324   4.738  20.445  0.00  0.00    +0.000 N 
ATOM      8  C   UNL     1       1.431   3.968  20.404  0.00  0.00    +0.000 A 
ATOM      9  N   UNL     1       1.429   2.715  20.863  0.00  0.00    +0.000 NA
ATOM     10  O   UNL     1       2.689   2.220  20.618  0.00  0.00    +0.000 OA
ATOM     11  C   UNL     1       3.448   3.178  20.030  0.00  0.00    +0.000 A 
ATOM     12  C   UNL     1       4.771   2.998  19.635  0.00  0.00    +0.000 A 
ATOM     13  C   UNL     1       5.393   4.090  19.043  0.00  0.00    +0.000 A 
ATOM     14  C   UNL     1       4.712   5.301  18.898  0.00  0.00    +0.000 A 
ATOM     15  C   UNL     1       3.367   5.488  19.326  0.00  0.00    +0.000 A 
ATOM     16  C   UNL     1       2.714   4.351  19.887  0.00  0.00    +0.000 A 
ATOM     17  H   UNL     1      -0.536   4.279  20.726  0.00  0.00    +0.000 HD
ATOM     18  H   UNL     1       0.182   5.449  19.735  0.00  0.00    +0.000 HD
ENDBRANCH   1  15
BRANCH   4  19
ATOM     19  N   UNL     1       0.506  10.411  18.654  0.00  0.00    +0.000 N 
ATOM     20  C   UNL     1      -0.848  10.478  18.941  0.00  0.00    +0.000 C 
ATOM     21  O   UNL     1      -1.497   9.580  19.471  0.00  0.00    +0.000 OA
ATOM     22  N   UNL     1      -1.398  11.679  18.529  0.00  0.00    +0.000 N 
ATOM     23  H   UNL     1       0.987  11.298  18.591  0.00  0.00    +0.000 HD
ATOM     24  H   UNL     1      -0.983  12.032  17.672  0.00  0.00    +0.000 HD
BRANCH  22  25
ATOM     25  C   UNL     1      -2.773  11.952  18.748  0.00  0.00    +0.000 A 
ATOM     26  C   UNL     1      -3.162  12.593  19.936  0.00  0.00    +0.000 A 
ATOM     27  C   UNL     1      -4.507  12.831  20.216  0.00  0.00    +0.000 A 
ATOM     28  C   UNL     1      -5.480  12.441  19.308  0.00  0.00    +0.000 A 
ATOM     29  C   UNL     1      -5.106  11.825  18.114  0.00  0.00    +0.000 A 
ATOM     30  C   UNL     1      -3.749  11.579  17.811  0.00  0.00    +0.000 A 
BRANCH  30  31
ATOM     31  C   UNL     1      -3.438  10.836  16.540  0.00  0.00    +0.000 C 
ATOM     32  F   UNL     1      -3.048   9.539  16.732  0.00  0.00    +0.000 F 
ATOM     33  F   UNL     1      -4.502  10.778  15.692  0.00  0.00    +0.000 F 
ATOM     34  F   UNL     1      -2.428  11.414  15.831  0.00  0.00    +0.000 F 
ENDBRANCH  30  31
ENDBRANCH  22  25
ENDBRANCH   4  19
TORSDOF 4
ENDMDL
MODEL 8
REMARK VINA RESULT:      -8.5      3.519      9.937
REMARK  Name = 
REMARK  4 active torsions:
REMARK  status: ('A' for Active; 'I' for Inactive)
REMARK    1  A    between atoms: C_9  and  C_10
REMARK    2  A    between atoms: C_13  and  N_14
REMARK    3  A    between atoms: N_17  and  C_18
REMARK    4  A    between atoms: C_23  and  C_24
REMARK                            x       y       z     vdW  Elec       q    Type
REMARK                         _______ _______ _______ _____ _____    ______ ____
ROOT
ATOM      1  C   UNL     1      -0.803  11.810  22.266  0.00  0.00    +0.000 A 
ATOM      2  C   UNL     1       0.117  11.750  21.204  0.00  0.00    +0.000 A 
ATOM      3  C   UNL     1       0.849  10.591  20.935  0.00  0.00    +0.000 A 
ATOM      4  C   UNL     1       0.734   9.465  21.749  0.00  0.00    +0.000 A 
ATOM      5  C   UNL     1      -0.225   9.472  22.756  0.00  0.00    +0.000 A 
ATOM      6  C   UNL     1      -1.007  10.618  22.979  0.00  0.00    +0.000 A 
ENDROOT
BRANCH   1  15
ATOM      7  N   UNL     1      -3.221  12.059  19.892  0.00  0.00    +0.000 N 
ATOM      8  C   UNL     1      -3.347  13.197  20.604  0.00  0.00    +0.000 A 
ATOM      9  N   UNL     1      -4.235  14.136  20.270  0.00  0.00    +0.000 NA
ATOM     10  O   UNL     1      -4.128  15.116  21.229  0.00  0.00    +0.000 OA
ATOM     11  C   UNL     1      -3.169  14.775  22.125  0.00  0.00    +0.000 A 
ATOM     12  C   UNL     1      -2.821  15.543  23.233  0.00  0.00    +0.000 A 
ATOM     13  C   UNL     1      -1.817  15.033  24.047  0.00  0.00    +0.000 A 
ATOM     14  C   UNL     1      -1.185  13.830  23.724  0.00  0.00    +0.000 A 
ATOM     15  C   UNL     1      -1.527  13.060  22.576  0.00  0.00    +0.000 A 
ATOM     16  C   UNL     1      -2.593  13.559  21.770  0.00  0.00    +0.000 A 
ATOM     17  H   UNL     1      -3.913  11.898  19.169  0.00  0.00    +0.000 HD
ATOM     18  H   UNL     1      -2.927  11.207  20.358  0.00  0.00    +0.000 HD
ENDBRANCH   1  15
BRANCH   4  19
ATOM     19  N   UNL     1       1.545   8.321  21.588  0.00  0.00    +0.000 N 
ATOM     20  C   UNL     1       1.766   7.685  20.376  0.00  0.00    +0.000 C 
ATOM     21  O   UNL     1       1.375   8.098  19.287  0.00  0.00    +0.000 OA
ATOM     22  N   UNL     1       2.460   6.500  20.541  0.00  0.00    +0.000 N 
ATOM     23  H   UNL     1       2.211   8.116  22.320  0.00  0.00    +0.000 HD
ATOM     24  H   UNL     1       2.218   6.014  21.400  0.00  0.00    +0.000 HD
BRANCH  22  25
ATOM     25  C   UNL     1       2.802   5.705  19.417  0.00  0.00    +0.000 A 
ATOM     26  C   UNL     1       3.713   6.209  18.475  0.00  0.00    +0.000 A 
ATOM     27  C   UNL     1       4.034   5.484  17.327  0.00  0.00    +0.000 A 
ATOM     28  C   UNL     1       3.456   4.242  17.113  0.00  0.00    +0.000 A 
ATOM     29  C   UNL     1       2.568   3.719  18.052  0.00  0.00    +0.000 A 
ATOM     30  C   UNL     1       2.233   4.436  19.222  0.00  0.00    +0.000 A 
BRANCH  30  31
ATOM     31  C   UNL     1       1.205   3.837  20.142  0.00  0.00    +0.000 C 
ATOM     32  F   UNL     1       0.570   2.739  19.631  0.00  0.00    +0.000 F 
ATOM     33  F   UNL     1       1.735   3.433  21.330  0.00  0.00    +0.000 F 
ATOM     34  F   UNL     1       0.211   4.713  20.457  0.00  0.00    +0.000 F 
ENDBRANCH  30  31
ENDBRANCH  22  25
ENDBRANCH   4  19
TORSDOF 4
ENDMDL
MODEL 9
REMARK VINA RESULT:      -8.5      1.900      2.396
REMARK  Name = 
REMARK  4 active torsions:
REMARK  status: ('A' for Active; 'I' for Inactive)
REMARK    1  A    between atoms: C_9  and  C_10
REMARK    2  A    between atoms: C_13  and  N_14
REMARK    3  A    between atoms: N_17  and  C_18
REMARK    4  A    between atoms: C_23  and  C_24
REMARK                            x       y       z     vdW  Elec       q    Type
REMARK                         _______ _______ _______ _____ _____    ______ ____
ROOT
ATOM      1  C   UNL     1       2.438   7.519  18.817  0.00  0.00    +0.000 A 
ATOM      2  C   UNL     1       1.956   7.758  20.116  0.00  0.00    +0.000 A 
ATOM      3  C   UNL     1       1.078   8.809  20.389  0.00  0.00    +0.000 A 
ATOM      4  C   UNL     1       0.691   9.699  19.387  0.00  0.00    +0.000 A 
ATOM      5  C   UNL     1       1.090   9.438  18.080  0.00  0.00    +0.000 A 
ATOM      6  C   UNL     1       1.919   8.338  17.801  0.00  0.00    +0.000 A 
ENDROOT
BRANCH   1  15
ATOM      7  N   UNL     1       1.277   4.823  20.528  0.00  0.00    +0.000 N 
ATOM      8  C   UNL     1       2.446   4.398  20.009  0.00  0.00    +0.000 A 
ATOM      9  N   UNL     1       2.925   3.179  20.266  0.00  0.00    +0.000 NA
ATOM     10  O   UNL     1       4.089   3.068  19.542  0.00  0.00    +0.000 OA
ATOM     11  C   UNL     1       4.317   4.221  18.866  0.00  0.00    +0.000 A 
ATOM     12  C   UNL     1       5.404   4.434  18.023  0.00  0.00    +0.000 A 
ATOM     13  C   UNL     1       5.474   5.678  17.409  0.00  0.00    +0.000 A 
ATOM     14  C   UNL     1       4.509   6.654  17.670  0.00  0.00    +0.000 A 
ATOM     15  C   UNL     1       3.412   6.440  18.552  0.00  0.00    +0.000 A 
ATOM     16  C   UNL     1       3.314   5.145  19.142  0.00  0.00    +0.000 A 
ATOM     17  H   UNL     1       0.722   4.132  21.021  0.00  0.00    +0.000 HD
ATOM     18  H   UNL     1       0.713   5.492  20.013  0.00  0.00    +0.000 HD
ENDBRANCH   1  15
BRANCH   4  19
ATOM     19  N   UNL     1      -0.091  10.845  19.645  0.00  0.00    +0.000 N 
ATOM     20  C   UNL     1       0.079  11.674  20.742  0.00  0.00    +0.000 C 
ATOM     21  O   UNL     1       0.991  11.578  21.559  0.00  0.00    +0.000 OA
ATOM     22  N   UNL     1      -0.930  12.617  20.830  0.00  0.00    +0.000 N 
ATOM     23  H   UNL     1      -0.609  11.239  18.873  0.00  0.00    +0.000 HD
ATOM     24  H   UNL     1      -1.831  12.264  20.522  0.00  0.00    +0.000 HD
BRANCH  22  25
ATOM     25  C   UNL     1      -0.930  13.575  21.877  0.00  0.00    +0.000 A 
ATOM     26  C   UNL     1      -0.073  14.684  21.789  0.00  0.00    +0.000 A 
ATOM     27  C   UNL     1      -0.000  15.619  22.821  0.00  0.00    +0.000 A 
ATOM     28  C   UNL     1      -0.791  15.463  23.949  0.00  0.00    +0.000 A 
ATOM     29  C   UNL     1      -1.664  14.380  24.039  0.00  0.00    +0.000 A 
ATOM     30  C   UNL     1      -1.754  13.424  23.004  0.00  0.00    +0.000 A 
BRANCH  30  31
ATOM     31  C   UNL     1      -2.661  12.242  23.216  0.00  0.00    +0.000 C 
ATOM     32  F   UNL     1      -3.424  12.320  24.349  0.00  0.00    +0.000 F 
ATOM     33  F   UNL     1      -3.541  12.064  22.193  0.00  0.00    +0.000 F 
ATOM     34  F   UNL     1      -1.975  11.071  23.325  0.00  0.00    +0.000 F 
ENDBRANCH  30  31
ENDBRANCH  22  25
ENDBRANCH   4  19
TORSDOF 4
ENDMDL
