MODEL 1
REMARK VINA RESULT:      -7.0      0.000      0.000
REMARK  Name = 
REMARK  5 active torsions:
REMARK  status: ('A' for Active; 'I' for Inactive)
REMARK    1  A    between atoms: C_1  and  C_2
REMARK    2  A    between atoms: C_5  and  N_6
REMARK    3  A    between atoms: N_6  and  S_7
REMARK    4  A    between atoms: S_7  and  N_10
REMARK    5  A    between atoms: C_16  and  C_17
REMARK                            x       y       z     vdW  Elec       q    Type
REMARK                         _______ _______ _______ _____ _____    ______ ____
ROOT
ATOM      1  N   UNL     1       5.732   4.089  16.574  0.00  0.00    +0.000 N 
ATOM      2  H   UNL     1       6.572   3.737  17.027  0.00  0.00    +0.000 HD
ENDROOT
BRANCH   1   7
ATOM      3  C   UNL     1       1.154   4.100  20.077  0.00  0.00    +0.000 C 
ATOM      4  C   UNL     1       2.338   4.115  19.153  0.00  0.00    +0.000 A 
ATOM      5  C   UNL     1       2.248   3.637  17.844  0.00  0.00    +0.000 A 
ATOM      6  C   UNL     1       3.373   3.647  17.010  0.00  0.00    +0.000 A 
ATOM      7  C   UNL     1       4.607   4.113  17.478  0.00  0.00    +0.000 A 
ATOM      8  C   UNL     1       4.709   4.629  18.779  0.00  0.00    +0.000 A 
ATOM      9  C   UNL     1       5.965   5.206  19.366  0.00  0.00    +0.000 C 
ATOM     10  C   UNL     1       3.566   4.616  19.605  0.00  0.00    +0.000 A 
ENDBRANCH   1   7
BRANCH   1  11
ATOM     11  S   UNL     1       6.122   5.586  15.895  0.00  0.00    +0.000 S 
ATOM     12  O   UNL     1       5.005   6.491  16.036  0.00  0.00    +0.000 OA
ATOM     13  O   UNL     1       7.454   5.943  16.324  0.00  0.00    +0.000 OA
BRANCH  11  14
ATOM     14  N   UNL     1       6.227   5.152  14.238  0.00  0.00    +0.000 NA
ATOM     15  C   UNL     1       7.600   5.227  13.660  0.00  0.00    +0.000 C 
ATOM     16  C   UNL     1       7.553   4.929  12.162  0.00  0.00    +0.000 C 
ATOM     17  C   UNL     1       6.961   3.552  11.893  0.00  0.00    +0.000 C 
ATOM     18  C   UNL     1       5.581   3.448  12.527  0.00  0.00    +0.000 C 
ATOM     19  C   UNL     1       5.620   3.797  14.012  0.00  0.00    +0.000 C 
ENDBRANCH  11  14
ENDBRANCH   1  11
TORSDOF 3
ENDMDL
MODEL 2
REMARK VINA RESULT:      -7.0      2.038      6.202
REMARK  Name = 
REMARK  5 active torsions:
REMARK  status: ('A' for Active; 'I' for Inactive)
REMARK    1  A    between atoms: C_1  and  C_2
REMARK    2  A    between atoms: C_5  and  N_6
REMARK    3  A    between atoms: N_6  and  S_7
REMARK    4  A    between atoms: S_7  and  N_10
REMARK    5  A    between atoms: C_16  and  C_17
REMARK                            x       y       z     vdW  Elec       q    Type
REMARK                         _______ _______ _______ _____ _____    ______ ____
ROOT
ATOM      1  N   UNL     1       4.950   3.817  17.711  0.00  0.00    +0.000 N 
ATOM      2  H   UNL     1       4.206   3.146  17.532  0.00  0.00    +0.000 HD
ENDROOT
BRANCH   1   7
ATOM      3  C   UNL     1       7.687   5.133  12.812  0.00  0.00    +0.000 C 
ATOM      4  C   UNL     1       6.977   4.768  14.084  0.00  0.00    +0.000 A 
ATOM      5  C   UNL     1       5.668   4.281  14.075  0.00  0.00    +0.000 A 
ATOM      6  C   UNL     1       5.024   3.966  15.277  0.00  0.00    +0.000 A 
ATOM      7  C   UNL     1       5.669   4.151  16.506  0.00  0.00    +0.000 A 
ATOM      8  C   UNL     1       6.997   4.607  16.533  0.00  0.00    +0.000 A 
ATOM      9  C   UNL     1       7.804   4.789  17.786  0.00  0.00    +0.000 C 
ATOM     10  C   UNL     1       7.633   4.917  15.313  0.00  0.00    +0.000 A 
ENDBRANCH   1   7
BRANCH   1  11
ATOM     11  S   UNL     1       4.252   5.135  18.505  0.00  0.00    +0.000 S 
ATOM     12  O   UNL     1       4.959   5.391  19.738  0.00  0.00    +0.000 OA
ATOM     13  O   UNL     1       4.012   6.174  17.531  0.00  0.00    +0.000 OA
BRANCH  11  14
ATOM     14  N   UNL     1       2.725   4.470  18.916  0.00  0.00    +0.000 NA
ATOM     15  C   UNL     1       2.427   3.154  18.278  0.00  0.00    +0.000 C 
ATOM     16  C   UNL     1       1.004   2.716  18.626  0.00  0.00    +0.000 C 
ATOM     17  C   UNL     1       0.815   2.607  20.133  0.00  0.00    +0.000 C 
ATOM     18  C   UNL     1       1.170   3.929  20.798  0.00  0.00    +0.000 C 
ATOM     19  C   UNL     1       2.572   4.392  20.408  0.00  0.00    +0.000 C 
ENDBRANCH  11  14
ENDBRANCH   1  11
TORSDOF 3
ENDMDL
MODEL 3
REMARK VINA RESULT:      -6.9      2.214      6.471
REMARK  Name = 
REMARK  5 active torsions:
REMARK  status: ('A' for Active; 'I' for Inactive)
REMARK    1  A    between atoms: C_1  and  C_2
REMARK    2  A    between atoms: C_5  and  N_6
REMARK    3  A    between atoms: N_6  and  S_7
REMARK    4  A    between atoms: S_7  and  N_10
REMARK    5  A    between atoms: C_16  and  C_17
REMARK                            x       y       z     vdW  Elec       q    Type
REMARK                         _______ _______ _______ _____ _____    ______ ____
ROOT
ATOM      1  N   UNL     1       4.861   3.488  17.417  0.00  0.00    +0.000 N 
ATOM      2  H   UNL     1       4.712   2.482  17.382  0.00  0.00    +0.000 HD
ENDROOT
BRANCH   1   7
ATOM      3  C   UNL     1       7.918   5.289  12.875  0.00  0.00    +0.000 C 
ATOM      4  C   UNL     1       7.129   4.799  14.055  0.00  0.00    +0.000 A 
ATOM      5  C   UNL     1       5.936   4.091  13.891  0.00  0.00    +0.000 A 
ATOM      6  C   UNL     1       5.212   3.661  15.010  0.00  0.00    +0.000 A 
ATOM      7  C   UNL     1       5.656   3.950  16.305  0.00  0.00    +0.000 A 
ATOM      8  C   UNL     1       6.870   4.630  16.490  0.00  0.00    +0.000 A 
ATOM      9  C   UNL     1       7.470   4.943  17.830  0.00  0.00    +0.000 C 
ATOM     10  C   UNL     1       7.590   5.053  15.353  0.00  0.00    +0.000 A 
ENDBRANCH   1   7
BRANCH   1  11
ATOM     11  S   UNL     1       3.339   4.212  17.546  0.00  0.00    +0.000 S 
ATOM     12  O   UNL     1       3.461   5.638  17.352  0.00  0.00    +0.000 OA
ATOM     13  O   UNL     1       2.395   3.416  16.796  0.00  0.00    +0.000 OA
BRANCH  11  14
ATOM     14  N   UNL     1       3.014   3.945  19.209  0.00  0.00    +0.000 NA
ATOM     15  C   UNL     1       1.597   4.182  19.612  0.00  0.00    +0.000 C 
ATOM     16  C   UNL     1       1.451   4.024  21.125  0.00  0.00    +0.000 C 
ATOM     17  C   UNL     1       1.885   2.636  21.577  0.00  0.00    +0.000 C 
ATOM     18  C   UNL     1       3.312   2.364  21.122  0.00  0.00    +0.000 C 
ATOM     19  C   UNL     1       3.468   2.574  19.619  0.00  0.00    +0.000 C 
ENDBRANCH  11  14
ENDBRANCH   1  11
TORSDOF 3
ENDMDL
MODEL 4
REMARK VINA RESULT:      -6.8      2.641      6.412
REMARK  Name = 
REMARK  5 active torsions:
REMARK  status: ('A' for Active; 'I' for Inactive)
REMARK    1  A    between atoms: C_1  and  C_2
REMARK    2  A    between atoms: C_5  and  N_6
REMARK    3  A    between atoms: N_6  and  S_7
REMARK    4  A    between atoms: S_7  and  N_10
REMARK    5  A    between atoms: C_16  and  C_17
REMARK                            x       y       z     vdW  Elec       q    Type
REMARK                         _______ _______ _______ _____ _____    ______ ____
ROOT
ATOM      1  N   UNL     1       4.802   3.045  17.599  0.00  0.00    +0.000 N 
ATOM      2  H   UNL     1       5.051   2.446  16.815  0.00  0.00    +0.000 HD
ENDROOT
BRANCH   1   7
ATOM      3  C   UNL     1       8.139   7.726  18.015  0.00  0.00    +0.000 C 
ATOM      4  C   UNL     1       7.252   6.519  17.910  0.00  0.00    +0.000 A 
ATOM      5  C   UNL     1       6.667   5.943  19.040  0.00  0.00    +0.000 A 
ATOM      6  C   UNL     1       5.858   4.807  18.914  0.00  0.00    +0.000 A 
ATOM      7  C   UNL     1       5.638   4.219  17.663  0.00  0.00    +0.000 A 
ATOM      8  C   UNL     1       6.189   4.804  16.512  0.00  0.00    +0.000 A 
ATOM      9  C   UNL     1       5.973   4.294  15.116  0.00  0.00    +0.000 C 
ATOM     10  C   UNL     1       6.998   5.950  16.655  0.00  0.00    +0.000 A 
ENDBRANCH   1   7
BRANCH   1  11
ATOM     11  S   UNL     1       3.147   3.364  17.475  0.00  0.00    +0.000 S 
ATOM     12  O   UNL     1       2.944   4.660  16.872  0.00  0.00    +0.000 OA
ATOM     13  O   UNL     1       2.494   2.177  16.973  0.00  0.00    +0.000 OA
BRANCH  11  14
ATOM     14  N   UNL     1       2.736   3.499  19.135  0.00  0.00    +0.000 NA
ATOM     15  C   UNL     1       1.293   3.770  19.400  0.00  0.00    +0.000 C 
ATOM     16  C   UNL     1       1.067   3.981  20.897  0.00  0.00    +0.000 C 
ATOM     17  C   UNL     1       1.514   2.765  21.698  0.00  0.00    +0.000 C 
ATOM     18  C   UNL     1       2.971   2.448  21.392  0.00  0.00    +0.000 C 
ATOM     19  C   UNL     1       3.206   2.289  19.892  0.00  0.00    +0.000 C 
ENDBRANCH  11  14
ENDBRANCH   1  11
TORSDOF 3
ENDMDL
MODEL 5
REMARK VINA RESULT:      -6.7      2.988      3.875
REMARK  Name = 
REMARK  5 active torsions:
REMARK  status: ('A' for Active; 'I' for Inactive)
REMARK    1  A    between atoms: C_1  and  C_2
REMARK    2  A    between atoms: C_5  and  N_6
REMARK    3  A    between atoms: N_6  and  S_7
REMARK    4  A    between atoms: S_7  and  N_10
REMARK    5  A    between atoms: C_16  and  C_17
REMARK                            x       y       z     vdW  Elec       q    Type
REMARK                         _______ _______ _______ _____ _____    ______ ____
ROOT
ATOM      1  N   UNL     1       3.362   4.534  18.468  0.00  0.00    +0.000 N 
ATOM      2  H   UNL     1       2.840   3.700  18.728  0.00  0.00    +0.000 HD
ENDROOT
BRANCH   1   7
ATOM      3  C   UNL     1       0.934   9.396  20.387  0.00  0.00    +0.000 C 
ATOM      4  C   UNL     1       1.587   8.137  19.891  0.00  0.00    +0.000 A 
ATOM      5  C   UNL     1       2.231   8.089  18.654  0.00  0.00    +0.000 A 
ATOM      6  C   UNL     1       2.816   6.897  18.209  0.00  0.00    +0.000 A 
ATOM      7  C   UNL     1       2.748   5.733  18.984  0.00  0.00    +0.000 A 
ATOM      8  C   UNL     1       2.135   5.771  20.246  0.00  0.00    +0.000 A 
ATOM      9  C   UNL     1       2.053   4.601  21.184  0.00  0.00    +0.000 C 
ATOM     10  C   UNL     1       1.554   6.981  20.681  0.00  0.00    +0.000 A 
ENDBRANCH   1   7
BRANCH   1  11
ATOM     11  S   UNL     1       4.961   4.292  18.959  0.00  0.00    +0.000 S 
ATOM     12  O   UNL     1       5.453   5.481  19.616  0.00  0.00    +0.000 OA
ATOM     13  O   UNL     1       5.054   2.987  19.571  0.00  0.00    +0.000 OA
BRANCH  11  14
ATOM     14  N   UNL     1       5.738   4.188  17.433  0.00  0.00    +0.000 NA
ATOM     15  C   UNL     1       4.813   4.028  16.274  0.00  0.00    +0.000 C 
ATOM     16  C   UNL     1       5.616   3.834  14.988  0.00  0.00    +0.000 C 
ATOM     17  C   UNL     1       6.548   5.014  14.739  0.00  0.00    +0.000 C 
ATOM     18  C   UNL     1       7.458   5.219  15.941  0.00  0.00    +0.000 C 
ATOM     19  C   UNL     1       6.657   5.359  17.232  0.00  0.00    +0.000 C 
ENDBRANCH  11  14
ENDBRANCH   1  11
TORSDOF 3
ENDMDL
MODEL 6
REMARK VINA RESULT:      -6.7      2.931      4.157
REMARK  Name = 
REMARK  5 active torsions:
REMARK  status: ('A' for Active; 'I' for Inactive)
REMARK    1  A    between atoms: C_1  and  C_2
REMARK    2  A    between atoms: C_5  and  N_6
REMARK    3  A    between atoms: N_6  and  S_7
REMARK    4  A    between atoms: S_7  and  N_10
REMARK    5  A    between atoms: C_16  and  C_17
REMARK                            x       y       z     vdW  Elec       q    Type
REMARK                         _______ _______ _______ _____ _____    ______ ____
ROOT
ATOM      1  N   UNL     1       2.602   3.800  17.997  0.00  0.00    +0.000 N 
ATOM      2  H   UNL     1       1.820   3.153  17.918  0.00  0.00    +0.000 HD
ENDROOT
BRANCH   1   7
ATOM      3  C   UNL     1       1.394   8.380  21.282  0.00  0.00    +0.000 C 
ATOM      4  C   UNL     1       1.730   7.187  20.433  0.00  0.00    +0.000 A 
ATOM      5  C   UNL     1       2.488   7.311  19.267  0.00  0.00    +0.000 A 
ATOM      6  C   UNL     1       2.770   6.184  18.486  0.00  0.00    +0.000 A 
ATOM      7  C   UNL     1       2.284   4.922  18.847  0.00  0.00    +0.000 A 
ATOM      8  C   UNL     1       1.550   4.772  20.034  0.00  0.00    +0.000 A 
ATOM      9  C   UNL     1       1.028   3.460  20.547  0.00  0.00    +0.000 C 
ATOM     10  C   UNL     1       1.277   5.916  20.811  0.00  0.00    +0.000 A 
ENDBRANCH   1   7
BRANCH   1  11
ATOM     11  S   UNL     1       3.945   2.900  18.489  0.00  0.00    +0.000 S 
ATOM     12  O   UNL     1       4.348   3.311  19.814  0.00  0.00    +0.000 OA
ATOM     13  O   UNL     1       3.706   1.514  18.158  0.00  0.00    +0.000 OA
BRANCH  11  14
ATOM     14  N   UNL     1       5.124   3.484  17.388  0.00  0.00    +0.000 NA
ATOM     15  C   UNL     1       4.567   4.111  16.154  0.00  0.00    +0.000 C 
ATOM     16  C   UNL     1       5.702   4.490  15.203  0.00  0.00    +0.000 C 
ATOM     17  C   UNL     1       6.679   5.451  15.868  0.00  0.00    +0.000 C 
ATOM     18  C   UNL     1       7.210   4.842  17.157  0.00  0.00    +0.000 C 
ATOM     19  C   UNL     1       6.075   4.415  18.084  0.00  0.00    +0.000 C 
ENDBRANCH  11  14
ENDBRANCH   1  11
TORSDOF 3
ENDMDL
MODEL 7
REMARK VINA RESULT:      -6.7      2.117      6.196
REMARK  Name = 
REMARK  5 active torsions:
REMARK  status: ('A' for Active; 'I' for Inactive)
REMARK    1  A    between atoms: C_1  and  C_2
REMARK    2  A    between atoms: C_5  and  N_6
REMARK    3  A    between atoms: N_6  and  S_7
REMARK    4  A    between atoms: S_7  and  N_10
REMARK    5  A    between atoms: C_16  and  C_17
REMARK                            x       y       z     vdW  Elec       q    Type
REMARK                         _______ _______ _______ _____ _____    ______ ____
ROOT
ATOM      1  N   UNL     1       5.266   3.700  17.907  0.00  0.00    +0.000 N 
ATOM      2  H   UNL     1       4.689   2.870  17.793  0.00  0.00    +0.000 HD
ENDROOT
BRANCH   1   7
ATOM      3  C   UNL     1       7.621   5.215  12.868  0.00  0.00    +0.000 C 
ATOM      4  C   UNL     1       7.015   4.799  14.178  0.00  0.00    +0.000 A 
ATOM      5  C   UNL     1       5.863   4.013  14.232  0.00  0.00    +0.000 A 
ATOM      6  C   UNL     1       5.310   3.655  15.468  0.00  0.00    +0.000 A 
ATOM      7  C   UNL     1       5.887   4.095  16.665  0.00  0.00    +0.000 A 
ATOM      8  C   UNL     1       7.065   4.857  16.631  0.00  0.00    +0.000 A 
ATOM      9  C   UNL     1       7.801   5.334  17.850  0.00  0.00    +0.000 C 
ATOM     10  C   UNL     1       7.612   5.206  15.378  0.00  0.00    +0.000 A 
ENDBRANCH   1   7
BRANCH   1  11
ATOM     11  S   UNL     1       4.296   4.887  18.618  0.00  0.00    +0.000 S 
ATOM     12  O   UNL     1       4.998   5.490  19.727  0.00  0.00    +0.000 OA
ATOM     13  O   UNL     1       3.706   5.680  17.564  0.00  0.00    +0.000 OA
BRANCH  11  14
ATOM     14  N   UNL     1       3.046   3.909  19.270  0.00  0.00    +0.000 NA
ATOM     15  C   UNL     1       2.105   4.625  20.179  0.00  0.00    +0.000 C 
ATOM     16  C   UNL     1       1.108   3.636  20.784  0.00  0.00    +0.000 C 
ATOM     17  C   UNL     1       0.321   2.915  19.697  0.00  0.00    +0.000 C 
ATOM     18  C   UNL     1       1.276   2.226  18.733  0.00  0.00    +0.000 C 
ATOM     19  C   UNL     1       2.304   3.205  18.170  0.00  0.00    +0.000 C 
ENDBRANCH  11  14
ENDBRANCH   1  11
TORSDOF 3
ENDMDL
MODEL 8
REMARK VINA RESULT:      -6.7      2.871      3.878
REMARK  Name = 
REMARK  5 active torsions:
REMARK  status: ('A' for Active; 'I' for Inactive)
REMARK    1  A    between atoms: C_1  and  C_2
REMARK    2  A    between atoms: C_5  and  N_6
REMARK    3  A    between atoms: N_6  and  S_7
REMARK    4  A    between atoms: S_7  and  N_10
REMARK    5  A    between atoms: C_16  and  C_17
REMARK                            x       y       z     vdW  Elec       q    Type
REMARK                         _______ _______ _______ _____ _____    ______ ____
ROOT
ATOM      1  N   UNL     1       2.508   4.000  18.020  0.00  0.00    +0.000 N 
ATOM      2  H   UNL     1       1.834   3.246  18.132  0.00  0.00    +0.000 HD
ENDROOT
BRANCH   1   7
ATOM      3  C   UNL     1       1.352   8.566  21.343  0.00  0.00    +0.000 C 
ATOM      4  C   UNL     1       1.675   7.378  20.483  0.00  0.00    +0.000 A 
ATOM      5  C   UNL     1       2.323   7.521  19.254  0.00  0.00    +0.000 A 
ATOM      6  C   UNL     1       2.595   6.397  18.465  0.00  0.00    +0.000 A 
ATOM      7  C   UNL     1       2.207   5.118  18.882  0.00  0.00    +0.000 A 
ATOM      8  C   UNL     1       1.586   4.950  20.129  0.00  0.00    +0.000 A 
ATOM      9  C   UNL     1       1.178   3.623  20.701  0.00  0.00    +0.000 C 
ATOM     10  C   UNL     1       1.322   6.092  20.914  0.00  0.00    +0.000 A 
ENDBRANCH   1   7
BRANCH   1  11
ATOM     11  S   UNL     1       4.044   3.331  18.243  0.00  0.00    +0.000 S 
ATOM     12  O   UNL     1       4.496   3.588  19.591  0.00  0.00    +0.000 OA
ATOM     13  O   UNL     1       4.045   2.003  17.677  0.00  0.00    +0.000 OA
BRANCH  11  14
ATOM     14  N   UNL     1       4.966   4.327  17.193  0.00  0.00    +0.000 NA
ATOM     15  C   UNL     1       6.354   4.608  17.661  0.00  0.00    +0.000 C 
ATOM     16  C   UNL     1       7.037   5.589  16.709  0.00  0.00    +0.000 C 
ATOM     17  C   UNL     1       7.079   5.039  15.289  0.00  0.00    +0.000 C 
ATOM     18  C   UNL     1       5.670   4.698  14.823  0.00  0.00    +0.000 C 
ATOM     19  C   UNL     1       4.970   3.759  15.803  0.00  0.00    +0.000 C 
ENDBRANCH  11  14
ENDBRANCH   1  11
TORSDOF 3
ENDMDL
MODEL 9
REMARK VINA RESULT:      -6.6      2.899      6.037
REMARK  Name = 
REMARK  5 active torsions:
REMARK  status: ('A' for Active; 'I' for Inactive)
REMARK    1  A    between atoms: C_1  and  C_2
REMARK    2  A    between atoms: C_5  and  N_6
REMARK    3  A    between atoms: N_6  and  S_7
REMARK    4  A    between atoms: S_7  and  N_10
REMARK    5  A    between atoms: C_16  and  C_17
REMARK                            x       y       z     vdW  Elec       q    Type
REMARK                         _______ _______ _______ _____ _____    ______ ____
ROOT
ATOM      1  N   UNL     1       4.615   2.746  17.556  0.00  0.00    +0.000 N 
ATOM      2  H   UNL     1       4.752   2.230  16.690  0.00  0.00    +0.000 HD
ENDROOT
BRANCH   1   7
ATOM      3  C   UNL     1       7.717   7.598  17.809  0.00  0.00    +0.000 C 
ATOM      4  C   UNL     1       6.891   6.345  17.750  0.00  0.00    +0.000 A 
ATOM      5  C   UNL     1       6.514   5.664  18.910  0.00  0.00    +0.000 A 
ATOM      6  C   UNL     1       5.758   4.489  18.824  0.00  0.00    +0.000 A 
ATOM      7  C   UNL     1       5.386   3.966  17.580  0.00  0.00    +0.000 A 
ATOM      8  C   UNL     1       5.727   4.654  16.405  0.00  0.00    +0.000 A 
ATOM      9  C   UNL     1       5.334   4.217  15.023  0.00  0.00    +0.000 C 
ATOM     10  C   UNL     1       6.485   5.839  16.509  0.00  0.00    +0.000 A 
ENDBRANCH   1   7
BRANCH   1  11
ATOM     11  S   UNL     1       2.950   2.961  17.749  0.00  0.00    +0.000 S 
ATOM     12  O   UNL     1       2.362   3.363  16.492  0.00  0.00    +0.000 OA
ATOM     13  O   UNL     1       2.436   1.847  18.511  0.00  0.00    +0.000 OA
BRANCH  11  14
ATOM     14  N   UNL     1       2.936   4.328  18.784  0.00  0.00    +0.000 NA
ATOM     15  C   UNL     1       2.399   5.574  18.163  0.00  0.00    +0.000 C 
ATOM     16  C   UNL     1       2.539   6.745  19.136  0.00  0.00    +0.000 C 
ATOM     17  C   UNL     1       1.804   6.467  20.441  0.00  0.00    +0.000 C 
ATOM     18  C   UNL     1       2.308   5.168  21.054  0.00  0.00    +0.000 C 
ATOM     19  C   UNL     1       2.216   4.010  20.063  0.00  0.00    +0.000 C 
ENDBRANCH  11  14
ENDBRANCH   1  11
TORSDOF 3
ENDMDL
