MODEL 1
REMARK VINA RESULT:      -8.7      0.000      0.000
REMARK  Name = 
REMARK  4 active torsions:
REMARK  status: ('A' for Active; 'I' for Inactive)
REMARK    1  A    between atoms: C_2  and  C_3
REMARK    2  A    between atoms: C_3  and  S_4
REMARK    3  A    between atoms: S_4  and  C_5
REMARK    4  A    between atoms: N_18  and  C_19
REMARK                            x       y       z     vdW  Elec       q    Type
REMARK                         _______ _______ _______ _____ _____    ______ ____
ROOT
ATOM      1  C   UNL     1       5.577   5.154  19.035  0.00  0.00    +0.000 C 
ATOM      2  N   UNL     1       5.248   3.916  18.950  0.00  0.00    +0.000 NA
ATOM      3  C   UNL     1       3.913   3.525  18.823  0.00  0.00    +0.000 A 
ATOM      4  C   UNL     1       3.662   2.148  18.752  0.00  0.00    +0.000 A 
ATOM      5  C   UNL     1       2.355   1.656  18.692  0.00  0.00    +0.000 A 
ATOM      6  C   UNL     1       1.288   2.546  18.702  0.00  0.00    +0.000 A 
ATOM      7  F   UNL     1       0.036   2.075  18.652  0.00  0.00    +0.000 F 
ATOM      8  C   UNL     1       1.503   3.915  18.760  0.00  0.00    +0.000 A 
ATOM      9  C   UNL     1       2.817   4.382  18.819  0.00  0.00    +0.000 A 
ATOM     10  S   UNL     1       3.100   6.101  18.840  0.00  0.00    +0.000 S 
ATOM     11  O   UNL     1       2.678   6.627  17.558  0.00  0.00    +0.000 OA
ATOM     12  O   UNL     1       2.570   6.619  20.081  0.00  0.00    +0.000 OA
ATOM     13  N   UNL     1       4.738   6.245  18.926  0.00  0.00    +0.000 N 
ATOM     14  H   UNL     1       5.064   7.111  19.350  0.00  0.00    +0.000 HD
ENDROOT
BRANCH   1  15
ATOM     15  S   UNL     1       7.222   5.615  19.346  0.00  0.00    +0.000 S 
BRANCH  15  16
ATOM     16  C   UNL     1       7.623   6.334  17.720  0.00  0.00    +0.000 C 
BRANCH  16  18
ATOM     17  O   UNL     1       7.915   4.134  16.817  0.00  0.00    +0.000 OA
ATOM     18  C   UNL     1       7.508   5.278  16.626  0.00  0.00    +0.000 C 
ATOM     19  N   UNL     1       6.926   5.738  15.457  0.00  0.00    +0.000 N 
ATOM     20  H   UNL     1       6.739   6.733  15.368  0.00  0.00    +0.000 HD
BRANCH  19  21
ATOM     21  C   UNL     1       6.674   4.980  14.289  0.00  0.00    +0.000 A 
ATOM     22  C   UNL     1       5.565   4.149  14.128  0.00  0.00    +0.000 A 
ATOM     23  C   UNL     1       5.425   3.372  12.972  0.00  0.00    +0.000 A 
ATOM     24  C   UNL     1       6.386   3.425  11.964  0.00  0.00    +0.000 A 
ATOM     25  C   UNL     1       7.474   4.286  12.092  0.00  0.00    +0.000 A 
ATOM     26  C   UNL     1       7.600   5.064  13.242  0.00  0.00    +0.000 A 
ATOM     27  F   UNL     1       8.658   5.885  13.357  0.00  0.00    +0.000 F 
ENDBRANCH  19  21
ENDBRANCH  16  18
ENDBRANCH  15  16
ENDBRANCH   1  15
TORSDOF 4
ENDMDL
MODEL 2
REMARK VINA RESULT:      -8.7      1.234      1.554
REMARK  Name = 
REMARK  4 active torsions:
REMARK  status: ('A' for Active; 'I' for Inactive)
REMARK    1  A    between atoms: C_2  and  C_3
REMARK    2  A    between atoms: C_3  and  S_4
REMARK    3  A    between atoms: S_4  and  C_5
REMARK    4  A    between atoms: N_18  and  C_19
REMARK                            x       y       z     vdW  Elec       q    Type
REMARK                         _______ _______ _______ _____ _____    ______ ____
ROOT
ATOM      1  C   UNL     1       5.607   5.110  18.806  0.00  0.00    +0.000 C 
ATOM      2  N   UNL     1       5.266   3.879  18.669  0.00  0.00    +0.000 NA
ATOM      3  C   UNL     1       3.923   3.496  18.637  0.00  0.00    +0.000 A 
ATOM      4  C   UNL     1       3.660   2.127  18.496  0.00  0.00    +0.000 A 
ATOM      5  C   UNL     1       2.351   1.638  18.521  0.00  0.00    +0.000 A 
ATOM      6  C   UNL     1       1.293   2.524  18.688  0.00  0.00    +0.000 A 
ATOM      7  F   UNL     1       0.039   2.056  18.720  0.00  0.00    +0.000 F 
ATOM      8  C   UNL     1       1.519   3.886  18.818  0.00  0.00    +0.000 A 
ATOM      9  C   UNL     1       2.836   4.350  18.789  0.00  0.00    +0.000 A 
ATOM     10  S   UNL     1       3.127   6.064  18.900  0.00  0.00    +0.000 S 
ATOM     11  O   UNL     1       2.594   6.675  17.701  0.00  0.00    +0.000 OA
ATOM     12  O   UNL     1       2.713   6.497  20.216  0.00  0.00    +0.000 OA
ATOM     13  N   UNL     1       4.766   6.204  18.847  0.00  0.00    +0.000 N 
ATOM     14  H   UNL     1       5.134   7.040  19.297  0.00  0.00    +0.000 HD
ENDROOT
BRANCH   1  15
ATOM     15  S   UNL     1       7.276   5.550  18.998  0.00  0.00    +0.000 S 
BRANCH  15  16
ATOM     16  C   UNL     1       7.353   6.892  17.766  0.00  0.00    +0.000 C 
BRANCH  16  18
ATOM     17  O   UNL     1       5.685   6.903  16.046  0.00  0.00    +0.000 OA
ATOM     18  C   UNL     1       6.752   6.437  16.441  0.00  0.00    +0.000 C 
ATOM     19  N   UNL     1       7.508   5.487  15.776  0.00  0.00    +0.000 N 
ATOM     20  H   UNL     1       8.310   5.084  16.254  0.00  0.00    +0.000 HD
BRANCH  19  21
ATOM     21  C   UNL     1       7.209   4.902  14.523  0.00  0.00    +0.000 A 
ATOM     22  C   UNL     1       7.835   5.261  13.329  0.00  0.00    +0.000 A 
ATOM     23  C   UNL     1       7.430   4.689  12.117  0.00  0.00    +0.000 A 
ATOM     24  C   UNL     1       6.402   3.749  12.088  0.00  0.00    +0.000 A 
ATOM     25  C   UNL     1       5.800   3.347  13.279  0.00  0.00    +0.000 A 
ATOM     26  C   UNL     1       6.217   3.914  14.483  0.00  0.00    +0.000 A 
ATOM     27  F   UNL     1       5.624   3.524  15.623  0.00  0.00    +0.000 F 
ENDBRANCH  19  21
ENDBRANCH  16  18
ENDBRANCH  15  16
ENDBRANCH   1  15
TORSDOF 4
ENDMDL
MODEL 3
REMARK VINA RESULT:      -8.5      2.012      2.594
REMARK  Name = 
REMARK  4 active torsions:
REMARK  status: ('A' for Active; 'I' for Inactive)
REMARK    1  A    between atoms: C_2  and  C_3
REMARK    2  A    between atoms: C_3  and  S_4
REMARK    3  A    between atoms: S_4  and  C_5
REMARK    4  A    between atoms: N_18  and  C_19
REMARK                            x       y       z     vdW  Elec       q    Type
REMARK                         _______ _______ _______ _____ _____    ______ ____
ROOT
ATOM      1  C   UNL     1       6.004   5.001  18.907  0.00  0.00    +0.000 C 
ATOM      2  N   UNL     1       5.072   5.771  19.341  0.00  0.00    +0.000 NA
ATOM      3  C   UNL     1       3.808   5.272  19.664  0.00  0.00    +0.000 A 
ATOM      4  C   UNL     1       2.859   6.199  20.116  0.00  0.00    +0.000 A 
ATOM      5  C   UNL     1       1.548   5.808  20.400  0.00  0.00    +0.000 A 
ATOM      6  C   UNL     1       1.179   4.479  20.231  0.00  0.00    +0.000 A 
ATOM      7  F   UNL     1      -0.079   4.105  20.495  0.00  0.00    +0.000 F 
ATOM      8  C   UNL     1       2.097   3.535  19.797  0.00  0.00    +0.000 A 
ATOM      9  C   UNL     1       3.401   3.950  19.520  0.00  0.00    +0.000 A 
ATOM     10  S   UNL     1       4.575   2.762  19.023  0.00  0.00    +0.000 S 
ATOM     11  O   UNL     1       4.800   1.876  20.146  0.00  0.00    +0.000 OA
ATOM     12  O   UNL     1       4.169   2.256  17.731  0.00  0.00    +0.000 OA
ATOM     13  N   UNL     1       5.955   3.627  18.783  0.00  0.00    +0.000 N 
ATOM     14  H   UNL     1       6.606   3.209  18.122  0.00  0.00    +0.000 HD
ENDROOT
BRANCH   1  15
ATOM     15  S   UNL     1       7.517   5.660  18.366  0.00  0.00    +0.000 S 
BRANCH  15  16
ATOM     16  C   UNL     1       6.877   7.014  17.328  0.00  0.00    +0.000 C 
BRANCH  16  18
ATOM     17  O   UNL     1       5.210   6.884  15.613  0.00  0.00    +0.000 OA
ATOM     18  C   UNL     1       6.285   6.464  16.036  0.00  0.00    +0.000 C 
ATOM     19  N   UNL     1       7.059   5.487  15.431  0.00  0.00    +0.000 N 
ATOM     20  H   UNL     1       7.868   5.131  15.933  0.00  0.00    +0.000 HD
BRANCH  19  21
ATOM     21  C   UNL     1       6.771   4.817  14.219  0.00  0.00    +0.000 A 
ATOM     22  C   UNL     1       5.687   3.957  14.046  0.00  0.00    +0.000 A 
ATOM     23  C   UNL     1       5.512   3.271  12.838  0.00  0.00    +0.000 A 
ATOM     24  C   UNL     1       6.414   3.446  11.790  0.00  0.00    +0.000 A 
ATOM     25  C   UNL     1       7.475   4.338  11.934  0.00  0.00    +0.000 A 
ATOM     26  C   UNL     1       7.635   5.025  13.137  0.00  0.00    +0.000 A 
ATOM     27  F   UNL     1       8.666   5.876  13.265  0.00  0.00    +0.000 F 
ENDBRANCH  19  21
ENDBRANCH  16  18
ENDBRANCH  15  16
ENDBRANCH   1  15
TORSDOF 4
ENDMDL
MODEL 4
REMARK VINA RESULT:      -8.4      2.197      2.886
REMARK  Name = 
REMARK  4 active torsions:
REMARK  status: ('A' for Active; 'I' for Inactive)
REMARK    1  A    between atoms: C_2  and  C_3
REMARK    2  A    between atoms: C_3  and  S_4
REMARK    3  A    between atoms: S_4  and  C_5
REMARK    4  A    between atoms: N_18  and  C_19
REMARK                            x       y       z     vdW  Elec       q    Type
REMARK                         _______ _______ _______ _____ _____    ______ ____
ROOT
ATOM      1  C   UNL     1       5.912   5.014  18.994  0.00  0.00    +0.000 C 
ATOM      2  N   UNL     1       4.947   5.753  19.410  0.00  0.00    +0.000 NA
ATOM      3  C   UNL     1       3.692   5.213  19.699  0.00  0.00    +0.000 A 
ATOM      4  C   UNL     1       2.704   6.107  20.134  0.00  0.00    +0.000 A 
ATOM      5  C   UNL     1       1.400   5.674  20.384  0.00  0.00    +0.000 A 
ATOM      6  C   UNL     1       1.076   4.335  20.199  0.00  0.00    +0.000 A 
ATOM      7  F   UNL     1      -0.176   3.921  20.431  0.00  0.00    +0.000 F 
ATOM      8  C   UNL     1       2.033   3.423  19.781  0.00  0.00    +0.000 A 
ATOM      9  C   UNL     1       3.329   3.880  19.539  0.00  0.00    +0.000 A 
ATOM     10  S   UNL     1       4.551   2.731  19.064  0.00  0.00    +0.000 S 
ATOM     11  O   UNL     1       4.777   1.846  20.187  0.00  0.00    +0.000 OA
ATOM     12  O   UNL     1       4.193   2.221  17.759  0.00  0.00    +0.000 OA
ATOM     13  N   UNL     1       5.909   3.640  18.862  0.00  0.00    +0.000 N 
ATOM     14  H   UNL     1       6.589   3.246  18.214  0.00  0.00    +0.000 HD
ENDROOT
BRANCH   1  15
ATOM     15  S   UNL     1       7.417   5.723  18.493  0.00  0.00    +0.000 S 
BRANCH  15  16
ATOM     16  C   UNL     1       6.760   7.062  17.446  0.00  0.00    +0.000 C 
BRANCH  16  18
ATOM     17  O   UNL     1       5.266   6.883  15.581  0.00  0.00    +0.000 OA
ATOM     18  C   UNL     1       6.322   6.515  16.092  0.00  0.00    +0.000 C 
ATOM     19  N   UNL     1       7.205   5.602  15.539  0.00  0.00    +0.000 N 
ATOM     20  H   UNL     1       7.985   5.280  16.105  0.00  0.00    +0.000 HD
BRANCH  19  21
ATOM     21  C   UNL     1       7.069   4.952  14.290  0.00  0.00    +0.000 A 
ATOM     22  C   UNL     1       7.760   5.329  13.139  0.00  0.00    +0.000 A 
ATOM     23  C   UNL     1       7.514   4.684  11.921  0.00  0.00    +0.000 A 
ATOM     24  C   UNL     1       6.583   3.650  11.845  0.00  0.00    +0.000 A 
ATOM     25  C   UNL     1       5.920   3.232  12.998  0.00  0.00    +0.000 A 
ATOM     26  C   UNL     1       6.179   3.874  14.208  0.00  0.00    +0.000 A 
ATOM     27  F   UNL     1       5.528   3.466  15.311  0.00  0.00    +0.000 F 
ENDBRANCH  19  21
ENDBRANCH  16  18
ENDBRANCH  15  16
ENDBRANCH   1  15
TORSDOF 4
ENDMDL
MODEL 5
REMARK VINA RESULT:      -8.3      3.225      7.196
REMARK  Name = 
REMARK  4 active torsions:
REMARK  status: ('A' for Active; 'I' for Inactive)
REMARK    1  A    between atoms: C_2  and  C_3
REMARK    2  A    between atoms: C_3  and  S_4
REMARK    3  A    between atoms: S_4  and  C_5
REMARK    4  A    between atoms: N_18  and  C_19
REMARK                            x       y       z     vdW  Elec       q    Type
REMARK                         _______ _______ _______ _____ _____    ______ ____
ROOT
ATOM      1  C   UNL     1       4.961   3.548  17.977  0.00  0.00    +0.000 C 
ATOM      2  N   UNL     1       4.749   3.396  16.720  0.00  0.00    +0.000 NA
ATOM      3  C   UNL     1       5.644   3.890  15.767  0.00  0.00    +0.000 A 
ATOM      4  C   UNL     1       5.312   3.683  14.422  0.00  0.00    +0.000 A 
ATOM      5  C   UNL     1       6.109   4.197  13.396  0.00  0.00    +0.000 A 
ATOM      6  C   UNL     1       7.248   4.926  13.714  0.00  0.00    +0.000 A 
ATOM      7  F   UNL     1       8.008   5.426  12.732  0.00  0.00    +0.000 F 
ATOM      8  C   UNL     1       7.611   5.139  15.036  0.00  0.00    +0.000 A 
ATOM      9  C   UNL     1       6.799   4.614  16.043  0.00  0.00    +0.000 A 
ATOM     10  S   UNL     1       7.273   4.832  17.706  0.00  0.00    +0.000 S 
ATOM     11  O   UNL     1       8.492   4.078  17.913  0.00  0.00    +0.000 OA
ATOM     12  O   UNL     1       7.199   6.245  18.003  0.00  0.00    +0.000 OA
ATOM     13  N   UNL     1       6.078   4.101  18.571  0.00  0.00    +0.000 N 
ATOM     14  H   UNL     1       5.957   4.464  19.514  0.00  0.00    +0.000 HD
ENDROOT
BRANCH   1  15
ATOM     15  S   UNL     1       3.766   3.065  19.141  0.00  0.00    +0.000 S 
BRANCH  15  16
ATOM     16  C   UNL     1       3.665   4.613  20.097  0.00  0.00    +0.000 C 
BRANCH  16  18
ATOM     17  O   UNL     1       1.936   5.205  18.547  0.00  0.00    +0.000 OA
ATOM     18  C   UNL     1       2.693   5.586  19.438  0.00  0.00    +0.000 C 
ATOM     19  N   UNL     1       2.764   6.877  19.933  0.00  0.00    +0.000 N 
ATOM     20  H   UNL     1       3.511   7.106  20.583  0.00  0.00    +0.000 HD
BRANCH  19  21
ATOM     21  C   UNL     1       1.972   7.977  19.528  0.00  0.00    +0.000 A 
ATOM     22  C   UNL     1       1.962   8.490  18.231  0.00  0.00    +0.000 A 
ATOM     23  C   UNL     1       1.210   9.630  17.925  0.00  0.00    +0.000 A 
ATOM     24  C   UNL     1       0.453  10.263  18.911  0.00  0.00    +0.000 A 
ATOM     25  C   UNL     1       0.418   9.733  20.199  0.00  0.00    +0.000 A 
ATOM     26  C   UNL     1       1.163   8.591  20.492  0.00  0.00    +0.000 A 
ATOM     27  F   UNL     1       1.126   8.094  21.740  0.00  0.00    +0.000 F 
ENDBRANCH  19  21
ENDBRANCH  16  18
ENDBRANCH  15  16
ENDBRANCH   1  15
TORSDOF 4
ENDMDL
MODEL 6
REMARK VINA RESULT:      -8.2      3.045      6.828
REMARK  Name = 
REMARK  4 active torsions:
REMARK  status: ('A' for Active; 'I' for Inactive)
REMARK    1  A    between atoms: C_2  and  C_3
REMARK    2  A    between atoms: C_3  and  S_4
REMARK    3  A    between atoms: S_4  and  C_5
REMARK    4  A    between atoms: N_18  and  C_19
REMARK                            x       y       z     vdW  Elec       q    Type
REMARK                         _______ _______ _______ _____ _____    ______ ____
ROOT
ATOM      1  C   UNL     1       4.513   3.374  18.060  0.00  0.00    +0.000 C 
ATOM      2  N   UNL     1       4.480   3.200  16.788  0.00  0.00    +0.000 NA
ATOM      3  C   UNL     1       5.435   3.781  15.950  0.00  0.00    +0.000 A 
ATOM      4  C   UNL     1       5.301   3.540  14.576  0.00  0.00    +0.000 A 
ATOM      5  C   UNL     1       6.167   4.131  13.653  0.00  0.00    +0.000 A 
ATOM      6  C   UNL     1       7.176   4.973  14.103  0.00  0.00    +0.000 A 
ATOM      7  F   UNL     1       8.001   5.547  13.218  0.00  0.00    +0.000 F 
ATOM      8  C   UNL     1       7.343   5.223  15.457  0.00  0.00    +0.000 A 
ATOM      9  C   UNL     1       6.466   4.620  16.360  0.00  0.00    +0.000 A 
ATOM     10  S   UNL     1       6.699   4.887  18.066  0.00  0.00    +0.000 S 
ATOM     11  O   UNL     1       7.951   4.261  18.438  0.00  0.00    +0.000 OA
ATOM     12  O   UNL     1       6.445   6.285  18.331  0.00  0.00    +0.000 OA
ATOM     13  N   UNL     1       5.483   4.039  18.782  0.00  0.00    +0.000 N 
ATOM     14  H   UNL     1       5.206   4.389  19.697  0.00  0.00    +0.000 HD
ENDROOT
BRANCH   1  15
ATOM     15  S   UNL     1       3.233   2.773  19.069  0.00  0.00    +0.000 S 
BRANCH  15  16
ATOM     16  C   UNL     1       3.363   3.977  20.431  0.00  0.00    +0.000 C 
BRANCH  16  18
ATOM     17  O   UNL     1       1.145   4.882  20.429  0.00  0.00    +0.000 OA
ATOM     18  C   UNL     1       2.343   5.096  20.255  0.00  0.00    +0.000 C 
ATOM     19  N   UNL     1       2.896   6.313  19.893  0.00  0.00    +0.000 N 
ATOM     20  H   UNL     1       3.885   6.344  19.657  0.00  0.00    +0.000 HD
BRANCH  19  21
ATOM     21  C   UNL     1       2.198   7.525  19.681  0.00  0.00    +0.000 A 
ATOM     22  C   UNL     1       1.464   8.180  20.670  0.00  0.00    +0.000 A 
ATOM     23  C   UNL     1       0.736   9.336  20.364  0.00  0.00    +0.000 A 
ATOM     24  C   UNL     1       0.742   9.851  19.069  0.00  0.00    +0.000 A 
ATOM     25  C   UNL     1       1.508   9.233  18.083  0.00  0.00    +0.000 A 
ATOM     26  C   UNL     1       2.238   8.088  18.400  0.00  0.00    +0.000 A 
ATOM     27  F   UNL     1       2.967   7.496  17.439  0.00  0.00    +0.000 F 
ENDBRANCH  19  21
ENDBRANCH  16  18
ENDBRANCH  15  16
ENDBRANCH   1  15
TORSDOF 4
ENDMDL
MODEL 7
REMARK VINA RESULT:      -8.0      2.787      6.563
REMARK  Name = 
REMARK  4 active torsions:
REMARK  status: ('A' for Active; 'I' for Inactive)
REMARK    1  A    between atoms: C_2  and  C_3
REMARK    2  A    between atoms: C_3  and  S_4
REMARK    3  A    between atoms: S_4  and  C_5
REMARK    4  A    between atoms: N_18  and  C_19
REMARK                            x       y       z     vdW  Elec       q    Type
REMARK                         _______ _______ _______ _____ _____    ______ ____
ROOT
ATOM      1  C   UNL     1       5.129   3.586  18.354  0.00  0.00    +0.000 C 
ATOM      2  N   UNL     1       4.788   3.413  17.128  0.00  0.00    +0.000 NA
ATOM      3  C   UNL     1       5.590   3.873  16.079  0.00  0.00    +0.000 A 
ATOM      4  C   UNL     1       5.121   3.645  14.779  0.00  0.00    +0.000 A 
ATOM      5  C   UNL     1       5.818   4.126  13.667  0.00  0.00    +0.000 A 
ATOM      6  C   UNL     1       6.994   4.841  13.854  0.00  0.00    +0.000 A 
ATOM      7  F   UNL     1       7.658   5.308  12.789  0.00  0.00    +0.000 F 
ATOM      8  C   UNL     1       7.492   5.073  15.127  0.00  0.00    +0.000 A 
ATOM      9  C   UNL     1       6.778   4.582  16.222  0.00  0.00    +0.000 A 
ATOM     10  S   UNL     1       7.421   4.824  17.823  0.00  0.00    +0.000 S 
ATOM     11  O   UNL     1       8.642   4.052  17.923  0.00  0.00    +0.000 OA
ATOM     12  O   UNL     1       7.399   6.243  18.097  0.00  0.00    +0.000 OA
ATOM     13  N   UNL     1       6.309   4.130  18.820  0.00  0.00    +0.000 N 
ATOM     14  H   UNL     1       6.289   4.513  19.762  0.00  0.00    +0.000 HD
ENDROOT
BRANCH   1  15
ATOM     15  S   UNL     1       4.050   3.146  19.642  0.00  0.00    +0.000 S 
BRANCH  15  16
ATOM     16  C   UNL     1       2.496   3.073  18.692  0.00  0.00    +0.000 C 
BRANCH  16  18
ATOM     17  O   UNL     1       1.156   4.664  17.504  0.00  0.00    +0.000 OA
ATOM     18  C   UNL     1       1.987   4.478  18.391  0.00  0.00    +0.000 C 
ATOM     19  N   UNL     1       2.544   5.463  19.188  0.00  0.00    +0.000 N 
ATOM     20  H   UNL     1       3.312   5.210  19.805  0.00  0.00    +0.000 HD
BRANCH  19  21
ATOM     21  C   UNL     1       2.247   6.846  19.147  0.00  0.00    +0.000 A 
ATOM     22  C   UNL     1       1.528   7.515  20.138  0.00  0.00    +0.000 A 
ATOM     23  C   UNL     1       1.208   8.869  19.988  0.00  0.00    +0.000 A 
ATOM     24  C   UNL     1       1.610   9.569  18.852  0.00  0.00    +0.000 A 
ATOM     25  C   UNL     1       2.368   8.924  17.877  0.00  0.00    +0.000 A 
ATOM     26  C   UNL     1       2.692   7.577  18.039  0.00  0.00    +0.000 A 
ATOM     27  F   UNL     1       3.417   6.965  17.088  0.00  0.00    +0.000 F 
ENDBRANCH  19  21
ENDBRANCH  16  18
ENDBRANCH  15  16
ENDBRANCH   1  15
TORSDOF 4
ENDMDL
MODEL 8
REMARK VINA RESULT:      -7.8      1.765      2.009
REMARK  Name = 
REMARK  4 active torsions:
REMARK  status: ('A' for Active; 'I' for Inactive)
REMARK    1  A    between atoms: C_2  and  C_3
REMARK    2  A    between atoms: C_3  and  S_4
REMARK    3  A    between atoms: S_4  and  C_5
REMARK    4  A    between atoms: N_18  and  C_19
REMARK                            x       y       z     vdW  Elec       q    Type
REMARK                         _______ _______ _______ _____ _____    ______ ____
ROOT
ATOM      1  C   UNL     1       5.559   5.122  18.909  0.00  0.00    +0.000 C 
ATOM      2  N   UNL     1       5.376   4.047  19.586  0.00  0.00    +0.000 NA
ATOM      3  C   UNL     1       4.110   3.693  20.060  0.00  0.00    +0.000 A 
ATOM      4  C   UNL     1       4.020   2.507  20.799  0.00  0.00    +0.000 A 
ATOM      5  C   UNL     1       2.811   2.104  21.371  0.00  0.00    +0.000 A 
ATOM      6  C   UNL     1       1.679   2.892  21.205  0.00  0.00    +0.000 A 
ATOM      7  F   UNL     1       0.521   2.511  21.760  0.00  0.00    +0.000 F 
ATOM      8  C   UNL     1       1.731   4.066  20.469  0.00  0.00    +0.000 A 
ATOM      9  C   UNL     1       2.951   4.447  19.907  0.00  0.00    +0.000 A 
ATOM     10  S   UNL     1       3.015   5.894  18.937  0.00  0.00    +0.000 S 
ATOM     11  O   UNL     1       2.225   5.656  17.747  0.00  0.00    +0.000 OA
ATOM     12  O   UNL     1       2.752   7.019  19.807  0.00  0.00    +0.000 OA
ATOM     13  N   UNL     1       4.592   6.008  18.477  0.00  0.00    +0.000 N 
ATOM     14  H   UNL     1       4.904   6.954  18.270  0.00  0.00    +0.000 HD
ENDROOT
BRANCH   1  15
ATOM     15  S   UNL     1       7.161   5.623  18.460  0.00  0.00    +0.000 S 
BRANCH  15  16
ATOM     16  C   UNL     1       6.721   6.990  17.338  0.00  0.00    +0.000 C 
BRANCH  16  18
ATOM     17  O   UNL     1       5.233   6.794  15.471  0.00  0.00    +0.000 OA
ATOM     18  C   UNL     1       6.298   6.448  15.977  0.00  0.00    +0.000 C 
ATOM     19  N   UNL     1       7.206   5.568  15.412  0.00  0.00    +0.000 N 
ATOM     20  H   UNL     1       7.995   5.260  15.974  0.00  0.00    +0.000 HD
BRANCH  19  21
ATOM     21  C   UNL     1       7.088   4.930  14.155  0.00  0.00    +0.000 A 
ATOM     22  C   UNL     1       7.786   5.328  13.015  0.00  0.00    +0.000 A 
ATOM     23  C   UNL     1       7.558   4.694  11.788  0.00  0.00    +0.000 A 
ATOM     24  C   UNL     1       6.637   3.651  11.692  0.00  0.00    +0.000 A 
ATOM     25  C   UNL     1       5.969   3.214  12.833  0.00  0.00    +0.000 A 
ATOM     26  C   UNL     1       6.210   3.844  14.053  0.00  0.00    +0.000 A 
ATOM     27  F   UNL     1       5.553   3.418  15.145  0.00  0.00    +0.000 F 
ENDBRANCH  19  21
ENDBRANCH  16  18
ENDBRANCH  15  16
ENDBRANCH   1  15
TORSDOF 4
ENDMDL
MODEL 9
REMARK VINA RESULT:      -7.7      5.873      6.902
REMARK  Name = 
REMARK  4 active torsions:
REMARK  status: ('A' for Active; 'I' for Inactive)
REMARK    1  A    between atoms: C_2  and  C_3
REMARK    2  A    between atoms: C_3  and  S_4
REMARK    3  A    between atoms: S_4  and  C_5
REMARK    4  A    between atoms: N_18  and  C_19
REMARK                            x       y       z     vdW  Elec       q    Type
REMARK                         _______ _______ _______ _____ _____    ______ ____
ROOT
ATOM      1  C   UNL     1       0.905   9.731  18.835  0.00  0.00    +0.000 C 
ATOM      2  N   UNL     1       0.724   9.433  20.071  0.00  0.00    +0.000 NA
ATOM      3  C   UNL     1      -0.113  10.197  20.888  0.00  0.00    +0.000 A 
ATOM      4  C   UNL     1      -0.232   9.794  22.224  0.00  0.00    +0.000 A 
ATOM      5  C   UNL     1      -0.992  10.533  23.135  0.00  0.00    +0.000 A 
ATOM      6  C   UNL     1      -1.640  11.686  22.709  0.00  0.00    +0.000 A 
ATOM      7  F   UNL     1      -2.362  12.398  23.583  0.00  0.00    +0.000 F 
ATOM      8  C   UNL     1      -1.553  12.105  21.390  0.00  0.00    +0.000 A 
ATOM      9  C   UNL     1      -0.788  11.350  20.499  0.00  0.00    +0.000 A 
ATOM     10  S   UNL     1      -0.713  11.841  18.828  0.00  0.00    +0.000 S 
ATOM     11  O   UNL     1      -2.037  11.673  18.266  0.00  0.00    +0.000 OA
ATOM     12  O   UNL     1      -0.023  13.110  18.773  0.00  0.00    +0.000 OA
ATOM     13  N   UNL     1       0.276  10.731  18.121  0.00  0.00    +0.000 N 
ATOM     14  H   UNL     1       0.758  11.064  17.288  0.00  0.00    +0.000 HD
ENDROOT
BRANCH   1  15
ATOM     15  S   UNL     1       2.065   8.864  17.876  0.00  0.00    +0.000 S 
BRANCH  15  16
ATOM     16  C   UNL     1       2.337   7.443  18.985  0.00  0.00    +0.000 C 
BRANCH  16  18
ATOM     17  O   UNL     1       2.801   5.197  18.293  0.00  0.00    +0.000 OA
ATOM     18  C   UNL     1       3.166   6.371  18.286  0.00  0.00    +0.000 C 
ATOM     19  N   UNL     1       4.314   6.851  17.679  0.00  0.00    +0.000 N 
ATOM     20  H   UNL     1       4.579   7.819  17.842  0.00  0.00    +0.000 HD
BRANCH  19  21
ATOM     21  C   UNL     1       5.256   6.093  16.945  0.00  0.00    +0.000 A 
ATOM     22  C   UNL     1       5.205   5.922  15.561  0.00  0.00    +0.000 A 
ATOM     23  C   UNL     1       6.131   5.094  14.915  0.00  0.00    +0.000 A 
ATOM     24  C   UNL     1       7.120   4.437  15.645  0.00  0.00    +0.000 A 
ATOM     25  C   UNL     1       7.210   4.636  17.021  0.00  0.00    +0.000 A 
ATOM     26  C   UNL     1       6.290   5.470  17.655  0.00  0.00    +0.000 A 
ATOM     27  F   UNL     1       6.383   5.648  18.983  0.00  0.00    +0.000 F 
ENDBRANCH  19  21
ENDBRANCH  16  18
ENDBRANCH  15  16
ENDBRANCH   1  15
TORSDOF 4
ENDMDL
