MODEL 1
REMARK VINA RESULT:      -8.0      0.000      0.000
REMARK  Name = 
REMARK  9 active torsions:
REMARK  status: ('A' for Active; 'I' for Inactive)
REMARK    1  A    between atoms: C_1  and  O_2
REMARK    2  A    between atoms: O_2  and  C_3
REMARK    3  A    between atoms: C_7  and  C_8
REMARK    4  A    between atoms: C_8  and  C_9
REMARK    5  A    between atoms: N_17  and  C_18
REMARK    6  A    between atoms: C_23  and  O_24
REMARK    7  A    between atoms: O_24  and  C_25
REMARK    8  A    between atoms: C_30  and  O_31
REMARK    9  A    between atoms: O_31  and  C_32
REMARK                            x       y       z     vdW  Elec       q    Type
REMARK                         _______ _______ _______ _____ _____    ______ ____
ROOT
ATOM      1  C   UNL     1       6.312   5.319  16.843  0.00  0.00    +0.000 A 
ATOM      2  C   UNL     1       5.473   4.327  17.403  0.00  0.00    +0.000 A 
ATOM      3  C   UNL     1       4.287   4.630  18.059  0.00  0.00    +0.000 A 
ATOM      4  N   UNL     1       3.454   3.654  18.430  0.00  0.00    +0.000 NA
ATOM      5  C   UNL     1       2.274   4.016  18.974  0.00  0.00    +0.000 A 
ATOM      6  N   UNL     1       1.873   5.297  19.161  0.00  0.00    +0.000 NA
ATOM      7  C   UNL     1       2.723   6.265  18.774  0.00  0.00    +0.000 A 
ATOM      8  N   UNL     1       2.354   7.608  18.864  0.00  0.00    +0.000 N 
ATOM      9  C   UNL     1       1.319   8.023  19.820  0.00  0.00    +0.000 C 
ATOM     10  C   UNL     1       1.508   9.545  20.085  0.00  0.00    +0.000 C 
ATOM     11  N   UNL     1       1.464  10.294  18.799  0.00  0.00    +0.000 N 
ATOM     12  C   UNL     1       2.498   9.847  17.850  0.00  0.00    +0.000 C 
ATOM     13  C   UNL     1       2.249   8.339  17.576  0.00  0.00    +0.000 C 
ATOM     14  C   UNL     1       3.996   5.973  18.262  0.00  0.00    +0.000 A 
ATOM     15  C   UNL     1       4.946   6.949  17.910  0.00  0.00    +0.000 A 
ATOM     16  C   UNL     1       6.058   6.657  17.132  0.00  0.00    +0.000 A 
ENDROOT
BRANCH  11  17
ATOM     17  C   UNL     1       0.999  11.601  18.755  0.00  0.00    +0.000 A 
ATOM     18  C   UNL     1       1.919  12.660  18.585  0.00  0.00    +0.000 A 
ATOM     19  C   UNL     1       1.548  14.005  18.676  0.00  0.00    +0.000 A 
ATOM     20  C   UNL     1       0.229  14.337  18.932  0.00  0.00    +0.000 A 
ATOM     21  C   UNL     1      -0.718  13.325  19.030  0.00  0.00    +0.000 A 
ATOM     22  C   UNL     1      -0.356  11.969  18.932  0.00  0.00    +0.000 A 
BRANCH  22  23
ATOM     23  O   UNL     1      -1.458  11.152  18.963  0.00  0.00    +0.000 OA
ATOM     24  C   UNL     1      -2.699  11.676  18.524  0.00  0.00    +0.000 C 
ENDBRANCH  22  23
ENDBRANCH  11  17
BRANCH   1  26
ATOM     25  C   UNL     1       7.070   4.755  14.679  0.00  0.00    +0.000 C 
ATOM     26  O   UNL     1       7.376   4.999  16.050  0.00  0.00    +0.000 OA
ENDBRANCH   1  26
BRANCH  16  27
ATOM     27  O   UNL     1       6.703   7.794  16.745  0.00  0.00    +0.000 OA
ATOM     28  C   UNL     1       7.737   8.321  17.557  0.00  0.00    +0.000 C 
ENDBRANCH  16  27
BRANCH   5  29
ATOM     29  C   UNL     1       1.341   2.881  19.347  0.00  0.00    +0.000 C 
BRANCH  29  30
ATOM     30  C   UNL     1       1.143   2.777  20.841  0.00  0.00    +0.000 C 
ATOM     31  C   UNL     1       2.135   2.006  21.687  0.00  0.00    +0.000 C 
ATOM     32  C   UNL     1       2.069   3.502  21.785  0.00  0.00    +0.000 C 
ENDBRANCH  29  30
ENDBRANCH   5  29
TORSDOF 6
ENDMDL
MODEL 2
REMARK VINA RESULT:      -7.8      0.949      1.311
REMARK  Name = 
REMARK  9 active torsions:
REMARK  status: ('A' for Active; 'I' for Inactive)
REMARK    1  A    between atoms: C_1  and  O_2
REMARK    2  A    between atoms: O_2  and  C_3
REMARK    3  A    between atoms: C_7  and  C_8
REMARK    4  A    between atoms: C_8  and  C_9
REMARK    5  A    between atoms: N_17  and  C_18
REMARK    6  A    between atoms: C_23  and  O_24
REMARK    7  A    between atoms: O_24  and  C_25
REMARK    8  A    between atoms: C_30  and  O_31
REMARK    9  A    between atoms: O_31  and  C_32
REMARK                            x       y       z     vdW  Elec       q    Type
REMARK                         _______ _______ _______ _____ _____    ______ ____
ROOT
ATOM      1  C   UNL     1       6.612   5.173  17.402  0.00  0.00    +0.000 A 
ATOM      2  C   UNL     1       5.963   4.206  18.205  0.00  0.00    +0.000 A 
ATOM      3  C   UNL     1       4.800   4.475  18.914  0.00  0.00    +0.000 A 
ATOM      4  N   UNL     1       4.140   3.490  19.528  0.00  0.00    +0.000 NA
ATOM      5  C   UNL     1       2.966   3.799  20.116  0.00  0.00    +0.000 A 
ATOM      6  N   UNL     1       2.408   5.033  20.121  0.00  0.00    +0.000 NA
ATOM      7  C   UNL     1       3.084   6.011  19.491  0.00  0.00    +0.000 A 
ATOM      8  N   UNL     1       2.541   7.292  19.385  0.00  0.00    +0.000 N 
ATOM      9  C   UNL     1       1.536   7.745  20.354  0.00  0.00    +0.000 C 
ATOM     10  C   UNL     1       1.532   9.301  20.334  0.00  0.00    +0.000 C 
ATOM     11  N   UNL     1       1.287   9.791  18.949  0.00  0.00    +0.000 N 
ATOM     12  C   UNL     1       2.297   9.308  17.993  0.00  0.00    +0.000 C 
ATOM     13  C   UNL     1       2.239   7.756  18.008  0.00  0.00    +0.000 C 
ATOM     14  C   UNL     1       4.343   5.787  18.912  0.00  0.00    +0.000 A 
ATOM     15  C   UNL     1       5.120   6.791  18.305  0.00  0.00    +0.000 A 
ATOM     16  C   UNL     1       6.198   6.500  17.481  0.00  0.00    +0.000 A 
ENDROOT
BRANCH  11  17
ATOM     17  C   UNL     1       0.644  11.001  18.729  0.00  0.00    +0.000 A 
ATOM     18  C   UNL     1       1.370  12.207  18.855  0.00  0.00    +0.000 A 
ATOM     19  C   UNL     1       0.763  13.465  18.792  0.00  0.00    +0.000 A 
ATOM     20  C   UNL     1      -0.602  13.558  18.587  0.00  0.00    +0.000 A 
ATOM     21  C   UNL     1      -1.338  12.397  18.383  0.00  0.00    +0.000 A 
ATOM     22  C   UNL     1      -0.735  11.127  18.436  0.00  0.00    +0.000 A 
BRANCH  22  23
ATOM     23  O   UNL     1      -1.626  10.134  18.114  0.00  0.00    +0.000 OA
ATOM     24  C   UNL     1      -2.425  10.296  16.955  0.00  0.00    +0.000 C 
ENDBRANCH  22  23
ENDBRANCH  11  17
BRANCH   1  26
ATOM     25  C   UNL     1       7.300   4.655  15.204  0.00  0.00    +0.000 C 
ATOM     26  O   UNL     1       7.647   4.846  16.574  0.00  0.00    +0.000 OA
ENDBRANCH   1  26
BRANCH  16  27
ATOM     27  O   UNL     1       6.649   7.617  16.843  0.00  0.00    +0.000 OA
ATOM     28  C   UNL     1       7.678   8.391  17.432  0.00  0.00    +0.000 C 
ENDBRANCH  16  27
BRANCH   5  29
ATOM     29  C   UNL     1       2.230   2.646  20.770  0.00  0.00    +0.000 C 
BRANCH  29  30
ATOM     30  C   UNL     1       1.539   1.765  19.756  0.00  0.00    +0.000 C 
ATOM     31  C   UNL     1       0.460   2.339  18.861  0.00  0.00    +0.000 C 
ATOM     32  C   UNL     1       1.791   1.959  18.281  0.00  0.00    +0.000 C 
ENDBRANCH  29  30
ENDBRANCH   5  29
TORSDOF 6
ENDMDL
MODEL 3
REMARK VINA RESULT:      -7.5      0.948      1.680
REMARK  Name = 
REMARK  9 active torsions:
REMARK  status: ('A' for Active; 'I' for Inactive)
REMARK    1  A    between atoms: C_1  and  O_2
REMARK    2  A    between atoms: O_2  and  C_3
REMARK    3  A    between atoms: C_7  and  C_8
REMARK    4  A    between atoms: C_8  and  C_9
REMARK    5  A    between atoms: N_17  and  C_18
REMARK    6  A    between atoms: C_23  and  O_24
REMARK    7  A    between atoms: O_24  and  C_25
REMARK    8  A    between atoms: C_30  and  O_31
REMARK    9  A    between atoms: O_31  and  C_32
REMARK                            x       y       z     vdW  Elec       q    Type
REMARK                         _______ _______ _______ _____ _____    ______ ____
ROOT
ATOM      1  C   UNL     1       6.345   5.441  16.767  0.00  0.00    +0.000 A 
ATOM      2  C   UNL     1       5.557   4.392  17.293  0.00  0.00    +0.000 A 
ATOM      3  C   UNL     1       4.368   4.615  17.976  0.00  0.00    +0.000 A 
ATOM      4  N   UNL     1       3.581   3.589  18.313  0.00  0.00    +0.000 NA
ATOM      5  C   UNL     1       2.395   3.877  18.887  0.00  0.00    +0.000 A 
ATOM      6  N   UNL     1       1.943   5.130  19.135  0.00  0.00    +0.000 NA
ATOM      7  C   UNL     1       2.746   6.150  18.780  0.00  0.00    +0.000 A 
ATOM      8  N   UNL     1       2.321   7.471  18.932  0.00  0.00    +0.000 N 
ATOM      9  C   UNL     1       1.284   7.799  19.918  0.00  0.00    +0.000 C 
ATOM     10  C   UNL     1       1.412   9.315  20.246  0.00  0.00    +0.000 C 
ATOM     11  N   UNL     1       1.318  10.116  18.994  0.00  0.00    +0.000 N 
ATOM     12  C   UNL     1       2.357   9.755  18.014  0.00  0.00    +0.000 C 
ATOM     13  C   UNL     1       2.168   8.251  17.678  0.00  0.00    +0.000 C 
ATOM     14  C   UNL     1       4.023   5.934  18.241  0.00  0.00    +0.000 A 
ATOM     15  C   UNL     1       4.927   6.964  17.920  0.00  0.00    +0.000 A 
ATOM     16  C   UNL     1       6.038   6.754  17.116  0.00  0.00    +0.000 A 
ENDROOT
BRANCH  11  17
ATOM     17  C   UNL     1       0.799  11.403  19.012  0.00  0.00    +0.000 A 
ATOM     18  C   UNL     1      -0.565  11.597  19.325  0.00  0.00    +0.000 A 
ATOM     19  C   UNL     1      -1.195  12.841  19.222  0.00  0.00    +0.000 A 
ATOM     20  C   UNL     1      -0.469  13.945  18.809  0.00  0.00    +0.000 A 
ATOM     21  C   UNL     1       0.892  13.809  18.565  0.00  0.00    +0.000 A 
ATOM     22  C   UNL     1       1.536  12.563  18.674  0.00  0.00    +0.000 A 
BRANCH  22  23
ATOM     23  O   UNL     1       2.890  12.679  18.481  0.00  0.00    +0.000 OA
ATOM     24  C   UNL     1       3.446  13.978  18.368  0.00  0.00    +0.000 C 
ENDBRANCH  22  23
ENDBRANCH  11  17
BRANCH   1  26
ATOM     25  C   UNL     1       7.087   4.788  14.622  0.00  0.00    +0.000 C 
ATOM     26  O   UNL     1       7.411   5.202  15.948  0.00  0.00    +0.000 OA
ENDBRANCH   1  26
BRANCH  16  27
ATOM     27  O   UNL     1       6.630   7.933  16.772  0.00  0.00    +0.000 OA
ATOM     28  C   UNL     1       7.719   8.418  17.536  0.00  0.00    +0.000 C 
ENDBRANCH  16  27
BRANCH   5  29
ATOM     29  C   UNL     1       1.516   2.689  19.222  0.00  0.00    +0.000 C 
BRANCH  29  30
ATOM     30  C   UNL     1       1.233   2.590  20.702  0.00  0.00    +0.000 C 
ATOM     31  C   UNL     1       2.318   2.131  21.654  0.00  0.00    +0.000 C 
ATOM     32  C   UNL     1       1.868   3.563  21.666  0.00  0.00    +0.000 C 
ENDBRANCH  29  30
ENDBRANCH   5  29
TORSDOF 6
ENDMDL
MODEL 4
REMARK VINA RESULT:      -7.5      1.180      2.001
REMARK  Name = 
REMARK  9 active torsions:
REMARK  status: ('A' for Active; 'I' for Inactive)
REMARK    1  A    between atoms: C_1  and  O_2
REMARK    2  A    between atoms: O_2  and  C_3
REMARK    3  A    between atoms: C_7  and  C_8
REMARK    4  A    between atoms: C_8  and  C_9
REMARK    5  A    between atoms: N_17  and  C_18
REMARK    6  A    between atoms: C_23  and  O_24
REMARK    7  A    between atoms: O_24  and  C_25
REMARK    8  A    between atoms: C_30  and  O_31
REMARK    9  A    between atoms: O_31  and  C_32
REMARK                            x       y       z     vdW  Elec       q    Type
REMARK                         _______ _______ _______ _____ _____    ______ ____
ROOT
ATOM      1  C   UNL     1       6.643   5.245  17.374  0.00  0.00    +0.000 A 
ATOM      2  C   UNL     1       6.021   4.249  18.161  0.00  0.00    +0.000 A 
ATOM      3  C   UNL     1       4.859   4.481  18.885  0.00  0.00    +0.000 A 
ATOM      4  N   UNL     1       4.223   3.470  19.484  0.00  0.00    +0.000 NA
ATOM      5  C   UNL     1       3.049   3.744  20.088  0.00  0.00    +0.000 A 
ATOM      6  N   UNL     1       2.466   4.966  20.123  0.00  0.00    +0.000 NA
ATOM      7  C   UNL     1       3.118   5.970  19.508  0.00  0.00    +0.000 A 
ATOM      8  N   UNL     1       2.549   7.242  19.433  0.00  0.00    +0.000 N 
ATOM      9  C   UNL     1       1.543   7.655  20.420  0.00  0.00    +0.000 C 
ATOM     10  C   UNL     1       1.508   9.211  20.432  0.00  0.00    +0.000 C 
ATOM     11  N   UNL     1       1.242   9.724  19.060  0.00  0.00    +0.000 N 
ATOM     12  C   UNL     1       2.253   9.282  18.085  0.00  0.00    +0.000 C 
ATOM     13  C   UNL     1       2.225   7.729  18.068  0.00  0.00    +0.000 C 
ATOM     14  C   UNL     1       4.375   5.784  18.914  0.00  0.00    +0.000 A 
ATOM     15  C   UNL     1       5.127   6.815  18.322  0.00  0.00    +0.000 A 
ATOM     16  C   UNL     1       6.204   6.563  17.483  0.00  0.00    +0.000 A 
ENDROOT
BRANCH  11  17
ATOM     17  C   UNL     1       0.574  10.926  18.869  0.00  0.00    +0.000 A 
ATOM     18  C   UNL     1      -0.785  10.912  18.483  0.00  0.00    +0.000 A 
ATOM     19  C   UNL     1      -1.483  12.072  18.132  0.00  0.00    +0.000 A 
ATOM     20  C   UNL     1      -0.840  13.297  18.167  0.00  0.00    +0.000 A 
ATOM     21  C   UNL     1       0.475  13.359  18.614  0.00  0.00    +0.000 A 
ATOM     22  C   UNL     1       1.183  12.200  18.977  0.00  0.00    +0.000 A 
BRANCH  22  23
ATOM     23  O   UNL     1       2.425  12.505  19.475  0.00  0.00    +0.000 OA
ATOM     24  C   UNL     1       2.802  13.868  19.554  0.00  0.00    +0.000 C 
ENDBRANCH  22  23
ENDBRANCH  11  17
BRANCH   1  26
ATOM     25  C   UNL     1       7.315   4.726  15.170  0.00  0.00    +0.000 C 
ATOM     26  O   UNL     1       7.677   4.956  16.530  0.00  0.00    +0.000 OA
ENDBRANCH   1  26
BRANCH  16  27
ATOM     27  O   UNL     1       6.628   7.701  16.865  0.00  0.00    +0.000 OA
ATOM     28  C   UNL     1       7.658   8.474  17.453  0.00  0.00    +0.000 C 
ENDBRANCH  16  27
BRANCH   5  29
ATOM     29  C   UNL     1       2.341   2.563  20.724  0.00  0.00    +0.000 C 
BRANCH  29  30
ATOM     30  C   UNL     1       1.586   1.739  19.708  0.00  0.00    +0.000 C 
ATOM     31  C   UNL     1       0.469   2.366  18.899  0.00  0.00    +0.000 C 
ATOM     32  C   UNL     1       1.763   2.000  18.232  0.00  0.00    +0.000 C 
ENDBRANCH  29  30
ENDBRANCH   5  29
TORSDOF 6
ENDMDL
MODEL 5
REMARK VINA RESULT:      -7.4      2.700      9.126
REMARK  Name = 
REMARK  9 active torsions:
REMARK  status: ('A' for Active; 'I' for Inactive)
REMARK    1  A    between atoms: C_1  and  O_2
REMARK    2  A    between atoms: O_2  and  C_3
REMARK    3  A    between atoms: C_7  and  C_8
REMARK    4  A    between atoms: C_8  and  C_9
REMARK    5  A    between atoms: N_17  and  C_18
REMARK    6  A    between atoms: C_23  and  O_24
REMARK    7  A    between atoms: O_24  and  C_25
REMARK    8  A    between atoms: C_30  and  O_31
REMARK    9  A    between atoms: O_31  and  C_32
REMARK                            x       y       z     vdW  Elec       q    Type
REMARK                         _______ _______ _______ _____ _____    ______ ____
ROOT
ATOM      1  C   UNL     1      -3.616  11.505  17.583  0.00  0.00    +0.000 A 
ATOM      2  C   UNL     1      -3.335  12.172  18.798  0.00  0.00    +0.000 A 
ATOM      3  C   UNL     1      -2.241  11.857  19.592  0.00  0.00    +0.000 A 
ATOM      4  N   UNL     1      -1.930  12.618  20.645  0.00  0.00    +0.000 NA
ATOM      5  C   UNL     1      -0.800  12.318  21.318  0.00  0.00    +0.000 A 
ATOM      6  N   UNL     1       0.044  11.309  20.996  0.00  0.00    +0.000 NA
ATOM      7  C   UNL     1      -0.282  10.559  19.928  0.00  0.00    +0.000 A 
ATOM      8  N   UNL     1       0.573   9.548  19.485  0.00  0.00    +0.000 N 
ATOM      9  C   UNL     1       1.530   8.937  20.417  0.00  0.00    +0.000 C 
ATOM     10  C   UNL     1       1.925   7.547  19.838  0.00  0.00    +0.000 C 
ATOM     11  N   UNL     1       2.456   7.704  18.456  0.00  0.00    +0.000 N 
ATOM     12  C   UNL     1       1.486   8.336  17.546  0.00  0.00    +0.000 C 
ATOM     13  C   UNL     1       1.152   9.736  18.132  0.00  0.00    +0.000 C 
ATOM     14  C   UNL     1      -1.473  10.762  19.215  0.00  0.00    +0.000 A 
ATOM     15  C   UNL     1      -1.892   9.961  18.136  0.00  0.00    +0.000 A 
ATOM     16  C   UNL     1      -2.897  10.355  17.264  0.00  0.00    +0.000 A 
ENDROOT
BRANCH  11  17
ATOM     17  C   UNL     1       3.403   6.821  17.956  0.00  0.00    +0.000 A 
ATOM     18  C   UNL     1       4.527   7.326  17.264  0.00  0.00    +0.000 A 
ATOM     19  C   UNL     1       5.445   6.500  16.608  0.00  0.00    +0.000 A 
ATOM     20  C   UNL     1       5.271   5.127  16.632  0.00  0.00    +0.000 A 
ATOM     21  C   UNL     1       4.220   4.589  17.365  0.00  0.00    +0.000 A 
ATOM     22  C   UNL     1       3.297   5.412  18.036  0.00  0.00    +0.000 A 
BRANCH  22  23
ATOM     23  O   UNL     1       2.404   4.670  18.769  0.00  0.00    +0.000 OA
ATOM     24  C   UNL     1       1.429   3.911  18.076  0.00  0.00    +0.000 C 
ENDBRANCH  22  23
ENDBRANCH  11  17
BRANCH   1  26
ATOM     25  C   UNL     1      -5.822  12.311  17.336  0.00  0.00    +0.000 C 
ATOM     26  O   UNL     1      -4.587  11.941  16.727  0.00  0.00    +0.000 OA
ENDBRANCH   1  26
BRANCH  16  27
ATOM     27  O   UNL     1      -2.970   9.525  16.186  0.00  0.00    +0.000 OA
ATOM     28  C   UNL     1      -2.863  10.061  14.881  0.00  0.00    +0.000 C 
ENDBRANCH  16  27
BRANCH   5  29
ATOM     29  C   UNL     1      -0.464  13.227  22.484  0.00  0.00    +0.000 C 
BRANCH  29  30
ATOM     30  C   UNL     1      -1.700  13.819  23.119  0.00  0.00    +0.000 C 
ATOM     31  C   UNL     1      -1.579  14.693  24.349  0.00  0.00    +0.000 C 
ATOM     32  C   UNL     1      -1.965  15.302  23.033  0.00  0.00    +0.000 C 
ENDBRANCH  29  30
ENDBRANCH   5  29
TORSDOF 6
ENDMDL
MODEL 6
REMARK VINA RESULT:      -7.4      2.678      4.964
REMARK  Name = 
REMARK  9 active torsions:
REMARK  status: ('A' for Active; 'I' for Inactive)
REMARK    1  A    between atoms: C_1  and  O_2
REMARK    2  A    between atoms: O_2  and  C_3
REMARK    3  A    between atoms: C_7  and  C_8
REMARK    4  A    between atoms: C_8  and  C_9
REMARK    5  A    between atoms: N_17  and  C_18
REMARK    6  A    between atoms: C_23  and  O_24
REMARK    7  A    between atoms: O_24  and  C_25
REMARK    8  A    between atoms: C_30  and  O_31
REMARK    9  A    between atoms: O_31  and  C_32
REMARK                            x       y       z     vdW  Elec       q    Type
REMARK                         _______ _______ _______ _____ _____    ______ ____
ROOT
ATOM      1  C   UNL     1       2.744   2.627  18.610  0.00  0.00    +0.000 A 
ATOM      2  C   UNL     1       3.676   3.165  17.693  0.00  0.00    +0.000 A 
ATOM      3  C   UNL     1       3.818   4.530  17.480  0.00  0.00    +0.000 A 
ATOM      4  N   UNL     1       4.817   4.995  16.725  0.00  0.00    +0.000 NA
ATOM      5  C   UNL     1       4.960   6.333  16.636  0.00  0.00    +0.000 A 
ATOM      6  N   UNL     1       4.169   7.236  17.264  0.00  0.00    +0.000 NA
ATOM      7  C   UNL     1       3.173   6.748  18.026  0.00  0.00    +0.000 A 
ATOM      8  N   UNL     1       2.362   7.610  18.767  0.00  0.00    +0.000 N 
ATOM      9  C   UNL     1       2.212   9.011  18.355  0.00  0.00    +0.000 C 
ATOM     10  C   UNL     1       0.894   9.547  18.986  0.00  0.00    +0.000 C 
ATOM     11  N   UNL     1       0.925   9.361  20.463  0.00  0.00    +0.000 N 
ATOM     12  C   UNL     1       1.096   7.950  20.851  0.00  0.00    +0.000 C 
ATOM     13  C   UNL     1       2.440   7.466  20.242  0.00  0.00    +0.000 C 
ATOM     14  C   UNL     1       2.916   5.372  18.118  0.00  0.00    +0.000 A 
ATOM     15  C   UNL     1       1.845   4.818  18.844  0.00  0.00    +0.000 A 
ATOM     16  C   UNL     1       1.788   3.470  19.172  0.00  0.00    +0.000 A 
ENDROOT
BRANCH  11  17
ATOM     17  C   UNL     1       0.249  10.234  21.303  0.00  0.00    +0.000 A 
ATOM     18  C   UNL     1      -0.421   9.728  22.439  0.00  0.00    +0.000 A 
ATOM     19  C   UNL     1      -1.242  10.519  23.249  0.00  0.00    +0.000 A 
ATOM     20  C   UNL     1      -1.413  11.860  22.949  0.00  0.00    +0.000 A 
ATOM     21  C   UNL     1      -0.711  12.411  21.883  0.00  0.00    +0.000 A 
ATOM     22  C   UNL     1       0.124  11.625  21.069  0.00  0.00    +0.000 A 
BRANCH  22  23
ATOM     23  O   UNL     1       0.785  12.391  20.142  0.00  0.00    +0.000 OA
ATOM     24  C   UNL     1       0.019  13.161  19.233  0.00  0.00    +0.000 C 
ENDBRANCH  22  23
ENDBRANCH  11  17
BRANCH   1  26
ATOM     25  C   UNL     1       4.013   0.662  18.934  0.00  0.00    +0.000 C 
ATOM     26  O   UNL     1       2.739   1.302  18.941  0.00  0.00    +0.000 OA
ENDBRANCH   1  26
BRANCH  16  27
ATOM     27  O   UNL     1       0.782   3.218  20.055  0.00  0.00    +0.000 OA
ATOM     28  C   UNL     1       1.094   2.872  21.392  0.00  0.00    +0.000 C 
ENDBRANCH  16  27
BRANCH   5  29
ATOM     29  C   UNL     1       6.127   6.820  15.799  0.00  0.00    +0.000 C 
BRANCH  29  30
ATOM     30  C   UNL     1       7.423   6.814  16.575  0.00  0.00    +0.000 C 
ATOM     31  C   UNL     1       7.769   7.974  17.485  0.00  0.00    +0.000 C 
ATOM     32  C   UNL     1       7.414   6.640  18.073  0.00  0.00    +0.000 C 
ENDBRANCH  29  30
ENDBRANCH   5  29
TORSDOF 6
ENDMDL
MODEL 7
REMARK VINA RESULT:      -7.2      2.701      5.153
REMARK  Name = 
REMARK  9 active torsions:
REMARK  status: ('A' for Active; 'I' for Inactive)
REMARK    1  A    between atoms: C_1  and  O_2
REMARK    2  A    between atoms: O_2  and  C_3
REMARK    3  A    between atoms: C_7  and  C_8
REMARK    4  A    between atoms: C_8  and  C_9
REMARK    5  A    between atoms: N_17  and  C_18
REMARK    6  A    between atoms: C_23  and  O_24
REMARK    7  A    between atoms: O_24  and  C_25
REMARK    8  A    between atoms: C_30  and  O_31
REMARK    9  A    between atoms: O_31  and  C_32
REMARK                            x       y       z     vdW  Elec       q    Type
REMARK                         _______ _______ _______ _____ _____    ______ ____
ROOT
ATOM      1  C   UNL     1       2.736   2.410  18.749  0.00  0.00    +0.000 A 
ATOM      2  C   UNL     1       3.594   2.867  17.723  0.00  0.00    +0.000 A 
ATOM      3  C   UNL     1       3.729   4.211  17.400  0.00  0.00    +0.000 A 
ATOM      4  N   UNL     1       4.667   4.606  16.535  0.00  0.00    +0.000 NA
ATOM      5  C   UNL     1       4.813   5.933  16.337  0.00  0.00    +0.000 A 
ATOM      6  N   UNL     1       4.084   6.889  16.961  0.00  0.00    +0.000 NA
ATOM      7  C   UNL     1       3.150   6.472  17.835  0.00  0.00    +0.000 A 
ATOM      8  N   UNL     1       2.410   7.396  18.574  0.00  0.00    +0.000 N 
ATOM      9  C   UNL     1       2.238   8.766  18.075  0.00  0.00    +0.000 C 
ATOM     10  C   UNL     1       0.981   9.365  18.771  0.00  0.00    +0.000 C 
ATOM     11  N   UNL     1       1.132   9.284  20.250  0.00  0.00    +0.000 N 
ATOM     12  C   UNL     1       1.322   7.903  20.724  0.00  0.00    +0.000 C 
ATOM     13  C   UNL     1       2.608   7.357  20.045  0.00  0.00    +0.000 C 
ATOM     14  C   UNL     1       2.890   5.110  18.047  0.00  0.00    +0.000 A 
ATOM     15  C   UNL     1       1.878   4.624  18.896  0.00  0.00    +0.000 A 
ATOM     16  C   UNL     1       1.836   3.305  19.324  0.00  0.00    +0.000 A 
ENDROOT
BRANCH  11  17
ATOM     17  C   UNL     1       0.534  10.225  21.076  0.00  0.00    +0.000 A 
ATOM     18  C   UNL     1      -0.285   9.793  22.143  0.00  0.00    +0.000 A 
ATOM     19  C   UNL     1      -1.036  10.676  22.926  0.00  0.00    +0.000 A 
ATOM     20  C   UNL     1      -0.982  12.035  22.670  0.00  0.00    +0.000 A 
ATOM     21  C   UNL     1      -0.130  12.505  21.677  0.00  0.00    +0.000 A 
ATOM     22  C   UNL     1       0.636  11.625  20.890  0.00  0.00    +0.000 A 
BRANCH  22  23
ATOM     23  O   UNL     1       1.471  12.308  20.042  0.00  0.00    +0.000 OA
ATOM     24  C   UNL     1       2.248  13.368  20.570  0.00  0.00    +0.000 C 
ENDBRANCH  22  23
ENDBRANCH  11  17
BRANCH   1  26
ATOM     25  C   UNL     1       4.012   0.457  19.116  0.00  0.00    +0.000 C 
ATOM     26  O   UNL     1       2.747   1.112  19.174  0.00  0.00    +0.000 OA
ENDBRANCH   1  26
BRANCH  16  27
ATOM     27  O   UNL     1       0.903   3.131  20.302  0.00  0.00    +0.000 OA
ATOM     28  C   UNL     1       1.321   2.842  21.624  0.00  0.00    +0.000 C 
ENDBRANCH  16  27
BRANCH   5  29
ATOM     29  C   UNL     1       5.912   6.341  15.376  0.00  0.00    +0.000 C 
BRANCH  29  30
ATOM     30  C   UNL     1       6.778   5.172  14.972  0.00  0.00    +0.000 C 
ATOM     31  C   UNL     1       6.378   4.299  13.801  0.00  0.00    +0.000 C 
ATOM     32  C   UNL     1       7.562   5.213  13.683  0.00  0.00    +0.000 C 
ENDBRANCH  29  30
ENDBRANCH   5  29
TORSDOF 6
ENDMDL
MODEL 8
REMARK VINA RESULT:      -6.8      1.277      1.650
REMARK  Name = 
REMARK  9 active torsions:
REMARK  status: ('A' for Active; 'I' for Inactive)
REMARK    1  A    between atoms: C_1  and  O_2
REMARK    2  A    between atoms: O_2  and  C_3
REMARK    3  A    between atoms: C_7  and  C_8
REMARK    4  A    between atoms: C_8  and  C_9
REMARK    5  A    between atoms: N_17  and  C_18
REMARK    6  A    between atoms: C_23  and  O_24
REMARK    7  A    between atoms: O_24  and  C_25
REMARK    8  A    between atoms: C_30  and  O_31
REMARK    9  A    between atoms: O_31  and  C_32
REMARK                            x       y       z     vdW  Elec       q    Type
REMARK                         _______ _______ _______ _____ _____    ______ ____
ROOT
ATOM      1  C   UNL     1       6.583   5.339  17.222  0.00  0.00    +0.000 A 
ATOM      2  C   UNL     1       5.996   4.281  17.954  0.00  0.00    +0.000 A 
ATOM      3  C   UNL     1       4.873   4.452  18.753  0.00  0.00    +0.000 A 
ATOM      4  N   UNL     1       4.265   3.395  19.297  0.00  0.00    +0.000 NA
ATOM      5  C   UNL     1       3.124   3.617  19.982  0.00  0.00    +0.000 A 
ATOM      6  N   UNL     1       2.549   4.833  20.147  0.00  0.00    +0.000 NA
ATOM      7  C   UNL     1       3.173   5.884  19.584  0.00  0.00    +0.000 A 
ATOM      8  N   UNL     1       2.606   7.158  19.644  0.00  0.00    +0.000 N 
ATOM      9  C   UNL     1       1.653   7.488  20.712  0.00  0.00    +0.000 C 
ATOM     10  C   UNL     1       1.625   9.038  20.854  0.00  0.00    +0.000 C 
ATOM     11  N   UNL     1       1.292   9.663  19.544  0.00  0.00    +0.000 N 
ATOM     12  C   UNL     1       2.251   9.302  18.486  0.00  0.00    +0.000 C 
ATOM     13  C   UNL     1       2.216   7.756  18.342  0.00  0.00    +0.000 C 
ATOM     14  C   UNL     1       4.398   5.748  18.914  0.00  0.00    +0.000 A 
ATOM     15  C   UNL     1       5.123   6.825  18.372  0.00  0.00    +0.000 A 
ATOM     16  C   UNL     1       6.155   6.643  17.462  0.00  0.00    +0.000 A 
ENDROOT
BRANCH  11  17
ATOM     17  C   UNL     1       0.620  10.876  19.488  0.00  0.00    +0.000 A 
ATOM     18  C   UNL     1       0.915  11.786  18.448  0.00  0.00    +0.000 A 
ATOM     19  C   UNL     1       0.390  13.082  18.406  0.00  0.00    +0.000 A 
ATOM     20  C   UNL     1      -0.464  13.508  19.407  0.00  0.00    +0.000 A 
ATOM     21  C   UNL     1      -0.837  12.617  20.407  0.00  0.00    +0.000 A 
ATOM     22  C   UNL     1      -0.321  11.309  20.453  0.00  0.00    +0.000 A 
BRANCH  22  23
ATOM     23  O   UNL     1      -0.894  10.579  21.464  0.00  0.00    +0.000 OA
ATOM     24  C   UNL     1      -1.095  11.206  22.718  0.00  0.00    +0.000 C 
ENDBRANCH  22  23
ENDBRANCH  11  17
BRANCH   1  26
ATOM     25  C   UNL     1       7.132   4.699  15.016  0.00  0.00    +0.000 C 
ATOM     26  O   UNL     1       7.571   5.121  16.305  0.00  0.00    +0.000 OA
ENDBRANCH   1  26
BRANCH  16  27
ATOM     27  O   UNL     1       6.552   7.828  16.919  0.00  0.00    +0.000 OA
ATOM     28  C   UNL     1       7.655   8.517  17.476  0.00  0.00    +0.000 C 
ENDBRANCH  16  27
BRANCH   5  29
ATOM     29  C   UNL     1       2.444   2.388  20.552  0.00  0.00    +0.000 C 
BRANCH  29  30
ATOM     30  C   UNL     1       1.584   1.687  19.527  0.00  0.00    +0.000 C 
ATOM     31  C   UNL     1       0.485   2.444  18.811  0.00  0.00    +0.000 C 
ATOM     32  C   UNL     1       1.717   2.024  18.063  0.00  0.00    +0.000 C 
ENDBRANCH  29  30
ENDBRANCH   5  29
TORSDOF 6
ENDMDL
MODEL 9
REMARK VINA RESULT:      -6.8      2.626      4.986
REMARK  Name = 
REMARK  9 active torsions:
REMARK  status: ('A' for Active; 'I' for Inactive)
REMARK    1  A    between atoms: C_1  and  O_2
REMARK    2  A    between atoms: O_2  and  C_3
REMARK    3  A    between atoms: C_7  and  C_8
REMARK    4  A    between atoms: C_8  and  C_9
REMARK    5  A    between atoms: N_17  and  C_18
REMARK    6  A    between atoms: C_23  and  O_24
REMARK    7  A    between atoms: O_24  and  C_25
REMARK    8  A    between atoms: C_30  and  O_31
REMARK    9  A    between atoms: O_31  and  C_32
REMARK                            x       y       z     vdW  Elec       q    Type
REMARK                         _______ _______ _______ _____ _____    ______ ____
ROOT
ATOM      1  C   UNL     1       3.648   2.893  20.176  0.00  0.00    +0.000 A 
ATOM      2  C   UNL     1       4.389   3.146  18.999  0.00  0.00    +0.000 A 
ATOM      3  C   UNL     1       4.256   4.317  18.264  0.00  0.00    +0.000 A 
ATOM      4  N   UNL     1       5.089   4.577  17.252  0.00  0.00    +0.000 NA
ATOM      5  C   UNL     1       4.971   5.774  16.641  0.00  0.00    +0.000 A 
ATOM      6  N   UNL     1       4.076   6.731  16.986  0.00  0.00    +0.000 NA
ATOM      7  C   UNL     1       3.252   6.453  18.012  0.00  0.00    +0.000 A 
ATOM      8  N   UNL     1       2.353   7.414  18.478  0.00  0.00    +0.000 N 
ATOM      9  C   UNL     1       1.912   8.497  17.590  0.00  0.00    +0.000 C 
ATOM     10  C   UNL     1       0.570   9.049  18.154  0.00  0.00    +0.000 C 
ATOM     11  N   UNL     1       0.750   9.475  19.569  0.00  0.00    +0.000 N 
ATOM     12  C   UNL     1       1.211   8.377  20.435  0.00  0.00    +0.000 C 
ATOM     13  C   UNL     1       2.571   7.885  19.869  0.00  0.00    +0.000 C 
ATOM     14  C   UNL     1       3.264   5.207  18.657  0.00  0.00    +0.000 A 
ATOM     15  C   UNL     1       2.376   4.844  19.686  0.00  0.00    +0.000 A 
ATOM     16  C   UNL     1       2.598   3.747  20.507  0.00  0.00    +0.000 A 
ENDROOT
BRANCH  11  17
ATOM     17  C   UNL     1      -0.011  10.506  20.102  0.00  0.00    +0.000 A 
ATOM     18  C   UNL     1      -0.888  11.228  19.262  0.00  0.00    +0.000 A 
ATOM     19  C   UNL     1      -1.576  12.368  19.688  0.00  0.00    +0.000 A 
ATOM     20  C   UNL     1      -1.415  12.821  20.986  0.00  0.00    +0.000 A 
ATOM     21  C   UNL     1      -0.620  12.094  21.864  0.00  0.00    +0.000 A 
ATOM     22  C   UNL     1       0.070  10.941  21.447  0.00  0.00    +0.000 A 
BRANCH  22  23
ATOM     23  O   UNL     1       0.714  10.334  22.495  0.00  0.00    +0.000 OA
ATOM     24  C   UNL     1      -0.064   9.631  23.448  0.00  0.00    +0.000 C 
ENDBRANCH  22  23
ENDBRANCH  11  17
BRANCH   1  26
ATOM     25  C   UNL     1       5.210   1.245  20.825  0.00  0.00    +0.000 C 
ATOM     26  O   UNL     1       3.917   1.825  20.983  0.00  0.00    +0.000 OA
ENDBRANCH   1  26
BRANCH  16  27
ATOM     27  O   UNL     1       1.728   3.729  21.555  0.00  0.00    +0.000 OA
ATOM     28  C   UNL     1       1.129   2.507  21.947  0.00  0.00    +0.000 C 
ENDBRANCH  16  27
BRANCH   5  29
ATOM     29  C   UNL     1       5.958   6.045  15.523  0.00  0.00    +0.000 C 
BRANCH  29  30
ATOM     30  C   UNL     1       6.608   4.778  15.018  0.00  0.00    +0.000 C 
ATOM     31  C   UNL     1       5.998   4.021  13.858  0.00  0.00    +0.000 C 
ATOM     32  C   UNL     1       7.293   4.757  13.674  0.00  0.00    +0.000 C 
ENDBRANCH  29  30
ENDBRANCH   5  29
TORSDOF 6
ENDMDL
