MODEL 1
REMARK VINA RESULT:      -6.9      0.000      0.000
REMARK  Name = 
REMARK  5 active torsions:
REMARK  status: ('A' for Active; 'I' for Inactive)
REMARK    1  A    between atoms: C_1  and  C_2
REMARK    2  A    between atoms: C_2  and  N_3
REMARK    3  A    between atoms: N_3  and  C_4
REMARK    4  A    between atoms: C_4  and  N_6
REMARK    5  A    between atoms: C_9  and  N_10
REMARK                            x       y       z     vdW  Elec       q    Type
REMARK                         _______ _______ _______ _____ _____    ______ ____
ROOT
ATOM      1  N   UNL     1       5.321   4.156  16.221  0.00  0.00    +0.000 N 
ATOM      2  C   UNL     1       4.440   4.984  16.942  0.00  0.00    +0.000 A 
ATOM      3  C   UNL     1       3.478   4.374  17.715  0.00  0.00    +0.000 A 
ATOM      4  C   UNL     1       2.626   5.185  18.447  0.00  0.00    +0.000 A 
ATOM      5  N   UNL     1       2.726   6.524  18.382  0.00  0.00    +0.000 NA
ATOM      6  C   UNL     1       3.694   7.023  17.605  0.00  0.00    +0.000 A 
ATOM      7  N   UNL     1       4.572   6.318  16.884  0.00  0.00    +0.000 NA
ATOM      8  H   UNL     1       5.170   3.157  16.274  0.00  0.00    +0.000 HD
ENDROOT
BRANCH   4   9
ATOM      9  N   UNL     1       1.621   4.603  19.208  0.00  0.00    +0.000 N 
ATOM     10  C   UNL     1       1.603   4.881  20.653  0.00  0.00    +0.000 C 
ATOM     11  C   UNL     1       2.132   3.710  21.486  0.00  0.00    +0.000 C 
ATOM     12  O   UNL     1       1.467   2.481  21.143  0.00  0.00    +0.000 OA
ATOM     13  C   UNL     1       1.717   2.168  19.766  0.00  0.00    +0.000 C 
ATOM     14  C   UNL     1       1.164   3.253  18.826  0.00  0.00    +0.000 C 
ENDBRANCH   4   9
BRANCH   1  15
ATOM     15  C   UNL     1       6.484   4.502  15.589  0.00  0.00    +0.000 C 
ATOM     16  S   UNL     1       6.584   4.254  13.939  0.00  0.00    +0.000 S 
BRANCH  15  17
ATOM     17  N   UNL     1       7.488   4.987  16.376  0.00  0.00    +0.000 N 
ATOM     18  H   UNL     1       7.713   5.956  16.160  0.00  0.00    +0.000 HD
BRANCH  17  20
ATOM     19  C   UNL     1       7.684   5.800  18.675  0.00  0.00    +0.000 C 
ATOM     20  C   UNL     1       7.717   4.594  17.755  0.00  0.00    +0.000 C 
ENDBRANCH  17  20
ENDBRANCH  15  17
ENDBRANCH   1  15
TORSDOF 4
ENDMDL
MODEL 2
REMARK VINA RESULT:      -6.3      2.354      3.850
REMARK  Name = 
REMARK  5 active torsions:
REMARK  status: ('A' for Active; 'I' for Inactive)
REMARK    1  A    between atoms: C_1  and  C_2
REMARK    2  A    between atoms: C_2  and  N_3
REMARK    3  A    between atoms: N_3  and  C_4
REMARK    4  A    between atoms: C_4  and  N_6
REMARK    5  A    between atoms: C_9  and  N_10
REMARK                            x       y       z     vdW  Elec       q    Type
REMARK                         _______ _______ _______ _____ _____    ______ ____
ROOT
ATOM      1  N   UNL     1       5.693   4.349  14.642  0.00  0.00    +0.000 N 
ATOM      2  C   UNL     1       6.090   4.427  15.990  0.00  0.00    +0.000 A 
ATOM      3  C   UNL     1       5.102   4.453  16.948  0.00  0.00    +0.000 A 
ATOM      4  C   UNL     1       5.490   4.503  18.277  0.00  0.00    +0.000 A 
ATOM      5  N   UNL     1       6.790   4.546  18.613  0.00  0.00    +0.000 NA
ATOM      6  C   UNL     1       7.677   4.514  17.612  0.00  0.00    +0.000 A 
ATOM      7  N   UNL     1       7.395   4.444  16.306  0.00  0.00    +0.000 NA
ATOM      8  H   UNL     1       4.700   4.364  14.448  0.00  0.00    +0.000 HD
ENDROOT
BRANCH   4   9
ATOM      9  N   UNL     1       4.518   4.568  19.267  0.00  0.00    +0.000 N 
ATOM     10  C   UNL     1       3.910   3.306  19.719  0.00  0.00    +0.000 C 
ATOM     11  C   UNL     1       2.506   3.089  19.147  0.00  0.00    +0.000 C 
ATOM     12  O   UNL     1       1.664   4.232  19.377  0.00  0.00    +0.000 OA
ATOM     13  C   UNL     1       2.218   5.378  18.717  0.00  0.00    +0.000 C 
ATOM     14  C   UNL     1       3.611   5.732  19.264  0.00  0.00    +0.000 C 
ENDBRANCH   4   9
BRANCH   1  15
ATOM     15  C   UNL     1       6.463   4.073  13.545  0.00  0.00    +0.000 C 
ATOM     16  S   UNL     1       7.585   5.215  13.066  0.00  0.00    +0.000 S 
BRANCH  15  17
ATOM     17  N   UNL     1       6.216   2.892  12.907  0.00  0.00    +0.000 N 
ATOM     18  H   UNL     1       5.925   2.159  13.550  0.00  0.00    +0.000 HD
BRANCH  17  20
ATOM     19  C   UNL     1       4.251   3.277  11.501  0.00  0.00    +0.000 C 
ATOM     20  C   UNL     1       5.683   2.778  11.561  0.00  0.00    +0.000 C 
ENDBRANCH  17  20
ENDBRANCH  15  17
ENDBRANCH   1  15
TORSDOF 4
ENDMDL
MODEL 3
REMARK VINA RESULT:      -6.2      0.951      1.018
REMARK  Name = 
REMARK  5 active torsions:
REMARK  status: ('A' for Active; 'I' for Inactive)
REMARK    1  A    between atoms: C_1  and  C_2
REMARK    2  A    between atoms: C_2  and  N_3
REMARK    3  A    between atoms: N_3  and  C_4
REMARK    4  A    between atoms: C_4  and  N_6
REMARK    5  A    between atoms: C_9  and  N_10
REMARK                            x       y       z     vdW  Elec       q    Type
REMARK                         _______ _______ _______ _____ _____    ______ ____
ROOT
ATOM      1  N   UNL     1       5.203   4.936  16.345  0.00  0.00    +0.000 N 
ATOM      2  C   UNL     1       4.204   5.558  17.116  0.00  0.00    +0.000 A 
ATOM      3  C   UNL     1       3.346   4.748  17.826  0.00  0.00    +0.000 A 
ATOM      4  C   UNL     1       2.378   5.358  18.607  0.00  0.00    +0.000 A 
ATOM      5  N   UNL     1       2.270   6.696  18.650  0.00  0.00    +0.000 NA
ATOM      6  C   UNL     1       3.151   7.399  17.928  0.00  0.00    +0.000 A 
ATOM      7  N   UNL     1       4.128   6.898  17.165  0.00  0.00    +0.000 NA
ATOM      8  H   UNL     1       5.207   3.925  16.317  0.00  0.00    +0.000 HD
ENDROOT
BRANCH   4   9
ATOM      9  N   UNL     1       1.474   4.569  19.307  0.00  0.00    +0.000 N 
ATOM     10  C   UNL     1       1.418   4.718  20.770  0.00  0.00    +0.000 C 
ATOM     11  C   UNL     1       2.119   3.572  21.507  0.00  0.00    +0.000 C 
ATOM     12  O   UNL     1       1.646   2.291  21.054  0.00  0.00    +0.000 OA
ATOM     13  C   UNL     1       1.936   2.138  19.658  0.00  0.00    +0.000 C 
ATOM     14  C   UNL     1       1.223   3.203  18.808  0.00  0.00    +0.000 C 
ENDBRANCH   4   9
BRANCH   1  15
ATOM     15  C   UNL     1       6.299   5.506  15.758  0.00  0.00    +0.000 C 
ATOM     16  S   UNL     1       6.977   4.730  14.441  0.00  0.00    +0.000 S 
BRANCH  15  17
ATOM     17  N   UNL     1       6.774   6.650  16.329  0.00  0.00    +0.000 N 
ATOM     18  H   UNL     1       6.141   7.437  16.201  0.00  0.00    +0.000 HD
BRANCH  17  20
ATOM     19  C   UNL     1       7.971   8.122  17.874  0.00  0.00    +0.000 C 
ATOM     20  C   UNL     1       7.577   6.696  17.538  0.00  0.00    +0.000 C 
ENDBRANCH  17  20
ENDBRANCH  15  17
ENDBRANCH   1  15
TORSDOF 4
ENDMDL
MODEL 4
REMARK VINA RESULT:      -6.0      1.523      2.004
REMARK  Name = 
REMARK  5 active torsions:
REMARK  status: ('A' for Active; 'I' for Inactive)
REMARK    1  A    between atoms: C_1  and  C_2
REMARK    2  A    between atoms: C_2  and  N_3
REMARK    3  A    between atoms: N_3  and  C_4
REMARK    4  A    between atoms: C_4  and  N_6
REMARK    5  A    between atoms: C_9  and  N_10
REMARK                            x       y       z     vdW  Elec       q    Type
REMARK                         _______ _______ _______ _____ _____    ______ ____
ROOT
ATOM      1  N   UNL     1       5.877   5.258  17.456  0.00  0.00    +0.000 N 
ATOM      2  C   UNL     1       4.606   5.781  17.756  0.00  0.00    +0.000 A 
ATOM      3  C   UNL     1       3.716   4.963  18.415  0.00  0.00    +0.000 A 
ATOM      4  C   UNL     1       2.473   5.484  18.736  0.00  0.00    +0.000 A 
ATOM      5  N   UNL     1       2.144   6.741  18.393  0.00  0.00    +0.000 NA
ATOM      6  C   UNL     1       3.076   7.459  17.756  0.00  0.00    +0.000 A 
ATOM      7  N   UNL     1       4.305   7.047  17.427  0.00  0.00    +0.000 NA
ATOM      8  H   UNL     1       6.052   4.291  17.700  0.00  0.00    +0.000 HD
ENDROOT
BRANCH   4   9
ATOM      9  N   UNL     1       1.539   4.673  19.368  0.00  0.00    +0.000 N 
ATOM     10  C   UNL     1       1.466   4.722  20.837  0.00  0.00    +0.000 C 
ATOM     11  C   UNL     1       2.127   3.511  21.501  0.00  0.00    +0.000 C 
ATOM     12  O   UNL     1       1.628   2.277  20.956  0.00  0.00    +0.000 OA
ATOM     13  C   UNL     1       1.934   2.212  19.556  0.00  0.00    +0.000 C 
ATOM     14  C   UNL     1       1.261   3.352  18.772  0.00  0.00    +0.000 C 
ENDBRANCH   4   9
BRANCH   1  15
ATOM     15  C   UNL     1       6.993   5.928  17.035  0.00  0.00    +0.000 C 
ATOM     16  S   UNL     1       7.810   6.869  18.149  0.00  0.00    +0.000 S 
BRANCH  15  17
ATOM     17  N   UNL     1       7.323   5.801  15.717  0.00  0.00    +0.000 N 
ATOM     18  H   UNL     1       8.142   6.352  15.470  0.00  0.00    +0.000 HD
BRANCH  17  20
ATOM     19  C   UNL     1       5.784   4.604  14.239  0.00  0.00    +0.000 C 
ATOM     20  C   UNL     1       7.133   4.594  14.933  0.00  0.00    +0.000 C 
ENDBRANCH  17  20
ENDBRANCH  15  17
ENDBRANCH   1  15
TORSDOF 4
ENDMDL
MODEL 5
REMARK VINA RESULT:      -5.9      1.956      2.949
REMARK  Name = 
REMARK  5 active torsions:
REMARK  status: ('A' for Active; 'I' for Inactive)
REMARK    1  A    between atoms: C_1  and  C_2
REMARK    2  A    between atoms: C_2  and  N_3
REMARK    3  A    between atoms: N_3  and  C_4
REMARK    4  A    between atoms: C_4  and  N_6
REMARK    5  A    between atoms: C_9  and  N_10
REMARK                            x       y       z     vdW  Elec       q    Type
REMARK                         _______ _______ _______ _____ _____    ______ ____
ROOT
ATOM      1  N   UNL     1       5.051   4.467  15.111  0.00  0.00    +0.000 N 
ATOM      2  C   UNL     1       5.016   4.507  16.517  0.00  0.00    +0.000 A 
ATOM      3  C   UNL     1       3.782   4.529  17.126  0.00  0.00    +0.000 A 
ATOM      4  C   UNL     1       3.744   4.542  18.511  0.00  0.00    +0.000 A 
ATOM      5  N   UNL     1       4.879   4.555  19.231  0.00  0.00    +0.000 NA
ATOM      6  C   UNL     1       6.029   4.530  18.549  0.00  0.00    +0.000 A 
ATOM      7  N   UNL     1       6.161   4.495  17.218  0.00  0.00    +0.000 NA
ATOM      8  H   UNL     1       4.166   4.503  14.622  0.00  0.00    +0.000 HD
ENDROOT
BRANCH   4   9
ATOM      9  N   UNL     1       2.516   4.601  19.157  0.00  0.00    +0.000 N 
ATOM     10  C   UNL     1       2.514   4.751  20.621  0.00  0.00    +0.000 C 
ATOM     11  C   UNL     1       2.195   3.441  21.348  0.00  0.00    +0.000 C 
ATOM     12  O   UNL     1       0.988   2.843  20.844  0.00  0.00    +0.000 OA
ATOM     13  C   UNL     1       1.152   2.527  19.455  0.00  0.00    +0.000 C 
ATOM     14  C   UNL     1       1.413   3.787  18.611  0.00  0.00    +0.000 C 
ENDBRANCH   4   9
BRANCH   1  15
ATOM     15  C   UNL     1       6.117   4.202  14.295  0.00  0.00    +0.000 C 
ATOM     16  S   UNL     1       7.383   5.294  14.278  0.00  0.00    +0.000 S 
BRANCH  15  17
ATOM     17  N   UNL     1       6.036   3.077  13.527  0.00  0.00    +0.000 N 
ATOM     18  H   UNL     1       5.531   2.327  13.995  0.00  0.00    +0.000 HD
BRANCH  17  20
ATOM     19  C   UNL     1       4.509   3.283  11.627  0.00  0.00    +0.000 C 
ATOM     20  C   UNL     1       5.942   3.072  12.079  0.00  0.00    +0.000 C 
ENDBRANCH  17  20
ENDBRANCH  15  17
ENDBRANCH   1  15
TORSDOF 4
ENDMDL
MODEL 6
REMARK VINA RESULT:      -5.9      2.161      3.347
REMARK  Name = 
REMARK  5 active torsions:
REMARK  status: ('A' for Active; 'I' for Inactive)
REMARK    1  A    between atoms: C_1  and  C_2
REMARK    2  A    between atoms: C_2  and  N_3
REMARK    3  A    between atoms: N_3  and  C_4
REMARK    4  A    between atoms: C_4  and  N_6
REMARK    5  A    between atoms: C_9  and  N_10
REMARK                            x       y       z     vdW  Elec       q    Type
REMARK                         _______ _______ _______ _____ _____    ______ ____
ROOT
ATOM      1  N   UNL     1       5.554   4.407  14.899  0.00  0.00    +0.000 N 
ATOM      2  C   UNL     1       5.936   4.432  16.254  0.00  0.00    +0.000 A 
ATOM      3  C   UNL     1       4.978   4.125  17.194  0.00  0.00    +0.000 A 
ATOM      4  C   UNL     1       5.357   4.122  18.526  0.00  0.00    +0.000 A 
ATOM      5  N   UNL     1       6.615   4.431  18.885  0.00  0.00    +0.000 NA
ATOM      6  C   UNL     1       7.474   4.712  17.900  0.00  0.00    +0.000 A 
ATOM      7  N   UNL     1       7.204   4.718  16.590  0.00  0.00    +0.000 NA
ATOM      8  H   UNL     1       4.583   4.211  14.693  0.00  0.00    +0.000 HD
ENDROOT
BRANCH   4   9
ATOM      9  N   UNL     1       4.407   3.854  19.503  0.00  0.00    +0.000 N 
ATOM     10  C   UNL     1       3.944   2.465  19.651  0.00  0.00    +0.000 C 
ATOM     11  C   UNL     1       2.557   2.237  19.041  0.00  0.00    +0.000 C 
ATOM     12  O   UNL     1       1.606   3.199  19.528  0.00  0.00    +0.000 OA
ATOM     13  C   UNL     1       2.022   4.519  19.151  0.00  0.00    +0.000 C 
ATOM     14  C   UNL     1       3.384   4.884  19.767  0.00  0.00    +0.000 C 
ENDBRANCH   4   9
BRANCH   1  15
ATOM     15  C   UNL     1       6.356   4.435  13.791  0.00  0.00    +0.000 C 
ATOM     16  S   UNL     1       6.093   3.289  12.603  0.00  0.00    +0.000 S 
BRANCH  15  17
ATOM     17  N   UNL     1       7.339   5.382  13.770  0.00  0.00    +0.000 N 
ATOM     18  H   UNL     1       7.608   5.678  14.706  0.00  0.00    +0.000 HD
BRANCH  17  20
ATOM     19  C   UNL     1       7.952   6.278  11.578  0.00  0.00    +0.000 C 
ATOM     20  C   UNL     1       8.392   5.455  12.774  0.00  0.00    +0.000 C 
ENDBRANCH  17  20
ENDBRANCH  15  17
ENDBRANCH   1  15
TORSDOF 4
ENDMDL
MODEL 7
REMARK VINA RESULT:      -5.9      1.184      1.601
REMARK  Name = 
REMARK  5 active torsions:
REMARK  status: ('A' for Active; 'I' for Inactive)
REMARK    1  A    between atoms: C_1  and  C_2
REMARK    2  A    between atoms: C_2  and  N_3
REMARK    3  A    between atoms: N_3  and  C_4
REMARK    4  A    between atoms: C_4  and  N_6
REMARK    5  A    between atoms: C_9  and  N_10
REMARK                            x       y       z     vdW  Elec       q    Type
REMARK                         _______ _______ _______ _____ _____    ______ ____
ROOT
ATOM      1  N   UNL     1       5.777   3.517  15.864  0.00  0.00    +0.000 N 
ATOM      2  C   UNL     1       4.775   3.977  16.739  0.00  0.00    +0.000 A 
ATOM      3  C   UNL     1       4.185   3.057  17.576  0.00  0.00    +0.000 A 
ATOM      4  C   UNL     1       3.218   3.511  18.457  0.00  0.00    +0.000 A 
ATOM      5  N   UNL     1       2.856   4.804  18.476  0.00  0.00    +0.000 NA
ATOM      6  C   UNL     1       3.488   5.623  17.627  0.00  0.00    +0.000 A 
ATOM      7  N   UNL     1       4.446   5.278  16.760  0.00  0.00    +0.000 NA
ATOM      8  H   UNL     1       5.976   2.525  15.864  0.00  0.00    +0.000 HD
ENDROOT
BRANCH   4   9
ATOM      9  N   UNL     1       2.576   2.602  19.289  0.00  0.00    +0.000 N 
ATOM     10  C   UNL     1       1.106   2.545  19.244  0.00  0.00    +0.000 C 
ATOM     11  C   UNL     1       0.452   3.241  20.442  0.00  0.00    +0.000 C 
ATOM     12  O   UNL     1       0.993   2.763  21.685  0.00  0.00    +0.000 OA
ATOM     13  C   UNL     1       2.397   3.054  21.742  0.00  0.00    +0.000 C 
ATOM     14  C   UNL     1       3.170   2.347  20.616  0.00  0.00    +0.000 C 
ENDBRANCH   4   9
BRANCH   1  15
ATOM     15  C   UNL     1       6.661   4.254  15.125  0.00  0.00    +0.000 C 
ATOM     16  S   UNL     1       6.605   4.110  13.461  0.00  0.00    +0.000 S 
BRANCH  15  17
ATOM     17  N   UNL     1       7.550   5.021  15.821  0.00  0.00    +0.000 N 
ATOM     18  H   UNL     1       7.670   5.943  15.407  0.00  0.00    +0.000 HD
BRANCH  17  20
ATOM     19  C   UNL     1       7.585   6.333  17.885  0.00  0.00    +0.000 C 
ATOM     20  C   UNL     1       7.743   4.961  17.258  0.00  0.00    +0.000 C 
ENDBRANCH  17  20
ENDBRANCH  15  17
ENDBRANCH   1  15
TORSDOF 4
ENDMDL
MODEL 8
REMARK VINA RESULT:      -5.8      0.980      1.077
REMARK  Name = 
REMARK  5 active torsions:
REMARK  status: ('A' for Active; 'I' for Inactive)
REMARK    1  A    between atoms: C_1  and  C_2
REMARK    2  A    between atoms: C_2  and  N_3
REMARK    3  A    between atoms: N_3  and  C_4
REMARK    4  A    between atoms: C_4  and  N_6
REMARK    5  A    between atoms: C_9  and  N_10
REMARK                            x       y       z     vdW  Elec       q    Type
REMARK                         _______ _______ _______ _____ _____    ______ ____
ROOT
ATOM      1  N   UNL     1       5.723   4.387  16.088  0.00  0.00    +0.000 N 
ATOM      2  C   UNL     1       4.661   4.888  16.863  0.00  0.00    +0.000 A 
ATOM      3  C   UNL     1       3.976   4.000  17.661  0.00  0.00    +0.000 A 
ATOM      4  C   UNL     1       2.947   4.495  18.445  0.00  0.00    +0.000 A 
ATOM      5  N   UNL     1       2.617   5.797  18.407  0.00  0.00    +0.000 NA
ATOM      6  C   UNL     1       3.342   6.582  17.602  0.00  0.00    +0.000 A 
ATOM      7  N   UNL     1       4.363   6.197  16.829  0.00  0.00    +0.000 NA
ATOM      8  H   UNL     1       5.897   3.391  16.125  0.00  0.00    +0.000 HD
ENDROOT
BRANCH   4   9
ATOM      9  N   UNL     1       2.212   3.619  19.234  0.00  0.00    +0.000 N 
ATOM     10  C   UNL     1       1.405   4.188  20.326  0.00  0.00    +0.000 C 
ATOM     11  C   UNL     1       2.050   3.989  21.701  0.00  0.00    +0.000 C 
ATOM     12  O   UNL     1       2.401   2.612  21.921  0.00  0.00    +0.000 OA
ATOM     13  C   UNL     1       3.361   2.198  20.939  0.00  0.00    +0.000 C 
ATOM     14  C   UNL     1       2.794   2.292  19.512  0.00  0.00    +0.000 C 
ENDBRANCH   4   9
BRANCH   1  15
ATOM     15  C   UNL     1       6.688   5.087  15.417  0.00  0.00    +0.000 C 
ATOM     16  S   UNL     1       7.003   4.666  13.830  0.00  0.00    +0.000 S 
BRANCH  15  17
ATOM     17  N   UNL     1       7.345   6.054  16.122  0.00  0.00    +0.000 N 
ATOM     18  H   UNL     1       7.191   6.983  15.737  0.00  0.00    +0.000 HD
BRANCH  17  20
ATOM     19  C   UNL     1       7.849   7.401  18.100  0.00  0.00    +0.000 C 
ATOM     20  C   UNL     1       7.585   6.011  17.553  0.00  0.00    +0.000 C 
ENDBRANCH  17  20
ENDBRANCH  15  17
ENDBRANCH   1  15
TORSDOF 4
ENDMDL
MODEL 9
REMARK VINA RESULT:      -5.8      3.986      6.014
REMARK  Name = 
REMARK  5 active torsions:
REMARK  status: ('A' for Active; 'I' for Inactive)
REMARK    1  A    between atoms: C_1  and  C_2
REMARK    2  A    between atoms: C_2  and  N_3
REMARK    3  A    between atoms: N_3  and  C_4
REMARK    4  A    between atoms: C_4  and  N_6
REMARK    5  A    between atoms: C_9  and  N_10
REMARK                            x       y       z     vdW  Elec       q    Type
REMARK                         _______ _______ _______ _____ _____    ______ ____
ROOT
ATOM      1  N   UNL     1       1.180   9.296  19.511  0.00  0.00    +0.000 N 
ATOM      2  C   UNL     1       2.030   8.275  19.048  0.00  0.00    +0.000 A 
ATOM      3  C   UNL     1       2.143   7.138  19.817  0.00  0.00    +0.000 A 
ATOM      4  C   UNL     1       2.958   6.120  19.351  0.00  0.00    +0.000 A 
ATOM      5  N   UNL     1       3.631   6.251  18.195  0.00  0.00    +0.000 NA
ATOM      6  C   UNL     1       3.455   7.391  17.517  0.00  0.00    +0.000 A 
ATOM      7  N   UNL     1       2.674   8.414  17.878  0.00  0.00    +0.000 NA
ATOM      8  H   UNL     1       0.734   9.159  20.409  0.00  0.00    +0.000 HD
ENDROOT
BRANCH   4   9
ATOM      9  N   UNL     1       3.124   4.976  20.120  0.00  0.00    +0.000 N 
ATOM     10  C   UNL     1       3.815   3.829  19.509  0.00  0.00    +0.000 C 
ATOM     11  C   UNL     1       2.850   2.717  19.083  0.00  0.00    +0.000 C 
ATOM     12  O   UNL     1       1.979   2.337  20.163  0.00  0.00    +0.000 OA
ATOM     13  C   UNL     1       1.182   3.463  20.555  0.00  0.00    +0.000 C 
ATOM     14  C   UNL     1       2.049   4.624  21.069  0.00  0.00    +0.000 C 
ENDBRANCH   4   9
BRANCH   1  15
ATOM     15  C   UNL     1       0.720  10.390  18.831  0.00  0.00    +0.000 C 
ATOM     16  S   UNL     1       1.225  11.900  19.341  0.00  0.00    +0.000 S 
BRANCH  15  17
ATOM     17  N   UNL     1      -0.153  10.154  17.809  0.00  0.00    +0.000 N 
ATOM     18  H   UNL     1       0.220   9.497  17.128  0.00  0.00    +0.000 HD
BRANCH  17  20
ATOM     19  C   UNL     1      -2.270   9.981  16.595  0.00  0.00    +0.000 C 
ATOM     20  C   UNL     1      -1.599  10.146  17.945  0.00  0.00    +0.000 C 
ENDBRANCH  17  20
ENDBRANCH  15  17
ENDBRANCH   1  15
TORSDOF 4
ENDMDL
