MODEL 1
REMARK VINA RESULT:      -8.8      0.000      0.000
REMARK  Name = 
REMARK  6 active torsions:
REMARK  status: ('A' for Active; 'I' for Inactive)
REMARK    1  A    between atoms: C_2  and  C_19
REMARK    2  A    between atoms: N_3  and  C_4
REMARK    3  A    between atoms: C_4  and  C_5
REMARK    4  A    between atoms: C_5  and  C_6
REMARK    5  A    between atoms: C_6  and  C_7
REMARK    6  A    between atoms: C_6  and  C_13
REMARK                            x       y       z     vdW  Elec       q    Type
REMARK                         _______ _______ _______ _____ _____    ______ ____
ROOT
ATOM      1  C   UNL     1       3.108   6.456  19.108  0.00  0.00    +0.000 C 
ENDROOT
BRANCH   1   2
ATOM      2  C   UNL     1       2.251   7.720  19.147  0.00  0.00    +0.000 A 
ATOM      3  C   UNL     1       1.630   8.143  20.332  0.00  0.00    +0.000 A 
ATOM      4  C   UNL     1       0.727   9.210  20.319  0.00  0.00    +0.000 A 
ATOM      5  C   UNL     1       0.444   9.873  19.127  0.00  0.00    +0.000 A 
ATOM      6  C   UNL     1       1.081   9.488  17.950  0.00  0.00    +0.000 A 
ATOM      7  C   UNL     1       1.982   8.422  17.959  0.00  0.00    +0.000 A 
ENDBRANCH   1   2
BRANCH   1   8
ATOM      8  C   UNL     1       2.308   5.162  19.316  0.00  0.00    +0.000 A 
ATOM      9  C   UNL     1       1.728   4.443  18.256  0.00  0.00    +0.000 A 
ATOM     10  C   UNL     1       1.116   3.206  18.469  0.00  0.00    +0.000 A 
ATOM     11  C   UNL     1       1.055   2.663  19.750  0.00  0.00    +0.000 A 
ATOM     12  C   UNL     1       1.598   3.366  20.819  0.00  0.00    +0.000 A 
ATOM     13  C   UNL     1       2.223   4.600  20.603  0.00  0.00    +0.000 A 
ENDBRANCH   1   8
BRANCH   1  14
ATOM     14  C   UNL     1       4.025   6.475  17.852  0.00  0.00    +0.000 C 
BRANCH  14  15
ATOM     15  C   UNL     1       5.003   5.295  17.806  0.00  0.00    +0.000 C 
BRANCH  15  18
ATOM     16  O   UNL     1       7.174   6.153  16.241  0.00  0.00    +0.000 OA
ATOM     17  C   UNL     1       6.391   5.334  15.768  0.00  0.00    +0.000 C 
ATOM     18  N   UNL     1       5.282   4.870  16.448  0.00  0.00    +0.000 N 
ATOM     19  H   UNL     1       4.575   4.339  15.956  0.00  0.00    +0.000 HD
BRANCH  17  20
ATOM     20  C   UNL     1       6.607   4.816  14.389  0.00  0.00    +0.000 A 
ATOM     21  C   UNL     1       7.618   5.304  13.553  0.00  0.00    +0.000 A 
ATOM     22  C   UNL     1       7.757   4.799  12.258  0.00  0.00    +0.000 A 
ATOM     23  C   UNL     1       6.887   3.813  11.792  0.00  0.00    +0.000 A 
ATOM     24  C   UNL     1       5.870   3.334  12.616  0.00  0.00    +0.000 A 
ATOM     25  C   UNL     1       5.726   3.837  13.908  0.00  0.00    +0.000 A 
ENDBRANCH  17  20
ENDBRANCH  15  18
ENDBRANCH  14  15
ENDBRANCH   1  14
TORSDOF 6
ENDMDL
MODEL 2
REMARK VINA RESULT:      -8.7      1.264      4.203
REMARK  Name = 
REMARK  6 active torsions:
REMARK  status: ('A' for Active; 'I' for Inactive)
REMARK    1  A    between atoms: C_2  and  C_19
REMARK    2  A    between atoms: N_3  and  C_4
REMARK    3  A    between atoms: C_4  and  C_5
REMARK    4  A    between atoms: C_5  and  C_6
REMARK    5  A    between atoms: C_6  and  C_7
REMARK    6  A    between atoms: C_6  and  C_13
REMARK                            x       y       z     vdW  Elec       q    Type
REMARK                         _______ _______ _______ _____ _____    ______ ____
ROOT
ATOM      1  C   UNL     1       3.917   5.850  17.973  0.00  0.00    +0.000 C 
ENDROOT
BRANCH   1   2
ATOM      2  C   UNL     1       3.435   4.446  18.331  0.00  0.00    +0.000 A 
ATOM      3  C   UNL     1       4.249   3.556  19.046  0.00  0.00    +0.000 A 
ATOM      4  C   UNL     1       3.857   2.227  19.231  0.00  0.00    +0.000 A 
ATOM      5  C   UNL     1       2.643   1.777  18.716  0.00  0.00    +0.000 A 
ATOM      6  C   UNL     1       1.807   2.659  18.036  0.00  0.00    +0.000 A 
ATOM      7  C   UNL     1       2.197   3.986  17.848  0.00  0.00    +0.000 A 
ENDBRANCH   1   2
BRANCH   1   8
ATOM      8  C   UNL     1       2.957   6.964  18.418  0.00  0.00    +0.000 A 
ATOM      9  C   UNL     1       2.401   7.024  19.708  0.00  0.00    +0.000 A 
ATOM     10  C   UNL     1       1.633   8.117  20.116  0.00  0.00    +0.000 A 
ATOM     11  C   UNL     1       1.388   9.170  19.238  0.00  0.00    +0.000 A 
ATOM     12  C   UNL     1       1.904   9.122  17.948  0.00  0.00    +0.000 A 
ATOM     13  C   UNL     1       2.684   8.033  17.545  0.00  0.00    +0.000 A 
ENDBRANCH   1   8
BRANCH   1  14
ATOM     14  C   UNL     1       5.396   6.034  18.418  0.00  0.00    +0.000 C 
BRANCH  14  15
ATOM     15  C   UNL     1       6.240   6.800  17.392  0.00  0.00    +0.000 C 
BRANCH  15  18
ATOM     16  O   UNL     1       7.791   4.691  16.371  0.00  0.00    +0.000 OA
ATOM     17  C   UNL     1       6.919   5.182  15.659  0.00  0.00    +0.000 C 
ATOM     18  N   UNL     1       6.123   6.236  16.061  0.00  0.00    +0.000 N 
ATOM     19  H   UNL     1       5.548   6.719  15.383  0.00  0.00    +0.000 HD
BRANCH  17  20
ATOM     20  C   UNL     1       6.703   4.653  14.284  0.00  0.00    +0.000 A 
ATOM     21  C   UNL     1       5.644   3.793  13.968  0.00  0.00    +0.000 A 
ATOM     22  C   UNL     1       5.506   3.307  12.665  0.00  0.00    +0.000 A 
ATOM     23  C   UNL     1       6.424   3.669  11.680  0.00  0.00    +0.000 A 
ATOM     24  C   UNL     1       7.488   4.512  11.993  0.00  0.00    +0.000 A 
ATOM     25  C   UNL     1       7.632   4.999  13.292  0.00  0.00    +0.000 A 
ENDBRANCH  17  20
ENDBRANCH  15  18
ENDBRANCH  14  15
ENDBRANCH   1  14
TORSDOF 6
ENDMDL
MODEL 3
REMARK VINA RESULT:      -8.7      0.649      3.909
REMARK  Name = 
REMARK  6 active torsions:
REMARK  status: ('A' for Active; 'I' for Inactive)
REMARK    1  A    between atoms: C_2  and  C_19
REMARK    2  A    between atoms: N_3  and  C_4
REMARK    3  A    between atoms: C_4  and  C_5
REMARK    4  A    between atoms: C_5  and  C_6
REMARK    5  A    between atoms: C_6  and  C_7
REMARK    6  A    between atoms: C_6  and  C_13
REMARK                            x       y       z     vdW  Elec       q    Type
REMARK                         _______ _______ _______ _____ _____    ______ ____
ROOT
ATOM      1  C   UNL     1       3.013   6.008  18.376  0.00  0.00    +0.000 C 
ENDROOT
BRANCH   1   2
ATOM      2  C   UNL     1       2.405   4.834  19.140  0.00  0.00    +0.000 A 
ATOM      3  C   UNL     1       1.520   3.939  18.519  0.00  0.00    +0.000 A 
ATOM      4  C   UNL     1       0.853   2.965  19.267  0.00  0.00    +0.000 A 
ATOM      5  C   UNL     1       1.072   2.864  20.639  0.00  0.00    +0.000 A 
ATOM      6  C   UNL     1       1.975   3.721  21.263  0.00  0.00    +0.000 A 
ATOM      7  C   UNL     1       2.642   4.696  20.520  0.00  0.00    +0.000 A 
ENDBRANCH   1   2
BRANCH   1   8
ATOM      8  C   UNL     1       2.382   7.364  18.725  0.00  0.00    +0.000 A 
ATOM      9  C   UNL     1       2.172   8.376  17.772  0.00  0.00    +0.000 A 
ATOM     10  C   UNL     1       1.482   9.546  18.099  0.00  0.00    +0.000 A 
ATOM     11  C   UNL     1       0.999   9.739  19.390  0.00  0.00    +0.000 A 
ATOM     12  C   UNL     1       1.217   8.765  20.357  0.00  0.00    +0.000 A 
ATOM     13  C   UNL     1       1.896   7.588  20.026  0.00  0.00    +0.000 A 
ENDBRANCH   1   8
BRANCH   1  14
ATOM     14  C   UNL     1       4.565   5.956  18.469  0.00  0.00    +0.000 C 
BRANCH  14  15
ATOM     15  C   UNL     1       5.146   4.600  18.050  0.00  0.00    +0.000 C 
BRANCH  15  18
ATOM     16  O   UNL     1       7.600   4.834  16.701  0.00  0.00    +0.000 OA
ATOM     17  C   UNL     1       6.584   4.613  16.047  0.00  0.00    +0.000 C 
ATOM     18  N   UNL     1       5.330   4.506  16.615  0.00  0.00    +0.000 N 
ATOM     19  H   UNL     1       4.508   4.503  16.024  0.00  0.00    +0.000 HD
BRANCH  17  20
ATOM     20  C   UNL     1       6.674   4.472  14.567  0.00  0.00    +0.000 A 
ATOM     21  C   UNL     1       5.872   3.579  13.847  0.00  0.00    +0.000 A 
ATOM     22  C   UNL     1       6.019   3.471  12.462  0.00  0.00    +0.000 A 
ATOM     23  C   UNL     1       6.967   4.245  11.794  0.00  0.00    +0.000 A 
ATOM     24  C   UNL     1       7.778   5.125  12.509  0.00  0.00    +0.000 A 
ATOM     25  C   UNL     1       7.637   5.235  13.892  0.00  0.00    +0.000 A 
ENDBRANCH  17  20
ENDBRANCH  15  18
ENDBRANCH  14  15
ENDBRANCH   1  14
TORSDOF 6
ENDMDL
MODEL 4
REMARK VINA RESULT:      -8.7      3.146      7.405
REMARK  Name = 
REMARK  6 active torsions:
REMARK  status: ('A' for Active; 'I' for Inactive)
REMARK    1  A    between atoms: C_2  and  C_19
REMARK    2  A    between atoms: N_3  and  C_4
REMARK    3  A    between atoms: C_4  and  C_5
REMARK    4  A    between atoms: C_5  and  C_6
REMARK    5  A    between atoms: C_6  and  C_7
REMARK    6  A    between atoms: C_6  and  C_13
REMARK                            x       y       z     vdW  Elec       q    Type
REMARK                         _______ _______ _______ _____ _____    ______ ____
ROOT
ATOM      1  C   UNL     1       2.799   6.183  18.118  0.00  0.00    +0.000 C 
ENDROOT
BRANCH   1   2
ATOM      2  C   UNL     1       4.306   5.977  17.977  0.00  0.00    +0.000 A 
ATOM      3  C   UNL     1       5.081   5.509  19.048  0.00  0.00    +0.000 A 
ATOM      4  C   UNL     1       6.475   5.473  18.953  0.00  0.00    +0.000 A 
ATOM      5  C   UNL     1       7.108   5.889  17.784  0.00  0.00    +0.000 A 
ATOM      6  C   UNL     1       6.349   6.320  16.698  0.00  0.00    +0.000 A 
ATOM      7  C   UNL     1       4.958   6.360  16.791  0.00  0.00    +0.000 A 
ENDBRANCH   1   2
BRANCH   1   8
ATOM      8  C   UNL     1       2.060   4.962  18.685  0.00  0.00    +0.000 A 
ATOM      9  C   UNL     1       1.815   3.800  17.932  0.00  0.00    +0.000 A 
ATOM     10  C   UNL     1       1.252   2.663  18.517  0.00  0.00    +0.000 A 
ATOM     11  C   UNL     1       0.905   2.665  19.865  0.00  0.00    +0.000 A 
ATOM     12  C   UNL     1       1.113   3.811  20.625  0.00  0.00    +0.000 A 
ATOM     13  C   UNL     1       1.689   4.945  20.042  0.00  0.00    +0.000 A 
ENDBRANCH   1   8
BRANCH   1  14
ATOM     14  C   UNL     1       2.512   7.528  18.846  0.00  0.00    +0.000 C 
BRANCH  14  15
ATOM     15  C   UNL     1       2.361   8.711  17.883  0.00  0.00    +0.000 C 
BRANCH  15  18
ATOM     16  O   UNL     1       1.013  10.628  19.433  0.00  0.00    +0.000 OA
ATOM     17  C   UNL     1       0.409  10.077  18.518  0.00  0.00    +0.000 C 
ATOM     18  N   UNL     1       0.976   9.105  17.716  0.00  0.00    +0.000 N 
ATOM     19  H   UNL     1       0.391   8.557  17.099  0.00  0.00    +0.000 HD
BRANCH  17  20
ATOM     20  C   UNL     1      -1.012  10.434  18.249  0.00  0.00    +0.000 A 
ATOM     21  C   UNL     1      -1.739   9.879  17.190  0.00  0.00    +0.000 A 
ATOM     22  C   UNL     1      -3.061  10.272  16.970  0.00  0.00    +0.000 A 
ATOM     23  C   UNL     1      -3.658  11.222  17.798  0.00  0.00    +0.000 A 
ATOM     24  C   UNL     1      -2.933  11.789  18.845  0.00  0.00    +0.000 A 
ATOM     25  C   UNL     1      -1.612  11.401  19.068  0.00  0.00    +0.000 A 
ENDBRANCH  17  20
ENDBRANCH  15  18
ENDBRANCH  14  15
ENDBRANCH   1  14
TORSDOF 6
ENDMDL
MODEL 5
REMARK VINA RESULT:      -8.6      3.158      7.557
REMARK  Name = 
REMARK  6 active torsions:
REMARK  status: ('A' for Active; 'I' for Inactive)
REMARK    1  A    between atoms: C_2  and  C_19
REMARK    2  A    between atoms: N_3  and  C_4
REMARK    3  A    between atoms: C_4  and  C_5
REMARK    4  A    between atoms: C_5  and  C_6
REMARK    5  A    between atoms: C_6  and  C_7
REMARK    6  A    between atoms: C_6  and  C_13
REMARK                            x       y       z     vdW  Elec       q    Type
REMARK                         _______ _______ _______ _____ _____    ______ ____
ROOT
ATOM      1  C   UNL     1       2.862   6.293  18.125  0.00  0.00    +0.000 C 
ENDROOT
BRANCH   1   2
ATOM      2  C   UNL     1       4.382   6.193  18.007  0.00  0.00    +0.000 A 
ATOM      3  C   UNL     1       5.050   6.580  16.836  0.00  0.00    +0.000 A 
ATOM      4  C   UNL     1       6.418   6.339  16.686  0.00  0.00    +0.000 A 
ATOM      5  C   UNL     1       7.136   5.722  17.707  0.00  0.00    +0.000 A 
ATOM      6  C   UNL     1       6.495   5.366  18.891  0.00  0.00    +0.000 A 
ATOM      7  C   UNL     1       5.128   5.603  19.043  0.00  0.00    +0.000 A 
ENDBRANCH   1   2
BRANCH   1   8
ATOM      8  C   UNL     1       2.207   5.046  18.737  0.00  0.00    +0.000 A 
ATOM      9  C   UNL     1       1.769   4.989  20.071  0.00  0.00    +0.000 A 
ATOM     10  C   UNL     1       1.066   3.883  20.556  0.00  0.00    +0.000 A 
ATOM     11  C   UNL     1       0.797   2.801  19.723  0.00  0.00    +0.000 A 
ATOM     12  C   UNL     1       1.243   2.822  18.407  0.00  0.00    +0.000 A 
ATOM     13  C   UNL     1       1.936   3.934  17.918  0.00  0.00    +0.000 A 
ENDBRANCH   1   8
BRANCH   1  14
ATOM     14  C   UNL     1       2.469   7.643  18.791  0.00  0.00    +0.000 C 
BRANCH  14  15
ATOM     15  C   UNL     1       2.299   8.783  17.780  0.00  0.00    +0.000 C 
BRANCH  15  18
ATOM     16  O   UNL     1       0.918  10.641  19.374  0.00  0.00    +0.000 OA
ATOM     17  C   UNL     1       0.326  10.107  18.440  0.00  0.00    +0.000 C 
ATOM     18  N   UNL     1       0.910   9.164  17.616  0.00  0.00    +0.000 N 
ATOM     19  H   UNL     1       0.335   8.626  16.981  0.00  0.00    +0.000 HD
BRANCH  17  20
ATOM     20  C   UNL     1      -1.097  10.454  18.173  0.00  0.00    +0.000 A 
ATOM     21  C   UNL     1      -1.824   9.885  17.120  0.00  0.00    +0.000 A 
ATOM     22  C   UNL     1      -3.150  10.268  16.901  0.00  0.00    +0.000 A 
ATOM     23  C   UNL     1      -3.750  11.222  17.723  0.00  0.00    +0.000 A 
ATOM     24  C   UNL     1      -3.025  11.802  18.763  0.00  0.00    +0.000 A 
ATOM     25  C   UNL     1      -1.701  11.423  18.985  0.00  0.00    +0.000 A 
ENDBRANCH  17  20
ENDBRANCH  15  18
ENDBRANCH  14  15
ENDBRANCH   1  14
TORSDOF 6
ENDMDL
MODEL 6
REMARK VINA RESULT:      -8.6      3.335      7.477
REMARK  Name = 
REMARK  6 active torsions:
REMARK  status: ('A' for Active; 'I' for Inactive)
REMARK    1  A    between atoms: C_2  and  C_19
REMARK    2  A    between atoms: N_3  and  C_4
REMARK    3  A    between atoms: C_4  and  C_5
REMARK    4  A    between atoms: C_5  and  C_6
REMARK    5  A    between atoms: C_6  and  C_7
REMARK    6  A    between atoms: C_6  and  C_13
REMARK                            x       y       z     vdW  Elec       q    Type
REMARK                         _______ _______ _______ _____ _____    ______ ____
ROOT
ATOM      1  C   UNL     1       3.137   6.120  17.909  0.00  0.00    +0.000 C 
ENDROOT
BRANCH   1   2
ATOM      2  C   UNL     1       4.656   6.134  18.068  0.00  0.00    +0.000 A 
ATOM      3  C   UNL     1       5.487   6.703  17.091  0.00  0.00    +0.000 A 
ATOM      4  C   UNL     1       6.875   6.571  17.176  0.00  0.00    +0.000 A 
ATOM      5  C   UNL     1       7.450   5.883  18.242  0.00  0.00    +0.000 A 
ATOM      6  C   UNL     1       6.640   5.345  19.239  0.00  0.00    +0.000 A 
ATOM      7  C   UNL     1       5.253   5.473  19.157  0.00  0.00    +0.000 A 
ENDBRANCH   1   2
BRANCH   1   8
ATOM      8  C   UNL     1       2.503   4.744  18.161  0.00  0.00    +0.000 A 
ATOM      9  C   UNL     1       2.814   3.607  17.395  0.00  0.00    +0.000 A 
ATOM     10  C   UNL     1       2.313   2.347  17.733  0.00  0.00    +0.000 A 
ATOM     11  C   UNL     1       1.477   2.196  18.835  0.00  0.00    +0.000 A 
ATOM     12  C   UNL     1       1.133   3.309  19.593  0.00  0.00    +0.000 A 
ATOM     13  C   UNL     1       1.645   4.569  19.263  0.00  0.00    +0.000 A 
ENDBRANCH   1   8
BRANCH   1  14
ATOM     14  C   UNL     1       2.508   7.297  18.708  0.00  0.00    +0.000 C 
BRANCH  14  15
ATOM     15  C   UNL     1       2.449   8.603  17.907  0.00  0.00    +0.000 C 
BRANCH  15  18
ATOM     16  O   UNL     1       1.056  10.313  19.647  0.00  0.00    +0.000 OA
ATOM     17  C   UNL     1       0.497   9.927  18.625  0.00  0.00    +0.000 C 
ATOM     18  N   UNL     1       1.088   9.067  17.720  0.00  0.00    +0.000 N 
ATOM     19  H   UNL     1       0.530   8.639  16.993  0.00  0.00    +0.000 HD
BRANCH  17  20
ATOM     20  C   UNL     1      -0.893  10.372  18.330  0.00  0.00    +0.000 A 
ATOM     21  C   UNL     1      -1.638   9.852  17.264  0.00  0.00    +0.000 A 
ATOM     22  C   UNL     1      -2.929  10.327  17.019  0.00  0.00    +0.000 A 
ATOM     23  C   UNL     1      -3.477  11.322  17.828  0.00  0.00    +0.000 A 
ATOM     24  C   UNL     1      -2.734  11.853  18.881  0.00  0.00    +0.000 A 
ATOM     25  C   UNL     1      -1.444  11.384  19.129  0.00  0.00    +0.000 A 
ENDBRANCH  17  20
ENDBRANCH  15  18
ENDBRANCH  14  15
ENDBRANCH   1  14
TORSDOF 6
ENDMDL
MODEL 7
REMARK VINA RESULT:      -8.6      2.926      8.062
REMARK  Name = 
REMARK  6 active torsions:
REMARK  status: ('A' for Active; 'I' for Inactive)
REMARK    1  A    between atoms: C_2  and  C_19
REMARK    2  A    between atoms: N_3  and  C_4
REMARK    3  A    between atoms: C_4  and  C_5
REMARK    4  A    between atoms: C_5  and  C_6
REMARK    5  A    between atoms: C_6  and  C_7
REMARK    6  A    between atoms: C_6  and  C_13
REMARK                            x       y       z     vdW  Elec       q    Type
REMARK                         _______ _______ _______ _____ _____    ______ ____
ROOT
ATOM      1  C   UNL     1       3.087   6.444  18.459  0.00  0.00    +0.000 C 
ENDROOT
BRANCH   1   2
ATOM      2  C   UNL     1       2.238   5.268  18.937  0.00  0.00    +0.000 A 
ATOM      3  C   UNL     1       1.894   5.119  20.288  0.00  0.00    +0.000 A 
ATOM      4  C   UNL     1       1.249   3.962  20.734  0.00  0.00    +0.000 A 
ATOM      5  C   UNL     1       0.929   2.948  19.834  0.00  0.00    +0.000 A 
ATOM      6  C   UNL     1       1.230   3.098  18.482  0.00  0.00    +0.000 A 
ATOM      7  C   UNL     1       1.876   4.252  18.034  0.00  0.00    +0.000 A 
ENDBRANCH   1   2
BRANCH   1   8
ATOM      8  C   UNL     1       4.480   6.034  17.956  0.00  0.00    +0.000 A 
ATOM      9  C   UNL     1       5.444   5.430  18.783  0.00  0.00    +0.000 A 
ATOM     10  C   UNL     1       6.651   4.958  18.262  0.00  0.00    +0.000 A 
ATOM     11  C   UNL     1       6.931   5.091  16.904  0.00  0.00    +0.000 A 
ATOM     12  C   UNL     1       6.005   5.708  16.071  0.00  0.00    +0.000 A 
ATOM     13  C   UNL     1       4.791   6.169  16.590  0.00  0.00    +0.000 A 
ENDBRANCH   1   8
BRANCH   1  14
ATOM     14  C   UNL     1       2.265   7.332  17.482  0.00  0.00    +0.000 C 
BRANCH  14  15
ATOM     15  C   UNL     1       2.327   8.824  17.832  0.00  0.00    +0.000 C 
BRANCH  15  18
ATOM     16  O   UNL     1      -0.064  10.220  18.313  0.00  0.00    +0.000 OA
ATOM     17  C   UNL     1       0.566   9.778  19.270  0.00  0.00    +0.000 C 
ATOM     18  N   UNL     1       1.762   9.101  19.139  0.00  0.00    +0.000 N 
ATOM     19  H   UNL     1       2.328   8.915  19.957  0.00  0.00    +0.000 HD
BRANCH  17  20
ATOM     20  C   UNL     1       0.052   9.987  20.653  0.00  0.00    +0.000 A 
ATOM     21  C   UNL     1      -0.001   8.956  21.598  0.00  0.00    +0.000 A 
ATOM     22  C   UNL     1      -0.518   9.203  22.872  0.00  0.00    +0.000 A 
ATOM     23  C   UNL     1      -0.988  10.474  23.204  0.00  0.00    +0.000 A 
ATOM     24  C   UNL     1      -0.951  11.500  22.261  0.00  0.00    +0.000 A 
ATOM     25  C   UNL     1      -0.437  11.257  20.987  0.00  0.00    +0.000 A 
ENDBRANCH  17  20
ENDBRANCH  15  18
ENDBRANCH  14  15
ENDBRANCH   1  14
TORSDOF 6
ENDMDL
MODEL 8
REMARK VINA RESULT:      -8.6      0.830      1.874
REMARK  Name = 
REMARK  6 active torsions:
REMARK  status: ('A' for Active; 'I' for Inactive)
REMARK    1  A    between atoms: C_2  and  C_19
REMARK    2  A    between atoms: N_3  and  C_4
REMARK    3  A    between atoms: C_4  and  C_5
REMARK    4  A    between atoms: C_5  and  C_6
REMARK    5  A    between atoms: C_6  and  C_7
REMARK    6  A    between atoms: C_6  and  C_13
REMARK                            x       y       z     vdW  Elec       q    Type
REMARK                         _______ _______ _______ _____ _____    ______ ____
ROOT
ATOM      1  C   UNL     1       3.004   6.639  18.913  0.00  0.00    +0.000 C 
ENDROOT
BRANCH   1   2
ATOM      2  C   UNL     1       2.107   7.843  19.191  0.00  0.00    +0.000 A 
ATOM      3  C   UNL     1       1.840   8.798  18.198  0.00  0.00    +0.000 A 
ATOM      4  C   UNL     1       1.147   9.971  18.509  0.00  0.00    +0.000 A 
ATOM      5  C   UNL     1       0.702  10.197  19.809  0.00  0.00    +0.000 A 
ATOM      6  C   UNL     1       0.926   9.241  20.797  0.00  0.00    +0.000 A 
ATOM      7  C   UNL     1       1.620   8.070  20.490  0.00  0.00    +0.000 A 
ENDBRANCH   1   2
BRANCH   1   8
ATOM      8  C   UNL     1       2.339   5.290  19.225  0.00  0.00    +0.000 A 
ATOM      9  C   UNL     1       2.088   4.846  20.536  0.00  0.00    +0.000 A 
ATOM     10  C   UNL     1       1.370   3.673  20.778  0.00  0.00    +0.000 A 
ATOM     11  C   UNL     1       0.897   2.906  19.716  0.00  0.00    +0.000 A 
ATOM     12  C   UNL     1       1.155   3.309  18.411  0.00  0.00    +0.000 A 
ATOM     13  C   UNL     1       1.863   4.491  18.169  0.00  0.00    +0.000 A 
ENDBRANCH   1   8
BRANCH   1  14
ATOM     14  C   UNL     1       3.629   6.757  17.493  0.00  0.00    +0.000 C 
BRANCH  14  15
ATOM     15  C   UNL     1       5.150   6.562  17.490  0.00  0.00    +0.000 C 
BRANCH  15  18
ATOM     16  O   UNL     1       5.369   3.942  16.499  0.00  0.00    +0.000 OA
ATOM     17  C   UNL     1       5.697   4.877  15.774  0.00  0.00    +0.000 C 
ATOM     18  N   UNL     1       5.649   6.197  16.178  0.00  0.00    +0.000 N 
ATOM     19  H   UNL     1       6.095   6.911  15.617  0.00  0.00    +0.000 HD
BRANCH  17  20
ATOM     20  C   UNL     1       6.197   4.606  14.398  0.00  0.00    +0.000 A 
ATOM     21  C   UNL     1       5.576   3.691  13.540  0.00  0.00    +0.000 A 
ATOM     22  C   UNL     1       6.105   3.457  12.268  0.00  0.00    +0.000 A 
ATOM     23  C   UNL     1       7.256   4.128  11.853  0.00  0.00    +0.000 A 
ATOM     24  C   UNL     1       7.886   5.028  12.709  0.00  0.00    +0.000 A 
ATOM     25  C   UNL     1       7.362   5.264  13.980  0.00  0.00    +0.000 A 
ENDBRANCH  17  20
ENDBRANCH  15  18
ENDBRANCH  14  15
ENDBRANCH   1  14
TORSDOF 6
ENDMDL
MODEL 9
REMARK VINA RESULT:      -8.6      0.324      1.427
REMARK  Name = 
REMARK  6 active torsions:
REMARK  status: ('A' for Active; 'I' for Inactive)
REMARK    1  A    between atoms: C_2  and  C_19
REMARK    2  A    between atoms: N_3  and  C_4
REMARK    3  A    between atoms: C_4  and  C_5
REMARK    4  A    between atoms: C_5  and  C_6
REMARK    5  A    between atoms: C_6  and  C_7
REMARK    6  A    between atoms: C_6  and  C_13
REMARK                            x       y       z     vdW  Elec       q    Type
REMARK                         _______ _______ _______ _____ _____    ______ ____
ROOT
ATOM      1  C   UNL     1       3.145   6.244  19.266  0.00  0.00    +0.000 C 
ENDROOT
BRANCH   1   2
ATOM      2  C   UNL     1       2.250   7.482  19.282  0.00  0.00    +0.000 A 
ATOM      3  C   UNL     1       2.095   8.285  18.142  0.00  0.00    +0.000 A 
ATOM      4  C   UNL     1       1.399   9.495  18.215  0.00  0.00    +0.000 A 
ATOM      5  C   UNL     1       0.840   9.909  19.422  0.00  0.00    +0.000 A 
ATOM      6  C   UNL     1       0.953   9.105  20.553  0.00  0.00    +0.000 A 
ATOM      7  C   UNL     1       1.649   7.897  20.484  0.00  0.00    +0.000 A 
ENDBRANCH   1   2
BRANCH   1   8
ATOM      8  C   UNL     1       2.386   4.932  19.512  0.00  0.00    +0.000 A 
ATOM      9  C   UNL     1       2.212   4.379  20.793  0.00  0.00    +0.000 A 
ATOM     10  C   UNL     1       1.411   3.252  20.993  0.00  0.00    +0.000 A 
ATOM     11  C   UNL     1       0.777   2.640  19.914  0.00  0.00    +0.000 A 
ATOM     12  C   UNL     1       0.955   3.152  18.634  0.00  0.00    +0.000 A 
ATOM     13  C   UNL     1       1.747   4.288  18.436  0.00  0.00    +0.000 A 
ENDBRANCH   1   8
BRANCH   1  14
ATOM     14  C   UNL     1       4.050   6.259  18.001  0.00  0.00    +0.000 C 
BRANCH  14  15
ATOM     15  C   UNL     1       5.108   5.149  18.007  0.00  0.00    +0.000 C 
BRANCH  15  18
ATOM     16  O   UNL     1       6.537   6.562  16.043  0.00  0.00    +0.000 OA
ATOM     17  C   UNL     1       6.133   5.432  15.783  0.00  0.00    +0.000 C 
ATOM     18  N   UNL     1       5.401   4.669  16.671  0.00  0.00    +0.000 N 
ATOM     19  H   UNL     1       4.941   3.826  16.351  0.00  0.00    +0.000 HD
BRANCH  17  20
ATOM     20  C   UNL     1       6.409   4.839  14.445  0.00  0.00    +0.000 A 
ATOM     21  C   UNL     1       7.529   5.192  13.683  0.00  0.00    +0.000 A 
ATOM     22  C   UNL     1       7.722   4.623  12.422  0.00  0.00    +0.000 A 
ATOM     23  C   UNL     1       6.799   3.708  11.916  0.00  0.00    +0.000 A 
ATOM     24  C   UNL     1       5.675   3.364  12.665  0.00  0.00    +0.000 A 
ATOM     25  C   UNL     1       5.477   3.931  13.923  0.00  0.00    +0.000 A 
ENDBRANCH  17  20
ENDBRANCH  15  18
ENDBRANCH  14  15
ENDBRANCH   1  14
TORSDOF 6
ENDMDL
