MODEL 1
REMARK VINA RESULT:      -6.9      0.000      0.000
REMARK  Name = 
REMARK  5 active torsions:
REMARK  status: ('A' for Active; 'I' for Inactive)
REMARK    1  A    between atoms: O_1  and  C_2
REMARK    2  A    between atoms: C_2  and  C_3
REMARK    3  A    between atoms: C_3  and  C_4
REMARK    4  A    between atoms: C_6  and  C_7
REMARK    5  A    between atoms: C_15  and  C_16
REMARK                            x       y       z     vdW  Elec       q    Type
REMARK                         _______ _______ _______ _____ _____    ______ ____
ROOT
ATOM      1  C   UNL     1       5.853   4.819  18.163  0.00  0.00    +0.000 A 
ATOM      2  N   UNL     1       6.662   4.999  17.064  0.00  0.00    +0.000 NA
ATOM      3  C   UNL     1       5.993   4.455  16.069  0.00  0.00    +0.000 A 
ATOM      4  O   UNL     1       4.793   3.911  16.438  0.00  0.00    +0.000 OA
ATOM      5  C   UNL     1       4.693   4.156  17.791  0.00  0.00    +0.000 A 
ENDROOT
BRANCH   3   6
ATOM      6  C   UNL     1       6.367   4.383  14.658  0.00  0.00    +0.000 A 
ATOM      7  C   UNL     1       7.423   5.185  14.188  0.00  0.00    +0.000 A 
ATOM      8  C   UNL     1       7.796   5.169  12.841  0.00  0.00    +0.000 A 
ATOM      9  C   UNL     1       7.113   4.345  11.958  0.00  0.00    +0.000 A 
ATOM     10  F   UNL     1       7.459   4.333  10.663  0.00  0.00    +0.000 F 
ATOM     11  C   UNL     1       6.071   3.534  12.396  0.00  0.00    +0.000 A 
ATOM     12  C   UNL     1       5.699   3.553  13.744  0.00  0.00    +0.000 A 
ENDBRANCH   3   6
BRANCH   5  13
ATOM     13  C   UNL     1       3.527   3.752  18.638  0.00  0.00    +0.000 A 
ATOM     14  C   UNL     1       3.352   2.517  19.334  0.00  0.00    +0.000 A 
ATOM     15  C   UNL     1       2.156   2.458  20.014  0.00  0.00    +0.000 A 
ATOM     16  S   UNL     1       1.243   3.889  19.825  0.00  0.00    +0.000 S 
ATOM     17  C   UNL     1       2.452   4.594  18.837  0.00  0.00    +0.000 A 
ENDBRANCH   5  13
BRANCH   1  18
ATOM     18  C   UNL     1       6.282   5.300  19.503  0.00  0.00    +0.000 C 
BRANCH  18  19
ATOM     19  C   UNL     1       7.756   5.660  19.609  0.00  0.00    +0.000 C 
BRANCH  19  20
ATOM     20  O   UNL     1       8.214   5.332  20.919  0.00  0.00    +0.000 OA
ATOM     21  H   UNL     1       9.097   4.937  20.817  0.00  0.00    +0.000 HD
ENDBRANCH  19  20
ENDBRANCH  18  19
ENDBRANCH   1  18
TORSDOF 5
ENDMDL
MODEL 2
REMARK VINA RESULT:      -6.9      0.510      1.416
REMARK  Name = 
REMARK  5 active torsions:
REMARK  status: ('A' for Active; 'I' for Inactive)
REMARK    1  A    between atoms: O_1  and  C_2
REMARK    2  A    between atoms: C_2  and  C_3
REMARK    3  A    between atoms: C_3  and  C_4
REMARK    4  A    between atoms: C_6  and  C_7
REMARK    5  A    between atoms: C_15  and  C_16
REMARK                            x       y       z     vdW  Elec       q    Type
REMARK                         _______ _______ _______ _____ _____    ______ ____
ROOT
ATOM      1  C   UNL     1       5.777   4.790  18.071  0.00  0.00    +0.000 A 
ATOM      2  N   UNL     1       6.625   4.958  16.999  0.00  0.00    +0.000 NA
ATOM      3  C   UNL     1       5.954   4.481  15.971  0.00  0.00    +0.000 A 
ATOM      4  O   UNL     1       4.717   3.993  16.292  0.00  0.00    +0.000 OA
ATOM      5  C   UNL     1       4.593   4.203  17.649  0.00  0.00    +0.000 A 
ENDROOT
BRANCH   3   6
ATOM      6  C   UNL     1       6.363   4.431  14.569  0.00  0.00    +0.000 A 
ATOM      7  C   UNL     1       5.700   3.550  13.694  0.00  0.00    +0.000 A 
ATOM      8  C   UNL     1       6.076   3.449  12.352  0.00  0.00    +0.000 A 
ATOM      9  C   UNL     1       7.118   4.234  11.878  0.00  0.00    +0.000 A 
ATOM     10  F   UNL     1       7.490   4.134  10.595  0.00  0.00    +0.000 F 
ATOM     11  C   UNL     1       7.785   5.120  12.717  0.00  0.00    +0.000 A 
ATOM     12  C   UNL     1       7.407   5.219  14.061  0.00  0.00    +0.000 A 
ENDBRANCH   3   6
BRANCH   5  13
ATOM     13  C   UNL     1       3.385   3.838  18.453  0.00  0.00    +0.000 A 
ATOM     14  C   UNL     1       2.111   4.484  18.439  0.00  0.00    +0.000 A 
ATOM     15  C   UNL     1       1.216   3.906  19.312  0.00  0.00    +0.000 A 
ATOM     16  S   UNL     1       1.901   2.581  20.144  0.00  0.00    +0.000 S 
ATOM     17  C   UNL     1       3.397   2.775  19.332  0.00  0.00    +0.000 A 
ENDBRANCH   5  13
BRANCH   1  18
ATOM     18  C   UNL     1       6.195   5.207  19.436  0.00  0.00    +0.000 C 
BRANCH  18  19
ATOM     19  C   UNL     1       7.609   5.760  19.529  0.00  0.00    +0.000 C 
BRANCH  19  20
ATOM     20  O   UNL     1       8.178   5.352  20.771  0.00  0.00    +0.000 OA
ATOM     21  H   UNL     1       9.136   5.264  20.626  0.00  0.00    +0.000 HD
ENDBRANCH  19  20
ENDBRANCH  18  19
ENDBRANCH   1  18
TORSDOF 5
ENDMDL
MODEL 3
REMARK VINA RESULT:      -6.8      4.663      7.297
REMARK  Name = 
REMARK  5 active torsions:
REMARK  status: ('A' for Active; 'I' for Inactive)
REMARK    1  A    between atoms: O_1  and  C_2
REMARK    2  A    between atoms: C_2  and  C_3
REMARK    3  A    between atoms: C_3  and  C_4
REMARK    4  A    between atoms: C_6  and  C_7
REMARK    5  A    between atoms: C_15  and  C_16
REMARK                            x       y       z     vdW  Elec       q    Type
REMARK                         _______ _______ _______ _____ _____    ______ ____
ROOT
ATOM      1  C   UNL     1       3.791   4.674  18.310  0.00  0.00    +0.000 A 
ATOM      2  N   UNL     1       2.908   5.418  19.061  0.00  0.00    +0.000 NA
ATOM      3  C   UNL     1       2.946   6.618  18.522  0.00  0.00    +0.000 A 
ATOM      4  O   UNL     1       3.810   6.726  17.467  0.00  0.00    +0.000 OA
ATOM      5  C   UNL     1       4.349   5.467  17.319  0.00  0.00    +0.000 A 
ENDROOT
BRANCH   3   6
ATOM      6  C   UNL     1       2.183   7.805  18.900  0.00  0.00    +0.000 A 
ATOM      7  C   UNL     1       1.731   7.936  20.227  0.00  0.00    +0.000 A 
ATOM      8  C   UNL     1       0.974   9.040  20.625  0.00  0.00    +0.000 A 
ATOM      9  C   UNL     1       0.668  10.024  19.696  0.00  0.00    +0.000 A 
ATOM     10  F   UNL     1      -0.066  11.081  20.070  0.00  0.00    +0.000 F 
ATOM     11  C   UNL     1       1.108   9.928  18.381  0.00  0.00    +0.000 A 
ATOM     12  C   UNL     1       1.865   8.820  17.983  0.00  0.00    +0.000 A 
ENDBRANCH   3   6
BRANCH   5  13
ATOM     13  C   UNL     1       5.348   5.094  16.268  0.00  0.00    +0.000 A 
ATOM     14  C   UNL     1       6.735   5.435  16.234  0.00  0.00    +0.000 A 
ATOM     15  C   UNL     1       7.373   4.945  15.117  0.00  0.00    +0.000 A 
ATOM     16  S   UNL     1       6.310   4.067  14.108  0.00  0.00    +0.000 S 
ATOM     17  C   UNL     1       4.993   4.336  15.172  0.00  0.00    +0.000 A 
ENDBRANCH   5  13
BRANCH   1  18
ATOM     18  C   UNL     1       4.033   3.242  18.629  0.00  0.00    +0.000 C 
BRANCH  18  19
ATOM     19  C   UNL     1       3.180   2.261  17.840  0.00  0.00    +0.000 C 
BRANCH  19  20
ATOM     20  O   UNL     1       1.958   2.903  17.483  0.00  0.00    +0.000 OA
ATOM     21  H   UNL     1       1.991   3.799  17.860  0.00  0.00    +0.000 HD
ENDBRANCH  19  20
ENDBRANCH  18  19
ENDBRANCH   1  18
TORSDOF 5
ENDMDL
MODEL 4
REMARK VINA RESULT:      -6.7      4.686      7.128
REMARK  Name = 
REMARK  5 active torsions:
REMARK  status: ('A' for Active; 'I' for Inactive)
REMARK    1  A    between atoms: O_1  and  C_2
REMARK    2  A    between atoms: C_2  and  C_3
REMARK    3  A    between atoms: C_3  and  C_4
REMARK    4  A    between atoms: C_6  and  C_7
REMARK    5  A    between atoms: C_15  and  C_16
REMARK                            x       y       z     vdW  Elec       q    Type
REMARK                         _______ _______ _______ _____ _____    ______ ____
ROOT
ATOM      1  C   UNL     1       3.588   4.581  18.219  0.00  0.00    +0.000 A 
ATOM      2  N   UNL     1       2.706   5.316  18.978  0.00  0.00    +0.000 NA
ATOM      3  C   UNL     1       2.838   6.549  18.535  0.00  0.00    +0.000 A 
ATOM      4  O   UNL     1       3.763   6.685  17.537  0.00  0.00    +0.000 OA
ATOM      5  C   UNL     1       4.242   5.412  17.321  0.00  0.00    +0.000 A 
ENDROOT
BRANCH   3   6
ATOM      6  C   UNL     1       2.119   7.747  18.964  0.00  0.00    +0.000 A 
ATOM      7  C   UNL     1       1.875   8.771  18.031  0.00  0.00    +0.000 A 
ATOM      8  C   UNL     1       1.216   9.945  18.404  0.00  0.00    +0.000 A 
ATOM      9  C   UNL     1       0.794  10.098  19.717  0.00  0.00    +0.000 A 
ATOM     10  F   UNL     1       0.171  11.226  20.083  0.00  0.00    +0.000 F 
ATOM     11  C   UNL     1       1.011   9.099  20.660  0.00  0.00    +0.000 A 
ATOM     12  C   UNL     1       1.673   7.925  20.284  0.00  0.00    +0.000 A 
ENDBRANCH   3   6
BRANCH   5  13
ATOM     13  C   UNL     1       5.276   5.061  16.298  0.00  0.00    +0.000 A 
ATOM     14  C   UNL     1       6.674   5.357  16.344  0.00  0.00    +0.000 A 
ATOM     15  C   UNL     1       7.347   4.904  15.231  0.00  0.00    +0.000 A 
ATOM     16  S   UNL     1       6.305   4.117  14.131  0.00  0.00    +0.000 S 
ATOM     17  C   UNL     1       4.950   4.374  15.147  0.00  0.00    +0.000 A 
ENDBRANCH   5  13
BRANCH   1  18
ATOM     18  C   UNL     1       3.736   3.118  18.438  0.00  0.00    +0.000 C 
BRANCH  18  19
ATOM     19  C   UNL     1       3.967   2.711  19.886  0.00  0.00    +0.000 C 
BRANCH  19  20
ATOM     20  O   UNL     1       5.113   1.865  19.945  0.00  0.00    +0.000 OA
ATOM     21  H   UNL     1       4.911   1.081  19.406  0.00  0.00    +0.000 HD
ENDBRANCH  19  20
ENDBRANCH  18  19
ENDBRANCH   1  18
TORSDOF 5
ENDMDL
MODEL 5
REMARK VINA RESULT:      -6.7      4.833      7.258
REMARK  Name = 
REMARK  5 active torsions:
REMARK  status: ('A' for Active; 'I' for Inactive)
REMARK    1  A    between atoms: O_1  and  C_2
REMARK    2  A    between atoms: C_2  and  C_3
REMARK    3  A    between atoms: C_3  and  C_4
REMARK    4  A    between atoms: C_6  and  C_7
REMARK    5  A    between atoms: C_15  and  C_16
REMARK                            x       y       z     vdW  Elec       q    Type
REMARK                         _______ _______ _______ _____ _____    ______ ____
ROOT
ATOM      1  C   UNL     1       3.249   4.750  18.393  0.00  0.00    +0.000 A 
ATOM      2  N   UNL     1       2.308   5.529  19.028  0.00  0.00    +0.000 NA
ATOM      3  C   UNL     1       2.642   6.765  18.723  0.00  0.00    +0.000 A 
ATOM      4  O   UNL     1       3.756   6.861  17.935  0.00  0.00    +0.000 OA
ATOM      5  C   UNL     1       4.145   5.558  17.708  0.00  0.00    +0.000 A 
ENDROOT
BRANCH   3   6
ATOM      6  C   UNL     1       1.970   8.005  19.105  0.00  0.00    +0.000 A 
ATOM      7  C   UNL     1       1.528   8.165  20.431  0.00  0.00    +0.000 A 
ATOM      8  C   UNL     1       0.857   9.322  20.833  0.00  0.00    +0.000 A 
ATOM      9  C   UNL     1       0.626  10.329  19.907  0.00  0.00    +0.000 A 
ATOM     10  F   UNL     1      -0.026  11.437  20.284  0.00  0.00    +0.000 F 
ATOM     11  C   UNL     1       1.060  10.204  18.591  0.00  0.00    +0.000 A 
ATOM     12  C   UNL     1       1.732   9.044  18.191  0.00  0.00    +0.000 A 
ENDBRANCH   3   6
BRANCH   5  13
ATOM     13  C   UNL     1       5.323   5.161  16.876  0.00  0.00    +0.000 A 
ATOM     14  C   UNL     1       6.592   4.697  17.340  0.00  0.00    +0.000 A 
ATOM     15  C   UNL     1       7.466   4.429  16.310  0.00  0.00    +0.000 A 
ATOM     16  S   UNL     1       6.763   4.726  14.782  0.00  0.00    +0.000 S 
ATOM     17  C   UNL     1       5.282   5.208  15.498  0.00  0.00    +0.000 A 
ENDBRANCH   5  13
BRANCH   1  18
ATOM     18  C   UNL     1       3.209   3.268  18.514  0.00  0.00    +0.000 C 
BRANCH  18  19
ATOM     19  C   UNL     1       3.750   2.722  19.826  0.00  0.00    +0.000 C 
BRANCH  19  20
ATOM     20  O   UNL     1       5.145   2.469  19.674  0.00  0.00    +0.000 OA
ATOM     21  H   UNL     1       5.583   2.829  20.465  0.00  0.00    +0.000 HD
ENDBRANCH  19  20
ENDBRANCH  18  19
ENDBRANCH   1  18
TORSDOF 5
ENDMDL
MODEL 6
REMARK VINA RESULT:      -6.7      3.465      4.710
REMARK  Name = 
REMARK  5 active torsions:
REMARK  status: ('A' for Active; 'I' for Inactive)
REMARK    1  A    between atoms: O_1  and  C_2
REMARK    2  A    between atoms: C_2  and  C_3
REMARK    3  A    between atoms: C_3  and  C_4
REMARK    4  A    between atoms: C_6  and  C_7
REMARK    5  A    between atoms: C_15  and  C_16
REMARK                            x       y       z     vdW  Elec       q    Type
REMARK                         _______ _______ _______ _____ _____    ______ ____
ROOT
ATOM      1  C   UNL     1       2.285   5.413  19.868  0.00  0.00    +0.000 A 
ATOM      2  N   UNL     1       3.133   4.643  19.104  0.00  0.00    +0.000 NA
ATOM      3  C   UNL     1       3.751   5.506  18.326  0.00  0.00    +0.000 A 
ATOM      4  O   UNL     1       3.359   6.803  18.512  0.00  0.00    +0.000 OA
ATOM      5  C   UNL     1       2.419   6.749  19.519  0.00  0.00    +0.000 A 
ENDROOT
BRANCH   3   6
ATOM      6  C   UNL     1       4.787   5.245  17.328  0.00  0.00    +0.000 A 
ATOM      7  C   UNL     1       5.926   6.072  17.291  0.00  0.00    +0.000 A 
ATOM      8  C   UNL     1       6.927   5.876  16.337  0.00  0.00    +0.000 A 
ATOM      9  C   UNL     1       6.795   4.848  15.415  0.00  0.00    +0.000 A 
ATOM     10  F   UNL     1       7.747   4.662  14.491  0.00  0.00    +0.000 F 
ATOM     11  C   UNL     1       5.686   4.009  15.433  0.00  0.00    +0.000 A 
ATOM     12  C   UNL     1       4.683   4.207  16.389  0.00  0.00    +0.000 A 
ENDBRANCH   3   6
BRANCH   5  13
ATOM     13  C   UNL     1       1.712   7.943  20.079  0.00  0.00    +0.000 A 
ATOM     14  C   UNL     1       1.316   8.155  21.435  0.00  0.00    +0.000 A 
ATOM     15  C   UNL     1       0.669   9.358  21.615  0.00  0.00    +0.000 A 
ATOM     16  S   UNL     1       0.542  10.239  20.157  0.00  0.00    +0.000 S 
ATOM     17  C   UNL     1       1.360   9.013  19.282  0.00  0.00    +0.000 A 
ENDBRANCH   5  13
BRANCH   1  18
ATOM     18  C   UNL     1       1.394   4.781  20.877  0.00  0.00    +0.000 C 
BRANCH  18  19
ATOM     19  C   UNL     1       1.564   3.277  21.023  0.00  0.00    +0.000 C 
BRANCH  19  20
ATOM     20  O   UNL     1       2.541   3.023  22.029  0.00  0.00    +0.000 OA
ATOM     21  H   UNL     1       2.387   2.117  22.348  0.00  0.00    +0.000 HD
ENDBRANCH  19  20
ENDBRANCH  18  19
ENDBRANCH   1  18
TORSDOF 5
ENDMDL
MODEL 7
REMARK VINA RESULT:      -6.7      5.181      7.732
REMARK  Name = 
REMARK  5 active torsions:
REMARK  status: ('A' for Active; 'I' for Inactive)
REMARK    1  A    between atoms: O_1  and  C_2
REMARK    2  A    between atoms: C_2  and  C_3
REMARK    3  A    between atoms: C_3  and  C_4
REMARK    4  A    between atoms: C_6  and  C_7
REMARK    5  A    between atoms: C_15  and  C_16
REMARK                            x       y       z     vdW  Elec       q    Type
REMARK                         _______ _______ _______ _____ _____    ______ ____
ROOT
ATOM      1  C   UNL     1       2.877   4.739  19.653  0.00  0.00    +0.000 A 
ATOM      2  N   UNL     1       2.016   5.580  20.322  0.00  0.00    +0.000 NA
ATOM      3  C   UNL     1       2.271   6.774  19.829  0.00  0.00    +0.000 A 
ATOM      4  O   UNL     1       3.258   6.784  18.882  0.00  0.00    +0.000 OA
ATOM      5  C   UNL     1       3.644   5.467  18.756  0.00  0.00    +0.000 A 
ENDROOT
BRANCH   3   6
ATOM      6  C   UNL     1       1.629   8.045  20.156  0.00  0.00    +0.000 A 
ATOM      7  C   UNL     1       1.433   8.996  19.138  0.00  0.00    +0.000 A 
ATOM      8  C   UNL     1       0.849  10.235  19.411  0.00  0.00    +0.000 A 
ATOM      9  C   UNL     1       0.453  10.528  20.708  0.00  0.00    +0.000 A 
ATOM     10  F   UNL     1      -0.098  11.719  20.979  0.00  0.00    +0.000 F 
ATOM     11  C   UNL     1       0.625   9.604  21.734  0.00  0.00    +0.000 A 
ATOM     12  C   UNL     1       1.211   8.364  21.458  0.00  0.00    +0.000 A 
ENDBRANCH   3   6
BRANCH   5  13
ATOM     13  C   UNL     1       4.701   4.983  17.814  0.00  0.00    +0.000 A 
ATOM     14  C   UNL     1       4.517   4.180  16.647  0.00  0.00    +0.000 A 
ATOM     15  C   UNL     1       5.703   3.898  16.006  0.00  0.00    +0.000 A 
ATOM     16  S   UNL     1       7.041   4.602  16.801  0.00  0.00    +0.000 S 
ATOM     17  C   UNL     1       6.032   5.294  18.001  0.00  0.00    +0.000 A 
ENDBRANCH   5  13
BRANCH   1  18
ATOM     18  C   UNL     1       2.893   3.282  19.952  0.00  0.00    +0.000 C 
BRANCH  18  19
ATOM     19  C   UNL     1       1.809   2.817  20.913  0.00  0.00    +0.000 C 
BRANCH  19  20
ATOM     20  O   UNL     1       2.204   3.151  22.242  0.00  0.00    +0.000 OA
ATOM     21  H   UNL     1       2.659   4.009  22.192  0.00  0.00    +0.000 HD
ENDBRANCH  19  20
ENDBRANCH  18  19
ENDBRANCH   1  18
TORSDOF 5
ENDMDL
MODEL 8
REMARK VINA RESULT:      -6.7      3.743      6.636
REMARK  Name = 
REMARK  5 active torsions:
REMARK  status: ('A' for Active; 'I' for Inactive)
REMARK    1  A    between atoms: O_1  and  C_2
REMARK    2  A    between atoms: C_2  and  C_3
REMARK    3  A    between atoms: C_3  and  C_4
REMARK    4  A    between atoms: C_6  and  C_7
REMARK    5  A    between atoms: C_15  and  C_16
REMARK                            x       y       z     vdW  Elec       q    Type
REMARK                         _______ _______ _______ _____ _____    ______ ____
ROOT
ATOM      1  C   UNL     1       6.222   5.745  17.444  0.00  0.00    +0.000 A 
ATOM      2  N   UNL     1       5.534   5.630  18.631  0.00  0.00    +0.000 NA
ATOM      3  C   UNL     1       4.652   4.678  18.411  0.00  0.00    +0.000 A 
ATOM      4  O   UNL     1       4.698   4.160  17.146  0.00  0.00    +0.000 OA
ATOM      5  C   UNL     1       5.721   4.839  16.521  0.00  0.00    +0.000 A 
ENDROOT
BRANCH   3   6
ATOM      6  C   UNL     1       3.671   4.120  19.339  0.00  0.00    +0.000 A 
ATOM      7  C   UNL     1       2.434   4.770  19.502  0.00  0.00    +0.000 A 
ATOM      8  C   UNL     1       1.478   4.287  20.399  0.00  0.00    +0.000 A 
ATOM      9  C   UNL     1       1.756   3.146  21.138  0.00  0.00    +0.000 A 
ATOM     10  F   UNL     1       0.848   2.684  22.008  0.00  0.00    +0.000 F 
ATOM     11  C   UNL     1       2.967   2.477  20.992  0.00  0.00    +0.000 A 
ATOM     12  C   UNL     1       3.923   2.963  20.093  0.00  0.00    +0.000 A 
ENDBRANCH   3   6
BRANCH   5  13
ATOM     13  C   UNL     1       6.156   4.597  15.109  0.00  0.00    +0.000 A 
ATOM     14  C   UNL     1       7.288   5.162  14.445  0.00  0.00    +0.000 A 
ATOM     15  C   UNL     1       7.397   4.743  13.137  0.00  0.00    +0.000 A 
ATOM     16  S   UNL     1       6.145   3.665  12.706  0.00  0.00    +0.000 S 
ATOM     17  C   UNL     1       5.457   3.751  14.273  0.00  0.00    +0.000 A 
ENDBRANCH   5  13
BRANCH   1  18
ATOM     18  C   UNL     1       7.313   6.745  17.296  0.00  0.00    +0.000 C 
BRANCH  18  19
ATOM     19  C   UNL     1       8.036   7.093  18.588  0.00  0.00    +0.000 C 
BRANCH  19  20
ATOM     20  O   UNL     1       8.232   5.896  19.338  0.00  0.00    +0.000 OA
ATOM     21  H   UNL     1       7.486   5.830  19.960  0.00  0.00    +0.000 HD
ENDBRANCH  19  20
ENDBRANCH  18  19
ENDBRANCH   1  18
TORSDOF 5
ENDMDL
MODEL 9
REMARK VINA RESULT:      -6.7      4.972      7.484
REMARK  Name = 
REMARK  5 active torsions:
REMARK  status: ('A' for Active; 'I' for Inactive)
REMARK    1  A    between atoms: O_1  and  C_2
REMARK    2  A    between atoms: C_2  and  C_3
REMARK    3  A    between atoms: C_3  and  C_4
REMARK    4  A    between atoms: C_6  and  C_7
REMARK    5  A    between atoms: C_15  and  C_16
REMARK                            x       y       z     vdW  Elec       q    Type
REMARK                         _______ _______ _______ _____ _____    ______ ____
ROOT
ATOM      1  C   UNL     1       3.368   4.640  19.585  0.00  0.00    +0.000 A 
ATOM      2  N   UNL     1       2.444   5.440  20.218  0.00  0.00    +0.000 NA
ATOM      3  C   UNL     1       2.551   6.607  19.617  0.00  0.00    +0.000 A 
ATOM      4  O   UNL     1       3.498   6.639  18.631  0.00  0.00    +0.000 OA
ATOM      5  C   UNL     1       4.020   5.364  18.598  0.00  0.00    +0.000 A 
ENDROOT
BRANCH   3   6
ATOM      6  C   UNL     1       1.785   7.826  19.865  0.00  0.00    +0.000 A 
ATOM      7  C   UNL     1       1.650   8.773  18.832  0.00  0.00    +0.000 A 
ATOM      8  C   UNL     1       0.951   9.965  19.034  0.00  0.00    +0.000 A 
ATOM      9  C   UNL     1       0.379  10.215  20.273  0.00  0.00    +0.000 A 
ATOM     10  F   UNL     1      -0.284  11.362  20.476  0.00  0.00    +0.000 F 
ATOM     11  C   UNL     1       0.487   9.294  21.310  0.00  0.00    +0.000 A 
ATOM     12  C   UNL     1       1.189   8.101  21.106  0.00  0.00    +0.000 A 
ENDBRANCH   3   6
BRANCH   5  13
ATOM     13  C   UNL     1       5.091   4.914  17.654  0.00  0.00    +0.000 A 
ATOM     14  C   UNL     1       6.504   4.957  17.866  0.00  0.00    +0.000 A 
ATOM     15  C   UNL     1       7.215   4.478  16.788  0.00  0.00    +0.000 A 
ATOM     16  S   UNL     1       6.188   3.967  15.523  0.00  0.00    +0.000 S 
ATOM     17  C   UNL     1       4.788   4.381  16.419  0.00  0.00    +0.000 A 
ENDBRANCH   5  13
BRANCH   1  18
ATOM     18  C   UNL     1       3.553   3.224  20.002  0.00  0.00    +0.000 C 
BRANCH  18  19
ATOM     19  C   UNL     1       2.365   2.615  20.730  0.00  0.00    +0.000 C 
BRANCH  19  20
ATOM     20  O   UNL     1       2.480   2.911  22.120  0.00  0.00    +0.000 OA
ATOM     21  H   UNL     1       3.297   2.485  22.431  0.00  0.00    +0.000 HD
ENDBRANCH  19  20
ENDBRANCH  18  19
ENDBRANCH   1  18
TORSDOF 5
ENDMDL
