MODEL 1
REMARK VINA RESULT:      -7.9      0.000      0.000
REMARK  Name = 
REMARK  2 active torsions:
REMARK  status: ('A' for Active; 'I' for Inactive)
REMARK    1  A    between atoms: C_5  and  C_6
REMARK    2  A    between atoms: C_8  and  C_9
REMARK                            x       y       z     vdW  Elec       q    Type
REMARK                         _______ _______ _______ _____ _____    ______ ____
ROOT
ATOM      1  C   UNL     1       1.548   8.396  19.860  0.00  0.00    +0.000 A 
ATOM      2  C   UNL     1       1.745   7.015  20.087  0.00  0.00    +0.000 A 
ATOM      3  C   UNL     1       2.448   6.204  19.182  0.00  0.00    +0.000 A 
ATOM      4  C   UNL     1       2.983   6.833  18.065  0.00  0.00    +0.000 A 
ATOM      5  N   UNL     1       2.836   8.144  17.796  0.00  0.00    +0.000 NA
ATOM      6  C   UNL     1       2.117   8.881  18.674  0.00  0.00    +0.000 A 
ATOM      7 CL   UNL     1       1.923  10.493  18.083  0.00  0.00    +0.000 Cl
ENDROOT
BRANCH   3   8
ATOM      8  C   UNL     1       2.597   4.714  19.416  0.00  0.00    +0.000 C 
ATOM      9  C   UNL     1       1.353   4.065  20.069  0.00  0.00    +0.000 C 
ATOM     10  C   UNL     1       0.988   2.946  19.085  0.00  0.00    +0.000 C 
ATOM     11  C   UNL     1       2.030   1.825  19.131  0.00  0.00    +0.000 C 
ATOM     12  C   UNL     1       3.244   2.473  18.455  0.00  0.00    +0.000 C 
ATOM     13  C   UNL     1       2.735   3.881  18.118  0.00  0.00    +0.000 C 
ATOM     14  N   UNL     1       1.319   3.591  17.803  0.00  0.00    +0.000 NA
ATOM     15  H   UNL     1       1.257   2.917  17.038  0.00  0.00    +0.000 HD
ENDBRANCH   3   8
BRANCH   1  20
ATOM     16  F   UNL     1      -1.535  11.366  23.556  0.00  0.00    +0.000 F 
ATOM     17  C   UNL     1      -0.788  10.681  22.681  0.00  0.00    +0.000 A 
ATOM     18  C   UNL     1      -0.822  11.017  21.337  0.00  0.00    +0.000 A 
ATOM     19  C   UNL     1      -0.033  10.303  20.424  0.00  0.00    +0.000 A 
ATOM     20  C   UNL     1       0.756   9.207  20.827  0.00  0.00    +0.000 A 
ATOM     21  C   UNL     1       0.772   8.909  22.206  0.00  0.00    +0.000 A 
ATOM     22  C   UNL     1       0.017   9.645  23.128  0.00  0.00    +0.000 A 
ENDBRANCH   1  20
TORSDOF 2
ENDMDL
MODEL 2
REMARK VINA RESULT:      -7.8      0.075      1.052
REMARK  Name = 
REMARK  2 active torsions:
REMARK  status: ('A' for Active; 'I' for Inactive)
REMARK    1  A    between atoms: C_5  and  C_6
REMARK    2  A    between atoms: C_8  and  C_9
REMARK                            x       y       z     vdW  Elec       q    Type
REMARK                         _______ _______ _______ _____ _____    ______ ____
ROOT
ATOM      1  C   UNL     1       1.548   8.372  19.827  0.00  0.00    +0.000 A 
ATOM      2  C   UNL     1       1.753   6.990  20.038  0.00  0.00    +0.000 A 
ATOM      3  C   UNL     1       2.468   6.195  19.127  0.00  0.00    +0.000 A 
ATOM      4  C   UNL     1       3.005   6.842  18.021  0.00  0.00    +0.000 A 
ATOM      5  N   UNL     1       2.851   8.155  17.768  0.00  0.00    +0.000 NA
ATOM      6  C   UNL     1       2.121   8.876  18.651  0.00  0.00    +0.000 A 
ATOM      7 CL   UNL     1       1.920  10.494  18.078  0.00  0.00    +0.000 Cl
ENDROOT
BRANCH   3   8
ATOM      8  C   UNL     1       2.625   4.704  19.343  0.00  0.00    +0.000 C 
ATOM      9  C   UNL     1       1.402   4.048  20.030  0.00  0.00    +0.000 C 
ATOM     10  C   UNL     1       1.008   2.936  19.048  0.00  0.00    +0.000 C 
ATOM     11  C   UNL     1       2.052   1.817  19.051  0.00  0.00    +0.000 C 
ATOM     12  C   UNL     1       3.243   2.472  18.343  0.00  0.00    +0.000 C 
ATOM     13  C   UNL     1       2.723   3.882  18.035  0.00  0.00    +0.000 C 
ATOM     14  N   UNL     1       1.298   3.592  17.762  0.00  0.00    +0.000 NA
ATOM     15  H   UNL     1       1.212   2.925  16.993  0.00  0.00    +0.000 HD
ENDBRANCH   3   8
BRANCH   1  20
ATOM     16  F   UNL     1      -1.422  11.496  23.489  0.00  0.00    +0.000 F 
ATOM     17  C   UNL     1      -0.736  10.738  22.623  0.00  0.00    +0.000 A 
ATOM     18  C   UNL     1       0.032   9.684  23.090  0.00  0.00    +0.000 A 
ATOM     19  C   UNL     1       0.743   8.888  22.181  0.00  0.00    +0.000 A 
ATOM     20  C   UNL     1       0.746   9.166  20.799  0.00  0.00    +0.000 A 
ATOM     21  C   UNL     1      -0.061  10.240  20.365  0.00  0.00    +0.000 A 
ATOM     22  C   UNL     1      -0.805  11.012  21.266  0.00  0.00    +0.000 A 
ENDBRANCH   1  20
TORSDOF 2
ENDMDL
MODEL 3
REMARK VINA RESULT:      -7.8      5.659      8.031
REMARK  Name = 
REMARK  2 active torsions:
REMARK  status: ('A' for Active; 'I' for Inactive)
REMARK    1  A    between atoms: C_5  and  C_6
REMARK    2  A    between atoms: C_8  and  C_9
REMARK                            x       y       z     vdW  Elec       q    Type
REMARK                         _______ _______ _______ _____ _____    ______ ____
ROOT
ATOM      1  C   UNL     1       5.442   5.228  16.219  0.00  0.00    +0.000 A 
ATOM      2  C   UNL     1       4.209   4.691  16.656  0.00  0.00    +0.000 A 
ATOM      3  C   UNL     1       3.670   4.993  17.917  0.00  0.00    +0.000 A 
ATOM      4  C   UNL     1       4.386   5.885  18.705  0.00  0.00    +0.000 A 
ATOM      5  N   UNL     1       5.560   6.436  18.344  0.00  0.00    +0.000 NA
ATOM      6  C   UNL     1       6.064   6.086  17.137  0.00  0.00    +0.000 A 
ATOM      7 CL   UNL     1       7.632   6.780  16.922  0.00  0.00    +0.000 Cl
ENDROOT
BRANCH   3   8
ATOM      8  C   UNL     1       2.377   4.359  18.389  0.00  0.00    +0.000 C 
ATOM      9  C   UNL     1       2.077   2.997  17.717  0.00  0.00    +0.000 C 
ATOM     10  C   UNL     1       1.908   2.050  18.912  0.00  0.00    +0.000 C 
ATOM     11  C   UNL     1       0.613   2.359  19.668  0.00  0.00    +0.000 C 
ATOM     12  C   UNL     1       0.936   3.693  20.350  0.00  0.00    +0.000 C 
ATOM     13  C   UNL     1       2.373   3.972  19.888  0.00  0.00    +0.000 C 
ATOM     14  N   UNL     1       2.914   2.596  19.837  0.00  0.00    +0.000 NA
ATOM     15  H   UNL     1       2.836   2.150  20.754  0.00  0.00    +0.000 HD
ENDBRANCH   3   8
BRANCH   1  20
ATOM     16  F   UNL     1       7.566   3.640  11.224  0.00  0.00    +0.000 F 
ATOM     17  C   UNL     1       7.055   4.038  12.397  0.00  0.00    +0.000 A 
ATOM     18  C   UNL     1       7.748   4.950  13.175  0.00  0.00    +0.000 A 
ATOM     19  C   UNL     1       7.207   5.370  14.399  0.00  0.00    +0.000 A 
ATOM     20  C   UNL     1       5.996   4.844  14.892  0.00  0.00    +0.000 A 
ATOM     21  C   UNL     1       5.316   3.928  14.060  0.00  0.00    +0.000 A 
ATOM     22  C   UNL     1       5.833   3.537  12.819  0.00  0.00    +0.000 A 
ENDBRANCH   1  20
TORSDOF 2
ENDMDL
MODEL 4
REMARK VINA RESULT:      -7.7      3.288      4.517
REMARK  Name = 
REMARK  2 active torsions:
REMARK  status: ('A' for Active; 'I' for Inactive)
REMARK    1  A    between atoms: C_5  and  C_6
REMARK    2  A    between atoms: C_8  and  C_9
REMARK                            x       y       z     vdW  Elec       q    Type
REMARK                         _______ _______ _______ _____ _____    ______ ____
ROOT
ATOM      1  C   UNL     1       2.653   6.281  19.072  0.00  0.00    +0.000 A 
ATOM      2  C   UNL     1       3.376   6.287  17.857  0.00  0.00    +0.000 A 
ATOM      3  C   UNL     1       4.048   5.148  17.385  0.00  0.00    +0.000 A 
ATOM      4  C   UNL     1       3.935   3.994  18.150  0.00  0.00    +0.000 A 
ATOM      5  N   UNL     1       3.258   3.923  19.311  0.00  0.00    +0.000 NA
ATOM      6  C   UNL     1       2.658   5.054  19.750  0.00  0.00    +0.000 A 
ATOM      7 CL   UNL     1       1.969   4.796  21.313  0.00  0.00    +0.000 Cl
ENDROOT
BRANCH   3   8
ATOM      8  C   UNL     1       4.866   5.193  16.110  0.00  0.00    +0.000 C 
ATOM      9  C   UNL     1       6.063   6.173  16.179  0.00  0.00    +0.000 C 
ATOM     10  C   UNL     1       7.262   5.280  15.831  0.00  0.00    +0.000 C 
ATOM     11  C   UNL     1       7.225   4.877  14.355  0.00  0.00    +0.000 C 
ATOM     12  C   UNL     1       6.056   3.887  14.310  0.00  0.00    +0.000 C 
ATOM     13  C   UNL     1       5.576   3.861  15.767  0.00  0.00    +0.000 C 
ATOM     14  N   UNL     1       6.862   4.021  16.480  0.00  0.00    +0.000 NA
ATOM     15  H   UNL     1       7.504   3.268  16.226  0.00  0.00    +0.000 HD
ENDBRANCH   3   8
BRANCH   1  20
ATOM     16  F   UNL     1       0.263  11.076  20.883  0.00  0.00    +0.000 F 
ATOM     17  C   UNL     1       0.806   9.930  20.453  0.00  0.00    +0.000 A 
ATOM     18  C   UNL     1       1.011   8.890  21.345  0.00  0.00    +0.000 A 
ATOM     19  C   UNL     1       1.573   7.688  20.891  0.00  0.00    +0.000 A 
ATOM     20  C   UNL     1       1.993   7.526  19.555  0.00  0.00    +0.000 A 
ATOM     21  C   UNL     1       1.752   8.605  18.678  0.00  0.00    +0.000 A 
ATOM     22  C   UNL     1       1.154   9.793  19.119  0.00  0.00    +0.000 A 
ENDBRANCH   1  20
TORSDOF 2
ENDMDL
MODEL 5
REMARK VINA RESULT:      -7.7      5.643      8.050
REMARK  Name = 
REMARK  2 active torsions:
REMARK  status: ('A' for Active; 'I' for Inactive)
REMARK    1  A    between atoms: C_5  and  C_6
REMARK    2  A    between atoms: C_8  and  C_9
REMARK                            x       y       z     vdW  Elec       q    Type
REMARK                         _______ _______ _______ _____ _____    ______ ____
ROOT
ATOM      1  C   UNL     1       5.459   5.216  16.186  0.00  0.00    +0.000 A 
ATOM      2  C   UNL     1       4.225   4.681  16.620  0.00  0.00    +0.000 A 
ATOM      3  C   UNL     1       3.673   5.002  17.870  0.00  0.00    +0.000 A 
ATOM      4  C   UNL     1       4.377   5.909  18.650  0.00  0.00    +0.000 A 
ATOM      5  N   UNL     1       5.552   6.459  18.291  0.00  0.00    +0.000 NA
ATOM      6  C   UNL     1       6.069   6.092  17.095  0.00  0.00    +0.000 A 
ATOM      7 CL   UNL     1       7.636   6.789  16.883  0.00  0.00    +0.000 Cl
ENDROOT
BRANCH   3   8
ATOM      8  C   UNL     1       2.378   4.369  18.340  0.00  0.00    +0.000 C 
ATOM      9  C   UNL     1       2.105   2.981  17.711  0.00  0.00    +0.000 C 
ATOM     10  C   UNL     1       1.923   2.075  18.936  0.00  0.00    +0.000 C 
ATOM     11  C   UNL     1       0.611   2.396  19.656  0.00  0.00    +0.000 C 
ATOM     12  C   UNL     1       0.908   3.756  20.297  0.00  0.00    +0.000 C 
ATOM     13  C   UNL     1       2.350   4.035  19.852  0.00  0.00    +0.000 C 
ATOM     14  N   UNL     1       2.907   2.664  19.860  0.00  0.00    +0.000 NA
ATOM     15  H   UNL     1       2.816   2.250  20.790  0.00  0.00    +0.000 HD
ENDBRANCH   3   8
BRANCH   1  20
ATOM     16  F   UNL     1       7.598   3.809  11.143  0.00  0.00    +0.000 F 
ATOM     17  C   UNL     1       7.101   4.121  12.347  0.00  0.00    +0.000 A 
ATOM     18  C   UNL     1       5.920   3.536  12.775  0.00  0.00    +0.000 A 
ATOM     19  C   UNL     1       5.406   3.859  14.039  0.00  0.00    +0.000 A 
ATOM     20  C   UNL     1       6.028   4.812  14.870  0.00  0.00    +0.000 A 
ATOM     21  C   UNL     1       7.235   5.372  14.400  0.00  0.00    +0.000 A 
ATOM     22  C   UNL     1       7.774   5.022  13.156  0.00  0.00    +0.000 A 
ENDBRANCH   1  20
TORSDOF 2
ENDMDL
MODEL 6
REMARK VINA RESULT:      -7.7      3.251      4.374
REMARK  Name = 
REMARK  2 active torsions:
REMARK  status: ('A' for Active; 'I' for Inactive)
REMARK    1  A    between atoms: C_5  and  C_6
REMARK    2  A    between atoms: C_8  and  C_9
REMARK                            x       y       z     vdW  Elec       q    Type
REMARK                         _______ _______ _______ _____ _____    ______ ____
ROOT
ATOM      1  C   UNL     1       2.589   6.317  19.019  0.00  0.00    +0.000 A 
ATOM      2  C   UNL     1       3.335   6.298  17.818  0.00  0.00    +0.000 A 
ATOM      3  C   UNL     1       3.970   5.134  17.355  0.00  0.00    +0.000 A 
ATOM      4  C   UNL     1       3.795   3.983  18.112  0.00  0.00    +0.000 A 
ATOM      5  N   UNL     1       3.092   3.935  19.259  0.00  0.00    +0.000 NA
ATOM      6  C   UNL     1       2.530   5.088  19.691  0.00  0.00    +0.000 A 
ATOM      7 CL   UNL     1       1.800   4.853  21.239  0.00  0.00    +0.000 Cl
ENDROOT
BRANCH   3   8
ATOM      8  C   UNL     1       4.814   5.150  16.096  0.00  0.00    +0.000 C 
ATOM      9  C   UNL     1       5.963   6.187  16.137  0.00  0.00    +0.000 C 
ATOM     10  C   UNL     1       7.209   5.334  15.862  0.00  0.00    +0.000 C 
ATOM     11  C   UNL     1       7.225   4.853  14.409  0.00  0.00    +0.000 C 
ATOM     12  C   UNL     1       6.103   3.809  14.393  0.00  0.00    +0.000 C 
ATOM     13  C   UNL     1       5.591   3.837  15.839  0.00  0.00    +0.000 C 
ATOM     14  N   UNL     1       6.852   4.093  16.569  0.00  0.00    +0.000 NA
ATOM     15  H   UNL     1       7.533   3.359  16.369  0.00  0.00    +0.000 HD
ENDBRANCH   3   8
BRANCH   1  20
ATOM     16  F   UNL     1       0.125  11.067  20.850  0.00  0.00    +0.000 F 
ATOM     17  C   UNL     1       0.731   9.954  20.417  0.00  0.00    +0.000 A 
ATOM     18  C   UNL     1       1.093   9.842  19.085  0.00  0.00    +0.000 A 
ATOM     19  C   UNL     1       1.735   8.679  18.636  0.00  0.00    +0.000 A 
ATOM     20  C   UNL     1       1.971   7.586  19.494  0.00  0.00    +0.000 A 
ATOM     21  C   UNL     1       1.598   7.748  20.846  0.00  0.00    +0.000 A 
ATOM     22  C   UNL     1       0.994   8.925  21.307  0.00  0.00    +0.000 A 
ENDBRANCH   1  20
TORSDOF 2
ENDMDL
MODEL 7
REMARK VINA RESULT:      -7.7      5.685      7.999
REMARK  Name = 
REMARK  2 active torsions:
REMARK  status: ('A' for Active; 'I' for Inactive)
REMARK    1  A    between atoms: C_5  and  C_6
REMARK    2  A    between atoms: C_8  and  C_9
REMARK                            x       y       z     vdW  Elec       q    Type
REMARK                         _______ _______ _______ _____ _____    ______ ____
ROOT
ATOM      1  C   UNL     1       5.658   4.941  16.626  0.00  0.00    +0.000 A 
ATOM      2  C   UNL     1       4.616   4.174  17.193  0.00  0.00    +0.000 A 
ATOM      3  C   UNL     1       4.206   4.343  18.526  0.00  0.00    +0.000 A 
ATOM      4  C   UNL     1       4.847   5.336  19.255  0.00  0.00    +0.000 A 
ATOM      5  N   UNL     1       5.841   6.104  18.771  0.00  0.00    +0.000 NA
ATOM      6  C   UNL     1       6.232   5.881  17.494  0.00  0.00    +0.000 A 
ATOM      7 CL   UNL     1       7.604   6.859  17.110  0.00  0.00    +0.000 Cl
ENDROOT
BRANCH   3   8
ATOM      8  C   UNL     1       3.127   3.469  19.131  0.00  0.00    +0.000 C 
ATOM      9  C   UNL     1       3.588   2.704  20.396  0.00  0.00    +0.000 C 
ATOM     10  C   UNL     1       2.557   3.125  21.452  0.00  0.00    +0.000 C 
ATOM     11  C   UNL     1       1.191   2.506  21.149  0.00  0.00    +0.000 C 
ATOM     12  C   UNL     1       0.735   3.292  19.915  0.00  0.00    +0.000 C 
ATOM     13  C   UNL     1       1.907   4.253  19.672  0.00  0.00    +0.000 C 
ATOM     14  N   UNL     1       2.327   4.527  21.064  0.00  0.00    +0.000 NA
ATOM     15  H   UNL     1       1.551   4.922  21.598  0.00  0.00    +0.000 HD
ENDBRANCH   3   8
BRANCH   1  20
ATOM     16  F   UNL     1       7.311   3.875  11.323  0.00  0.00    +0.000 F 
ATOM     17  C   UNL     1       6.911   4.150  12.572  0.00  0.00    +0.000 A 
ATOM     18  C   UNL     1       7.693   4.957  13.381  0.00  0.00    +0.000 A 
ATOM     19  C   UNL     1       7.269   5.249  14.686  0.00  0.00    +0.000 A 
ATOM     20  C   UNL     1       6.089   4.695  15.222  0.00  0.00    +0.000 A 
ATOM     21  C   UNL     1       5.316   3.891  14.357  0.00  0.00    +0.000 A 
ATOM     22  C   UNL     1       5.715   3.629  13.041  0.00  0.00    +0.000 A 
ENDBRANCH   1  20
TORSDOF 2
ENDMDL
MODEL 8
REMARK VINA RESULT:      -7.7      5.669      7.982
REMARK  Name = 
REMARK  2 active torsions:
REMARK  status: ('A' for Active; 'I' for Inactive)
REMARK    1  A    between atoms: C_5  and  C_6
REMARK    2  A    between atoms: C_8  and  C_9
REMARK                            x       y       z     vdW  Elec       q    Type
REMARK                         _______ _______ _______ _____ _____    ______ ____
ROOT
ATOM      1  C   UNL     1       5.648   4.899  16.659  0.00  0.00    +0.000 A 
ATOM      2  C   UNL     1       4.600   4.143  17.232  0.00  0.00    +0.000 A 
ATOM      3  C   UNL     1       4.189   4.328  18.561  0.00  0.00    +0.000 A 
ATOM      4  C   UNL     1       4.833   5.326  19.281  0.00  0.00    +0.000 A 
ATOM      5  N   UNL     1       5.831   6.084  18.791  0.00  0.00    +0.000 NA
ATOM      6  C   UNL     1       6.225   5.845  17.518  0.00  0.00    +0.000 A 
ATOM      7 CL   UNL     1       7.601   6.813  17.127  0.00  0.00    +0.000 Cl
ENDROOT
BRANCH   3   8
ATOM      8  C   UNL     1       3.104   3.465  19.173  0.00  0.00    +0.000 C 
ATOM      9  C   UNL     1       3.555   2.721  20.453  0.00  0.00    +0.000 C 
ATOM     10  C   UNL     1       2.518   3.161  21.495  0.00  0.00    +0.000 C 
ATOM     11  C   UNL     1       1.152   2.538  21.193  0.00  0.00    +0.000 C 
ATOM     12  C   UNL     1       0.707   3.305  19.943  0.00  0.00    +0.000 C 
ATOM     13  C   UNL     1       1.881   4.260  19.693  0.00  0.00    +0.000 C 
ATOM     14  N   UNL     1       2.292   4.556  21.083  0.00  0.00    +0.000 NA
ATOM     15  H   UNL     1       1.512   4.961  21.604  0.00  0.00    +0.000 HD
ENDBRANCH   3   8
BRANCH   1  20
ATOM     16  F   UNL     1       7.273   4.034  11.311  0.00  0.00    +0.000 F 
ATOM     17  C   UNL     1       6.897   4.216  12.584  0.00  0.00    +0.000 A 
ATOM     18  C   UNL     1       5.720   3.647  13.040  0.00  0.00    +0.000 A 
ATOM     19  C   UNL     1       5.332   3.833  14.375  0.00  0.00    +0.000 A 
ATOM     20  C   UNL     1       6.081   4.636  15.258  0.00  0.00    +0.000 A 
ATOM     21  C   UNL     1       7.280   5.185  14.755  0.00  0.00    +0.000 A 
ATOM     22  C   UNL     1       7.692   4.968  13.434  0.00  0.00    +0.000 A 
ENDBRANCH   1  20
TORSDOF 2
ENDMDL
MODEL 9
REMARK VINA RESULT:      -7.6      5.777      8.176
REMARK  Name = 
REMARK  2 active torsions:
REMARK  status: ('A' for Active; 'I' for Inactive)
REMARK    1  A    between atoms: C_5  and  C_6
REMARK    2  A    between atoms: C_8  and  C_9
REMARK                            x       y       z     vdW  Elec       q    Type
REMARK                         _______ _______ _______ _____ _____    ______ ____
ROOT
ATOM      1  C   UNL     1       5.826   4.503  16.681  0.00  0.00    +0.000 A 
ATOM      2  C   UNL     1       4.458   4.471  17.035  0.00  0.00    +0.000 A 
ATOM      3  C   UNL     1       4.036   4.458  18.375  0.00  0.00    +0.000 A 
ATOM      4  C   UNL     1       5.028   4.522  19.344  0.00  0.00    +0.000 A 
ATOM      5  N   UNL     1       6.346   4.562  19.071  0.00  0.00    +0.000 NA
ATOM      6  C   UNL     1       6.711   4.532  17.768  0.00  0.00    +0.000 A 
ATOM      7 CL   UNL     1       8.432   4.445  17.633  0.00  0.00    +0.000 Cl
ENDROOT
BRANCH   3   8
ATOM      8  C   UNL     1       2.566   4.363  18.732  0.00  0.00    +0.000 C 
ATOM      9  C   UNL     1       1.754   3.462  17.770  0.00  0.00    +0.000 C 
ATOM     10  C   UNL     1       1.108   2.439  18.714  0.00  0.00    +0.000 C 
ATOM     11  C   UNL     1       0.024   3.102  19.569  0.00  0.00    +0.000 C 
ATOM     12  C   UNL     1       0.845   3.967  20.533  0.00  0.00    +0.000 C 
ATOM     13  C   UNL     1       2.289   3.687  20.096  0.00  0.00    +0.000 C 
ATOM     14  N   UNL     1       2.184   2.264  19.704  0.00  0.00    +0.000 NA
ATOM     15  H   UNL     1       1.856   1.702  20.492  0.00  0.00    +0.000 HD
ENDBRANCH   3   8
BRANCH   1  20
ATOM     16  F   UNL     1       7.393   4.249  11.253  0.00  0.00    +0.000 F 
ATOM     17  C   UNL     1       7.009   4.331  12.534  0.00  0.00    +0.000 A 
ATOM     18  C   UNL     1       7.692   5.166  13.403  0.00  0.00    +0.000 A 
ATOM     19  C   UNL     1       7.284   5.256  14.742  0.00  0.00    +0.000 A 
ATOM     20  C   UNL     1       6.228   4.471  15.248  0.00  0.00    +0.000 A 
ATOM     21  C   UNL     1       5.552   3.645  14.324  0.00  0.00    +0.000 A 
ATOM     22  C   UNL     1       5.930   3.583  12.977  0.00  0.00    +0.000 A 
ENDBRANCH   1  20
TORSDOF 2
ENDMDL
