MODEL 1
REMARK VINA RESULT:      -8.7      0.000      0.000
REMARK  Name = 
REMARK  4 active torsions:
REMARK  status: ('A' for Active; 'I' for Inactive)
REMARK    1  A    between atoms: N_2  and  C_4
REMARK    2  A    between atoms: C_7  and  N_8
REMARK    3  A    between atoms: N_8  and  N_9
REMARK    4  A    between atoms: C_15  and  C_16
REMARK                            x       y       z     vdW  Elec       q    Type
REMARK                         _______ _______ _______ _____ _____    ______ ____
ROOT
ATOM      1  N   UNL     1       3.752   3.147  17.687  0.00  0.00    +0.000 NA
ATOM      2  C   UNL     1       2.890   3.724  18.478  0.00  0.00    +0.000 C 
ATOM      3  C   UNL     1       1.429   3.334  18.319  0.00  0.00    +0.000 C 
ATOM      4  C   UNL     1       0.868   2.862  19.651  0.00  0.00    +0.000 C 
ATOM      5  C   UNL     1       1.094   3.875  20.772  0.00  0.00    +0.000 C 
ATOM      6  C   UNL     1       2.559   4.293  20.893  0.00  0.00    +0.000 C 
ATOM      7  C   UNL     1       3.212   4.744  19.573  0.00  0.00    +0.000 C 
ENDROOT
BRANCH   7   8
ATOM      8  C   UNL     1       2.829   6.158  19.170  0.00  0.00    +0.000 A 
ATOM      9  C   UNL     1       3.210   6.668  17.931  0.00  0.00    +0.000 A 
ATOM     10  C   UNL     1       2.847   7.970  17.590  0.00  0.00    +0.000 A 
ATOM     11  C   UNL     1       2.121   8.736  18.492  0.00  0.00    +0.000 A 
ATOM     12  C   UNL     1       1.791   8.164  19.706  0.00  0.00    +0.000 A 
ATOM     13  N   UNL     1       2.129   6.905  20.059  0.00  0.00    +0.000 NA
ENDBRANCH   7   8
BRANCH   1  14
ATOM     14  N   UNL     1       5.044   3.563  17.765  0.00  0.00    +0.000 N 
ATOM     15  H   UNL     1       5.260   4.150  18.572  0.00  0.00    +0.000 HD
BRANCH  14  19
ATOM     16  C   UNL     1       7.062   4.891  14.293  0.00  0.00    +0.000 A 
ATOM     17  C   UNL     1       7.572   5.177  15.564  0.00  0.00    +0.000 A 
ATOM     18  C   UNL     1       6.868   4.761  16.698  0.00  0.00    +0.000 A 
ATOM     19  C   UNL     1       5.640   4.086  16.589  0.00  0.00    +0.000 A 
ATOM     20  C   UNL     1       5.135   3.830  15.305  0.00  0.00    +0.000 A 
ATOM     21  C   UNL     1       5.835   4.230  14.157  0.00  0.00    +0.000 A 
BRANCH  16  23
ATOM     22  O   UNL     1       7.480   4.786  12.012  0.00  0.00    +0.000 OA
ATOM     23  N   UNL     1       7.845   5.249  13.103  0.00  0.00    +0.000 N 
ATOM     24  O   UNL     1       8.814   6.008  13.253  0.00  0.00    +0.000 OA
ENDBRANCH  16  23
ENDBRANCH  14  19
ENDBRANCH   1  14
TORSDOF 4
ENDMDL
MODEL 2
REMARK VINA RESULT:      -8.6      0.224      1.032
REMARK  Name = 
REMARK  4 active torsions:
REMARK  status: ('A' for Active; 'I' for Inactive)
REMARK    1  A    between atoms: N_2  and  C_4
REMARK    2  A    between atoms: C_7  and  N_8
REMARK    3  A    between atoms: N_8  and  N_9
REMARK    4  A    between atoms: C_15  and  C_16
REMARK                            x       y       z     vdW  Elec       q    Type
REMARK                         _______ _______ _______ _____ _____    ______ ____
ROOT
ATOM      1  N   UNL     1       3.798   3.402  17.681  0.00  0.00    +0.000 NA
ATOM      2  C   UNL     1       2.873   3.900  18.455  0.00  0.00    +0.000 C 
ATOM      3  C   UNL     1       1.441   3.456  18.204  0.00  0.00    +0.000 C 
ATOM      4  C   UNL     1       0.839   2.892  19.481  0.00  0.00    +0.000 C 
ATOM      5  C   UNL     1       0.964   3.855  20.660  0.00  0.00    +0.000 C 
ATOM      6  C   UNL     1       2.402   4.327  20.876  0.00  0.00    +0.000 C 
ATOM      7  C   UNL     1       3.097   4.874  19.615  0.00  0.00    +0.000 C 
ENDROOT
BRANCH   7   8
ATOM      8  C   UNL     1       2.670   6.289  19.264  0.00  0.00    +0.000 A 
ATOM      9  C   UNL     1       2.952   6.822  18.007  0.00  0.00    +0.000 A 
ATOM     10  C   UNL     1       2.551   8.124  17.715  0.00  0.00    +0.000 A 
ATOM     11  C   UNL     1       1.887   8.869  18.681  0.00  0.00    +0.000 A 
ATOM     12  C   UNL     1       1.654   8.275  19.907  0.00  0.00    +0.000 A 
ATOM     13  N   UNL     1       2.031   7.014  20.214  0.00  0.00    +0.000 NA
ENDBRANCH   7   8
BRANCH   1  14
ATOM     14  N   UNL     1       5.065   3.868  17.844  0.00  0.00    +0.000 N 
ATOM     15  H   UNL     1       5.156   4.648  18.496  0.00  0.00    +0.000 HD
BRANCH  14  19
ATOM     16  C   UNL     1       7.158   4.771  14.282  0.00  0.00    +0.000 A 
ATOM     17  C   UNL     1       5.951   4.066  14.237  0.00  0.00    +0.000 A 
ATOM     18  C   UNL     1       5.295   3.746  15.429  0.00  0.00    +0.000 A 
ATOM     19  C   UNL     1       5.840   4.091  16.678  0.00  0.00    +0.000 A 
ATOM     20  C   UNL     1       7.064   4.777  16.701  0.00  0.00    +0.000 A 
ATOM     21  C   UNL     1       7.728   5.117  15.513  0.00  0.00    +0.000 A 
BRANCH  16  23
ATOM     22  O   UNL     1       7.378   4.689  11.972  0.00  0.00    +0.000 OA
ATOM     23  N   UNL     1       7.800   5.186  13.027  0.00  0.00    +0.000 N 
ATOM     24  O   UNL     1       8.715   6.020  13.092  0.00  0.00    +0.000 OA
ENDBRANCH  16  23
ENDBRANCH  14  19
ENDBRANCH   1  14
TORSDOF 4
ENDMDL
MODEL 3
REMARK VINA RESULT:      -8.4      0.603      1.579
REMARK  Name = 
REMARK  4 active torsions:
REMARK  status: ('A' for Active; 'I' for Inactive)
REMARK    1  A    between atoms: N_2  and  C_4
REMARK    2  A    between atoms: C_7  and  N_8
REMARK    3  A    between atoms: N_8  and  N_9
REMARK    4  A    between atoms: C_15  and  C_16
REMARK                            x       y       z     vdW  Elec       q    Type
REMARK                         _______ _______ _______ _____ _____    ______ ____
ROOT
ATOM      1  N   UNL     1       3.767   3.501  17.709  0.00  0.00    +0.000 NA
ATOM      2  C   UNL     1       2.842   3.988  18.490  0.00  0.00    +0.000 C 
ATOM      3  C   UNL     1       1.413   3.532  18.244  0.00  0.00    +0.000 C 
ATOM      4  C   UNL     1       0.822   2.958  19.522  0.00  0.00    +0.000 C 
ATOM      5  C   UNL     1       0.945   3.918  20.704  0.00  0.00    +0.000 C 
ATOM      6  C   UNL     1       2.379   4.403  20.914  0.00  0.00    +0.000 C 
ATOM      7  C   UNL     1       3.063   4.960  19.652  0.00  0.00    +0.000 C 
ENDROOT
BRANCH   7   8
ATOM      8  C   UNL     1       2.622   6.372  19.308  0.00  0.00    +0.000 A 
ATOM      9  C   UNL     1       1.933   7.145  20.241  0.00  0.00    +0.000 A 
ATOM     10  C   UNL     1       1.538   8.436  19.896  0.00  0.00    +0.000 A 
ATOM     11  C   UNL     1       1.830   8.926  18.631  0.00  0.00    +0.000 A 
ATOM     12  C   UNL     1       2.506   8.096  17.757  0.00  0.00    +0.000 A 
ATOM     13  N   UNL     1       2.901   6.842  18.067  0.00  0.00    +0.000 NA
ENDBRANCH   7   8
BRANCH   1  14
ATOM     14  N   UNL     1       5.030   3.978  17.868  0.00  0.00    +0.000 N 
ATOM     15  H   UNL     1       5.113   4.776  18.498  0.00  0.00    +0.000 HD
BRANCH  14  19
ATOM     16  C   UNL     1       7.142   4.798  14.296  0.00  0.00    +0.000 A 
ATOM     17  C   UNL     1       5.934   4.095  14.261  0.00  0.00    +0.000 A 
ATOM     18  C   UNL     1       5.272   3.803  15.457  0.00  0.00    +0.000 A 
ATOM     19  C   UNL     1       5.812   4.174  16.700  0.00  0.00    +0.000 A 
ATOM     20  C   UNL     1       7.038   4.857  16.715  0.00  0.00    +0.000 A 
ATOM     21  C   UNL     1       7.708   5.169  15.522  0.00  0.00    +0.000 A 
BRANCH  16  23
ATOM     22  O   UNL     1       8.715   6.009  13.092  0.00  0.00    +0.000 OA
ATOM     23  N   UNL     1       7.792   5.183  13.036  0.00  0.00    +0.000 N 
ATOM     24  O   UNL     1       7.393   4.647  11.991  0.00  0.00    +0.000 OA
ENDBRANCH  16  23
ENDBRANCH  14  19
ENDBRANCH   1  14
TORSDOF 4
ENDMDL
MODEL 4
REMARK VINA RESULT:      -8.1      5.052      8.057
REMARK  Name = 
REMARK  4 active torsions:
REMARK  status: ('A' for Active; 'I' for Inactive)
REMARK    1  A    between atoms: N_2  and  C_4
REMARK    2  A    between atoms: C_7  and  N_8
REMARK    3  A    between atoms: N_8  and  N_9
REMARK    4  A    between atoms: C_15  and  C_16
REMARK                            x       y       z     vdW  Elec       q    Type
REMARK                         _______ _______ _______ _____ _____    ______ ____
ROOT
ATOM      1  N   UNL     1       1.763   6.343  20.808  0.00  0.00    +0.000 NA
ATOM      2  C   UNL     1       2.029   5.322  20.040  0.00  0.00    +0.000 C 
ATOM      3  C   UNL     1       1.939   3.940  20.664  0.00  0.00    +0.000 C 
ATOM      4  C   UNL     1       0.996   3.063  19.855  0.00  0.00    +0.000 C 
ATOM      5  C   UNL     1       1.365   3.023  18.373  0.00  0.00    +0.000 C 
ATOM      6  C   UNL     1       1.495   4.421  17.767  0.00  0.00    +0.000 C 
ATOM      7  C   UNL     1       2.402   5.383  18.557  0.00  0.00    +0.000 C 
ENDROOT
BRANCH   7   8
ATOM      8  C   UNL     1       3.882   5.132  18.328  0.00  0.00    +0.000 A 
ATOM      9  C   UNL     1       4.331   4.602  17.120  0.00  0.00    +0.000 A 
ATOM     10  C   UNL     1       5.695   4.378  16.940  0.00  0.00    +0.000 A 
ATOM     11  C   UNL     1       6.579   4.680  17.967  0.00  0.00    +0.000 A 
ATOM     12  C   UNL     1       6.057   5.192  19.139  0.00  0.00    +0.000 A 
ATOM     13  N   UNL     1       4.740   5.419  19.338  0.00  0.00    +0.000 NA
ENDBRANCH   7   8
BRANCH   1  14
ATOM     14  N   UNL     1       1.933   7.583  20.277  0.00  0.00    +0.000 N 
ATOM     15  H   UNL     1       2.904   7.885  20.190  0.00  0.00    +0.000 HD
BRANCH  14  19
ATOM     16  C   UNL     1      -0.221  10.812  21.958  0.00  0.00    +0.000 A 
ATOM     17  C   UNL     1       0.071   9.678  22.723  0.00  0.00    +0.000 A 
ATOM     18  C   UNL     1       0.751   8.607  22.136  0.00  0.00    +0.000 A 
ATOM     19  C   UNL     1       1.122   8.633  20.781  0.00  0.00    +0.000 A 
ATOM     20  C   UNL     1       0.799   9.770  20.025  0.00  0.00    +0.000 A 
ATOM     21  C   UNL     1       0.127  10.858  20.603  0.00  0.00    +0.000 A 
BRANCH  16  23
ATOM     22  O   UNL     1      -1.931  11.788  23.188  0.00  0.00    +0.000 OA
ATOM     23  N   UNL     1      -0.856  11.972  22.599  0.00  0.00    +0.000 N 
ATOM     24  O   UNL     1      -0.272  13.064  22.528  0.00  0.00    +0.000 OA
ENDBRANCH  16  23
ENDBRANCH  14  19
ENDBRANCH   1  14
TORSDOF 4
ENDMDL
MODEL 5
REMARK VINA RESULT:      -8.0      5.112      8.147
REMARK  Name = 
REMARK  4 active torsions:
REMARK  status: ('A' for Active; 'I' for Inactive)
REMARK    1  A    between atoms: N_2  and  C_4
REMARK    2  A    between atoms: C_7  and  N_8
REMARK    3  A    between atoms: N_8  and  N_9
REMARK    4  A    between atoms: C_15  and  C_16
REMARK                            x       y       z     vdW  Elec       q    Type
REMARK                         _______ _______ _______ _____ _____    ______ ____
ROOT
ATOM      1  N   UNL     1       1.694   6.344  20.804  0.00  0.00    +0.000 NA
ATOM      2  C   UNL     1       1.977   5.320  20.047  0.00  0.00    +0.000 C 
ATOM      3  C   UNL     1       1.904   3.942  20.684  0.00  0.00    +0.000 C 
ATOM      4  C   UNL     1       0.977   3.044  19.880  0.00  0.00    +0.000 C 
ATOM      5  C   UNL     1       1.349   2.995  18.400  0.00  0.00    +0.000 C 
ATOM      6  C   UNL     1       1.462   4.389  17.781  0.00  0.00    +0.000 C 
ATOM      7  C   UNL     1       2.353   5.371  18.564  0.00  0.00    +0.000 C 
ENDROOT
BRANCH   7   8
ATOM      8  C   UNL     1       3.837   5.138  18.341  0.00  0.00    +0.000 A 
ATOM      9  C   UNL     1       4.300   4.631  17.128  0.00  0.00    +0.000 A 
ATOM     10  C   UNL     1       5.667   4.424  16.954  0.00  0.00    +0.000 A 
ATOM     11  C   UNL     1       6.541   4.720  17.991  0.00  0.00    +0.000 A 
ATOM     12  C   UNL     1       6.006   5.209  19.167  0.00  0.00    +0.000 A 
ATOM     13  N   UNL     1       4.686   5.420  19.360  0.00  0.00    +0.000 NA
ENDBRANCH   7   8
BRANCH   1  14
ATOM     14  N   UNL     1       1.848   7.581  20.261  0.00  0.00    +0.000 N 
ATOM     15  H   UNL     1       2.799   7.806  19.965  0.00  0.00    +0.000 HD
BRANCH  14  19
ATOM     16  C   UNL     1      -0.195  10.766  22.150  0.00  0.00    +0.000 A 
ATOM     17  C   UNL     1       0.109  10.827  20.786  0.00  0.00    +0.000 A 
ATOM     18  C   UNL     1       0.818   9.779  20.192  0.00  0.00    +0.000 A 
ATOM     19  C   UNL     1       1.260   8.677  20.943  0.00  0.00    +0.000 A 
ATOM     20  C   UNL     1       0.965   8.647  22.315  0.00  0.00    +0.000 A 
ATOM     21  C   UNL     1       0.244   9.685  22.923  0.00  0.00    +0.000 A 
BRANCH  16  23
ATOM     22  O   UNL     1      -0.442  12.854  23.134  0.00  0.00    +0.000 OA
ATOM     23  N   UNL     1      -1.017  11.823  22.755  0.00  0.00    +0.000 N 
ATOM     24  O   UNL     1      -2.239  11.632  22.836  0.00  0.00    +0.000 OA
ENDBRANCH  16  23
ENDBRANCH  14  19
ENDBRANCH   1  14
TORSDOF 4
ENDMDL
MODEL 6
REMARK VINA RESULT:      -7.9      5.033      8.120
REMARK  Name = 
REMARK  4 active torsions:
REMARK  status: ('A' for Active; 'I' for Inactive)
REMARK    1  A    between atoms: N_2  and  C_4
REMARK    2  A    between atoms: C_7  and  N_8
REMARK    3  A    between atoms: N_8  and  N_9
REMARK    4  A    between atoms: C_15  and  C_16
REMARK                            x       y       z     vdW  Elec       q    Type
REMARK                         _______ _______ _______ _____ _____    ______ ____
ROOT
ATOM      1  N   UNL     1       1.771   6.329  20.817  0.00  0.00    +0.000 NA
ATOM      2  C   UNL     1       2.032   5.295  20.065  0.00  0.00    +0.000 C 
ATOM      3  C   UNL     1       1.966   3.924  20.720  0.00  0.00    +0.000 C 
ATOM      4  C   UNL     1       1.017   3.023  19.947  0.00  0.00    +0.000 C 
ATOM      5  C   UNL     1       1.358   2.955  18.459  0.00  0.00    +0.000 C 
ATOM      6  C   UNL     1       1.464   4.341  17.822  0.00  0.00    +0.000 C 
ATOM      7  C   UNL     1       2.376   5.327  18.574  0.00  0.00    +0.000 C 
ENDROOT
BRANCH   7   8
ATOM      8  C   UNL     1       3.855   5.084  18.323  0.00  0.00    +0.000 A 
ATOM      9  C   UNL     1       4.797   5.371  19.308  0.00  0.00    +0.000 A 
ATOM     10  C   UNL     1       6.147   5.141  19.047  0.00  0.00    +0.000 A 
ATOM     11  C   UNL     1       6.528   4.638  17.811  0.00  0.00    +0.000 A 
ATOM     12  C   UNL     1       5.537   4.388  16.881  0.00  0.00    +0.000 A 
ATOM     13  N   UNL     1       4.223   4.601  17.110  0.00  0.00    +0.000 NA
ENDBRANCH   7   8
BRANCH   1  14
ATOM     14  N   UNL     1       1.920   7.559  20.257  0.00  0.00    +0.000 N 
ATOM     15  H   UNL     1       2.886   7.864  20.138  0.00  0.00    +0.000 HD
BRANCH  14  19
ATOM     16  C   UNL     1      -0.230  10.772  21.972  0.00  0.00    +0.000 A 
ATOM     17  C   UNL     1      -0.085   9.566  22.664  0.00  0.00    +0.000 A 
ATOM     18  C   UNL     1       0.597   8.504  22.061  0.00  0.00    +0.000 A 
ATOM     19  C   UNL     1       1.116   8.614  20.760  0.00  0.00    +0.000 A 
ATOM     20  C   UNL     1       0.939   9.826  20.074  0.00  0.00    +0.000 A 
ATOM     21  C   UNL     1       0.267  10.904  20.670  0.00  0.00    +0.000 A 
BRANCH  16  23
ATOM     22  O   UNL     1      -0.314  13.021  22.544  0.00  0.00    +0.000 OA
ATOM     23  N   UNL     1      -0.868  11.915  22.639  0.00  0.00    +0.000 N 
ATOM     24  O   UNL     1      -1.932  11.714  23.242  0.00  0.00    +0.000 OA
ENDBRANCH  16  23
ENDBRANCH  14  19
ENDBRANCH   1  14
TORSDOF 4
ENDMDL
MODEL 7
REMARK VINA RESULT:      -7.9      5.015      8.085
REMARK  Name = 
REMARK  4 active torsions:
REMARK  status: ('A' for Active; 'I' for Inactive)
REMARK    1  A    between atoms: N_2  and  C_4
REMARK    2  A    between atoms: C_7  and  N_8
REMARK    3  A    between atoms: N_8  and  N_9
REMARK    4  A    between atoms: C_15  and  C_16
REMARK                            x       y       z     vdW  Elec       q    Type
REMARK                         _______ _______ _______ _____ _____    ______ ____
ROOT
ATOM      1  N   UNL     1       1.802   6.388  20.741  0.00  0.00    +0.000 NA
ATOM      2  C   UNL     1       2.054   5.337  20.011  0.00  0.00    +0.000 C 
ATOM      3  C   UNL     1       1.968   3.980  20.692  0.00  0.00    +0.000 C 
ATOM      4  C   UNL     1       1.012   3.076  19.931  0.00  0.00    +0.000 C 
ATOM      5  C   UNL     1       1.359   2.975  18.447  0.00  0.00    +0.000 C 
ATOM      6  C   UNL     1       1.485   4.347  17.784  0.00  0.00    +0.000 C 
ATOM      7  C   UNL     1       2.405   5.337  18.522  0.00  0.00    +0.000 C 
ENDROOT
BRANCH   7   8
ATOM      8  C   UNL     1       3.882   5.071  18.282  0.00  0.00    +0.000 A 
ATOM      9  C   UNL     1       4.826   5.393  19.254  0.00  0.00    +0.000 A 
ATOM     10  C   UNL     1       6.174   5.141  19.004  0.00  0.00    +0.000 A 
ATOM     11  C   UNL     1       6.552   4.581  17.792  0.00  0.00    +0.000 A 
ATOM     12  C   UNL     1       5.559   4.300  16.873  0.00  0.00    +0.000 A 
ATOM     13  N   UNL     1       4.246   4.533  17.092  0.00  0.00    +0.000 NA
ENDBRANCH   7   8
BRANCH   1  14
ATOM     14  N   UNL     1       1.968   7.606  20.158  0.00  0.00    +0.000 N 
ATOM     15  H   UNL     1       2.935   7.854  19.948  0.00  0.00    +0.000 HD
BRANCH  14  19
ATOM     16  C   UNL     1      -0.373  10.772  21.702  0.00  0.00    +0.000 A 
ATOM     17  C   UNL     1      -0.028  10.739  20.347  0.00  0.00    +0.000 A 
ATOM     18  C   UNL     1       0.778   9.703  19.867  0.00  0.00    +0.000 A 
ATOM     19  C   UNL     1       1.276   8.707  20.724  0.00  0.00    +0.000 A 
ATOM     20  C   UNL     1       0.938   8.772  22.085  0.00  0.00    +0.000 A 
ATOM     21  C   UNL     1       0.120   9.799  22.580  0.00  0.00    +0.000 A 
BRANCH  16  23
ATOM     22  O   UNL     1      -2.212  12.163  21.437  0.00  0.00    +0.000 OA
ATOM     23  N   UNL     1      -1.292  11.810  22.189  0.00  0.00    +0.000 N 
ATOM     24  O   UNL     1      -1.106  12.259  23.330  0.00  0.00    +0.000 OA
ENDBRANCH  16  23
ENDBRANCH  14  19
ENDBRANCH   1  14
TORSDOF 4
ENDMDL
MODEL 8
REMARK VINA RESULT:      -7.7      4.798      7.671
REMARK  Name = 
REMARK  4 active torsions:
REMARK  status: ('A' for Active; 'I' for Inactive)
REMARK    1  A    between atoms: N_2  and  C_4
REMARK    2  A    between atoms: C_7  and  N_8
REMARK    3  A    between atoms: N_8  and  N_9
REMARK    4  A    between atoms: C_15  and  C_16
REMARK                            x       y       z     vdW  Elec       q    Type
REMARK                         _______ _______ _______ _____ _____    ______ ____
ROOT
ATOM      1  N   UNL     1       1.941   6.997  20.188  0.00  0.00    +0.000 NA
ATOM      2  C   UNL     1       2.168   5.810  19.696  0.00  0.00    +0.000 C 
ATOM      3  C   UNL     1       2.100   4.634  20.656  0.00  0.00    +0.000 C 
ATOM      4  C   UNL     1       1.117   3.595  20.138  0.00  0.00    +0.000 C 
ATOM      5  C   UNL     1       1.418   3.173  18.702  0.00  0.00    +0.000 C 
ATOM      6  C   UNL     1       1.527   4.367  17.754  0.00  0.00    +0.000 C 
ATOM      7  C   UNL     1       2.473   5.485  18.232  0.00  0.00    +0.000 C 
ENDROOT
BRANCH   7   8
ATOM      8  C   UNL     1       3.941   5.159  18.012  0.00  0.00    +0.000 A 
ATOM      9  C   UNL     1       4.353   4.491  16.860  0.00  0.00    +0.000 A 
ATOM     10  C   UNL     1       5.705   4.203  16.688  0.00  0.00    +0.000 A 
ATOM     11  C   UNL     1       6.615   4.579  17.666  0.00  0.00    +0.000 A 
ATOM     12  C   UNL     1       6.129   5.228  18.785  0.00  0.00    +0.000 A 
ATOM     13  N   UNL     1       4.824   5.520  18.975  0.00  0.00    +0.000 NA
ENDBRANCH   7   8
BRANCH   1  14
ATOM     14  N   UNL     1       2.093   8.058  19.351  0.00  0.00    +0.000 N 
ATOM     15  H   UNL     1       3.039   8.437  19.304  0.00  0.00    +0.000 HD
BRANCH  14  19
ATOM     16  C   UNL     1      -0.991  10.950  19.475  0.00  0.00    +0.000 A 
ATOM     17  C   UNL     1      -0.454  10.536  18.251  0.00  0.00    +0.000 A 
ATOM     18  C   UNL     1       0.590   9.607  18.237  0.00  0.00    +0.000 A 
ATOM     19  C   UNL     1       1.135   9.101  19.429  0.00  0.00    +0.000 A 
ATOM     20  C   UNL     1       0.598   9.548  20.647  0.00  0.00    +0.000 A 
ATOM     21  C   UNL     1      -0.459  10.470  20.677  0.00  0.00    +0.000 A 
BRANCH  16  23
ATOM     22  O   UNL     1      -2.883  11.866  18.490  0.00  0.00    +0.000 OA
ATOM     23  N   UNL     1      -2.146  11.857  19.487  0.00  0.00    +0.000 N 
ATOM     24  O   UNL     1      -2.330  12.548  20.500  0.00  0.00    +0.000 OA
ENDBRANCH  16  23
ENDBRANCH  14  19
ENDBRANCH   1  14
TORSDOF 4
ENDMDL
MODEL 9
REMARK VINA RESULT:      -7.7      4.584      7.524
REMARK  Name = 
REMARK  4 active torsions:
REMARK  status: ('A' for Active; 'I' for Inactive)
REMARK    1  A    between atoms: N_2  and  C_4
REMARK    2  A    between atoms: C_7  and  N_8
REMARK    3  A    between atoms: N_8  and  N_9
REMARK    4  A    between atoms: C_15  and  C_16
REMARK                            x       y       z     vdW  Elec       q    Type
REMARK                         _______ _______ _______ _____ _____    ______ ____
ROOT
ATOM      1  N   UNL     1       2.390   5.738  19.946  0.00  0.00    +0.000 NA
ATOM      2  C   UNL     1       2.837   4.699  19.296  0.00  0.00    +0.000 C 
ATOM      3  C   UNL     1       3.020   3.411  20.082  0.00  0.00    +0.000 C 
ATOM      4  C   UNL     1       2.253   2.280  19.416  0.00  0.00    +0.000 C 
ATOM      5  C   UNL     1       2.603   2.129  17.937  0.00  0.00    +0.000 C 
ATOM      6  C   UNL     1       2.457   3.441  17.166  0.00  0.00    +0.000 C 
ATOM      7  C   UNL     1       3.172   4.646  17.803  0.00  0.00    +0.000 C 
ENDROOT
BRANCH   7   8
ATOM      8  C   UNL     1       4.671   4.652  17.553  0.00  0.00    +0.000 A 
ATOM      9  C   UNL     1       5.186   4.216  16.333  0.00  0.00    +0.000 A 
ATOM     10  C   UNL     1       6.565   4.229  16.134  0.00  0.00    +0.000 A 
ATOM     11  C   UNL     1       7.400   4.667  17.153  0.00  0.00    +0.000 A 
ATOM     12  C   UNL     1       6.815   5.073  18.337  0.00  0.00    +0.000 A 
ATOM     13  N   UNL     1       5.482   5.071  18.555  0.00  0.00    +0.000 NA
ENDBRANCH   7   8
BRANCH   1  14
ATOM     14  N   UNL     1       2.313   6.913  19.267  0.00  0.00    +0.000 N 
ATOM     15  H   UNL     1       3.162   7.177  18.765  0.00  0.00    +0.000 HD
BRANCH  14  19
ATOM     16  C   UNL     1       0.372  10.172  21.139  0.00  0.00    +0.000 A 
ATOM     17  C   UNL     1       0.685  10.219  19.776  0.00  0.00    +0.000 A 
ATOM     18  C   UNL     1       1.361   9.146  19.187  0.00  0.00    +0.000 A 
ATOM     19  C   UNL     1       1.760   8.031  19.943  0.00  0.00    +0.000 A 
ATOM     20  C   UNL     1       1.457   8.014  21.313  0.00  0.00    +0.000 A 
ATOM     21  C   UNL     1       0.769   9.077  21.916  0.00  0.00    +0.000 A 
BRANCH  16  23
ATOM     22  O   UNL     1      -1.054  11.995  20.973  0.00  0.00    +0.000 OA
ATOM     23  N   UNL     1      -0.415  11.258  21.738  0.00  0.00    +0.000 N 
ATOM     24  O   UNL     1      -0.410  11.364  22.973  0.00  0.00    +0.000 OA
ENDBRANCH  16  23
ENDBRANCH  14  19
ENDBRANCH   1  14
TORSDOF 4
ENDMDL
