MODEL 1
REMARK VINA RESULT:      -8.5      0.000      0.000
REMARK  Name = 
REMARK  5 active torsions:
REMARK  status: ('A' for Active; 'I' for Inactive)
REMARK    1  A    between atoms: C_2  and  C_3
REMARK    2  A    between atoms: C_3  and  C_4
REMARK    3  A    between atoms: C_4  and  C_5
REMARK    4  A    between atoms: C_5  and  C_6
REMARK    5  A    between atoms: N_18  and  C_19
REMARK                            x       y       z     vdW  Elec       q    Type
REMARK                         _______ _______ _______ _____ _____    ______ ____
ROOT
ATOM      1  C   UNL     1       3.185   6.613  18.485  0.00  0.00    +0.000 C 
ATOM      2  C   UNL     1       2.994   6.165  19.971  0.00  0.00    +0.000 C 
ATOM      3  C   UNL     1       1.781   6.766  20.675  0.00  0.00    +0.000 C 
ATOM      4  C   UNL     1       1.799   8.284  20.579  0.00  0.00    +0.000 C 
ATOM      5  N   UNL     1       1.919   8.692  19.181  0.00  0.00    +0.000 N 
ATOM      6  C   UNL     1       0.941   9.300  18.405  0.00  0.00    +0.000 C 
ATOM      7  O   UNL     1       1.124   9.467  17.199  0.00  0.00    +0.000 OA
ATOM      8  N   UNL     1      -0.219   9.674  19.058  0.00  0.00    +0.000 N 
ATOM      9  C   UNL     1       3.135   8.180  18.499  0.00  0.00    +0.000 C 
ATOM     10  H   UNL     1      -0.173   9.770  20.057  0.00  0.00    +0.000 HD
ENDROOT
BRANCH   8  11
ATOM     11  C   UNL     1      -1.397  10.190  18.459  0.00  0.00    +0.000 A 
ATOM     12  C   UNL     1      -1.927   9.703  17.261  0.00  0.00    +0.000 A 
ATOM     13  C   UNL     1      -3.065  10.282  16.689  0.00  0.00    +0.000 A 
ATOM     14  C   UNL     1      -3.697  11.343  17.325  0.00  0.00    +0.000 A 
ATOM     15 CL   UNL     1      -5.081  12.068  16.607  0.00  0.00    +0.000 Cl
ATOM     16  C   UNL     1      -3.209  11.818  18.540  0.00  0.00    +0.000 A 
ATOM     17  C   UNL     1      -2.067  11.239  19.109  0.00  0.00    +0.000 A 
ENDBRANCH   8  11
BRANCH   1  18
ATOM     18  C   UNL     1       4.529   6.081  17.909  0.00  0.00    +0.000 A 
ATOM     19  C   UNL     1       4.730   5.956  16.519  0.00  0.00    +0.000 A 
ATOM     20  C   UNL     1       5.865   5.314  16.004  0.00  0.00    +0.000 A 
ATOM     21  C   UNL     1       6.836   4.799  16.858  0.00  0.00    +0.000 A 
ATOM     22  C   UNL     1       6.682   4.943  18.230  0.00  0.00    +0.000 A 
ATOM     23  C   UNL     1       5.547   5.576  18.744  0.00  0.00    +0.000 A 
ENDBRANCH   1  18
BRANCH   1  24
ATOM     24  C   UNL     1       2.027   6.077  17.572  0.00  0.00    +0.000 C 
BRANCH  24  25
ATOM     25  C   UNL     1       1.318   4.829  18.112  0.00  0.00    +0.000 C 
BRANCH  25  27
ATOM     26  O   UNL     1       2.053   2.828  17.015  0.00  0.00    +0.000 OA
ATOM     27  C   UNL     1       2.157   3.575  17.986  0.00  0.00    +0.000 C 
ATOM     28  N   UNL     1       3.022   3.364  19.035  0.00  0.00    +0.000 N 
ATOM     29  C   UNL     1       3.763   2.237  19.225  0.00  0.00    +0.000 C 
ATOM     30  N   UNL     1       4.575   2.153  20.240  0.00  0.00    +0.000 NA
ATOM     31  N   UNL     1       5.173   0.928  20.115  0.00  0.00    +0.000 N 
ATOM     32  N   UNL     1       4.826   0.379  18.819  0.00  0.00    +0.000 NA
ATOM     33  N   UNL     1       3.748   1.156  18.399  0.00  0.00    +0.000 N 
ATOM     34  H   UNL     1       3.111   4.048  19.772  0.00  0.00    +0.000 HD
ATOM     35  H   UNL     1       6.185   1.003  20.248  0.00  0.00    +0.000 HD
ATOM     36  H   UNL     1       4.516  -0.591  18.944  0.00  0.00    +0.000 HD
ATOM     37  H   UNL     1       3.602   1.356  17.410  0.00  0.00    +0.000 HD
ENDBRANCH  25  27
ENDBRANCH  24  25
ENDBRANCH   1  24
TORSDOF 5
ENDMDL
MODEL 2
REMARK VINA RESULT:      -8.3      0.217      1.219
REMARK  Name = 
REMARK  5 active torsions:
REMARK  status: ('A' for Active; 'I' for Inactive)
REMARK    1  A    between atoms: C_2  and  C_3
REMARK    2  A    between atoms: C_3  and  C_4
REMARK    3  A    between atoms: C_4  and  C_5
REMARK    4  A    between atoms: C_5  and  C_6
REMARK    5  A    between atoms: N_18  and  C_19
REMARK                            x       y       z     vdW  Elec       q    Type
REMARK                         _______ _______ _______ _____ _____    ______ ____
ROOT
ATOM      1  C   UNL     1       3.177   6.406  18.588  0.00  0.00    +0.000 C 
ATOM      2  C   UNL     1       2.923   5.941  20.060  0.00  0.00    +0.000 C 
ATOM      3  C   UNL     1       1.726   6.595  20.745  0.00  0.00    +0.000 C 
ATOM      4  C   UNL     1       1.831   8.110  20.681  0.00  0.00    +0.000 C 
ATOM      5  N   UNL     1       2.009   8.538  19.295  0.00  0.00    +0.000 N 
ATOM      6  C   UNL     1       1.086   9.214  18.508  0.00  0.00    +0.000 C 
ATOM      7  O   UNL     1       1.311   9.393  17.310  0.00  0.00    +0.000 OA
ATOM      8  N   UNL     1      -0.067   9.639  19.139  0.00  0.00    +0.000 N 
ATOM      9  C   UNL     1       3.213   7.973  18.634  0.00  0.00    +0.000 C 
ATOM     10  H   UNL     1      -0.043   9.714  20.140  0.00  0.00    +0.000 HD
ENDROOT
BRANCH   8  11
ATOM     11  C   UNL     1      -1.199  10.231  18.521  0.00  0.00    +0.000 A 
ATOM     12  C   UNL     1      -1.843  11.366  19.022  0.00  0.00    +0.000 A 
ATOM     13  C   UNL     1      -2.986  11.879  18.400  0.00  0.00    +0.000 A 
ATOM     14  C   UNL     1      -3.484  11.271  17.255  0.00  0.00    +0.000 A 
ATOM     15 CL   UNL     1      -4.903  11.890  16.507  0.00  0.00    +0.000 Cl
ATOM     16  C   UNL     1      -2.835  10.162  16.716  0.00  0.00    +0.000 A 
ATOM     17  C   UNL     1      -1.694   9.648  17.343  0.00  0.00    +0.000 A 
ENDBRANCH   8  11
BRANCH   1  18
ATOM     18  C   UNL     1       4.504   5.811  18.036  0.00  0.00    +0.000 A 
ATOM     19  C   UNL     1       5.586   5.520  18.891  0.00  0.00    +0.000 A 
ATOM     20  C   UNL     1       6.839   5.154  18.378  0.00  0.00    +0.000 A 
ATOM     21  C   UNL     1       7.039   5.049  17.004  0.00  0.00    +0.000 A 
ATOM     22  C   UNL     1       5.980   5.293  16.141  0.00  0.00    +0.000 A 
ATOM     23  C   UNL     1       4.733   5.664  16.651  0.00  0.00    +0.000 A 
ENDBRANCH   1  18
BRANCH   1  24
ATOM     24  C   UNL     1       2.015   5.952  17.636  0.00  0.00    +0.000 C 
BRANCH  24  25
ATOM     25  C   UNL     1       1.291   4.677  18.081  0.00  0.00    +0.000 C 
BRANCH  25  27
ATOM     26  O   UNL     1       2.092   2.674  17.033  0.00  0.00    +0.000 OA
ATOM     27  C   UNL     1       2.163   3.442  17.990  0.00  0.00    +0.000 C 
ATOM     28  N   UNL     1       3.019   3.275  19.055  0.00  0.00    +0.000 N 
ATOM     29  C   UNL     1       3.786   2.171  19.277  0.00  0.00    +0.000 C 
ATOM     30  N   UNL     1       4.586   2.129  20.303  0.00  0.00    +0.000 NA
ATOM     31  N   UNL     1       5.217   0.917  20.211  0.00  0.00    +0.000 N 
ATOM     32  N   UNL     1       4.903   0.333  18.922  0.00  0.00    +0.000 NA
ATOM     33  N   UNL     1       3.810   1.074  18.472  0.00  0.00    +0.000 N 
ATOM     34  H   UNL     1       3.080   3.975  19.779  0.00  0.00    +0.000 HD
ATOM     35  H   UNL     1       6.225   1.021  20.356  0.00  0.00    +0.000 HD
ATOM     36  H   UNL     1       4.616  -0.641  19.062  0.00  0.00    +0.000 HD
ATOM     37  H   UNL     1       3.673   1.251  17.478  0.00  0.00    +0.000 HD
ENDBRANCH  25  27
ENDBRANCH  24  25
ENDBRANCH   1  24
TORSDOF 5
ENDMDL
MODEL 3
REMARK VINA RESULT:      -8.3      6.212     11.086
REMARK  Name = 
REMARK  5 active torsions:
REMARK  status: ('A' for Active; 'I' for Inactive)
REMARK    1  A    between atoms: C_2  and  C_3
REMARK    2  A    between atoms: C_3  and  C_4
REMARK    3  A    between atoms: C_4  and  C_5
REMARK    4  A    between atoms: C_5  and  C_6
REMARK    5  A    between atoms: N_18  and  C_19
REMARK                            x       y       z     vdW  Elec       q    Type
REMARK                         _______ _______ _______ _____ _____    ______ ____
ROOT
ATOM      1  C   UNL     1      -4.075  13.745  22.168  0.00  0.00    +0.000 C 
ATOM      2  C   UNL     1      -3.550  15.027  21.442  0.00  0.00    +0.000 C 
ATOM      3  C   UNL     1      -2.198  14.870  20.754  0.00  0.00    +0.000 C 
ATOM      4  C   UNL     1      -1.153  14.351  21.730  0.00  0.00    +0.000 C 
ATOM      5  N   UNL     1      -1.629  13.121  22.359  0.00  0.00    +0.000 N 
ATOM      6  C   UNL     1      -1.138  11.839  22.154  0.00  0.00    +0.000 C 
ATOM      7  O   UNL     1      -1.720  10.869  22.643  0.00  0.00    +0.000 OA
ATOM      8  N   UNL     1      -0.001  11.732  21.375  0.00  0.00    +0.000 N 
ATOM      9  C   UNL     1      -2.907  13.271  23.101  0.00  0.00    +0.000 C 
ATOM     10  H   UNL     1       0.561  12.558  21.266  0.00  0.00    +0.000 HD
ENDROOT
BRANCH   8  11
ATOM     11  C   UNL     1       0.606  10.530  20.926  0.00  0.00    +0.000 A 
ATOM     12  C   UNL     1       0.891  10.268  19.583  0.00  0.00    +0.000 A 
ATOM     13  C   UNL     1       1.445   9.045  19.190  0.00  0.00    +0.000 A 
ATOM     14  C   UNL     1       1.740   8.080  20.144  0.00  0.00    +0.000 A 
ATOM     15 CL   UNL     1       2.398   6.569  19.654  0.00  0.00    +0.000 Cl
ATOM     16  C   UNL     1       1.501   8.335  21.492  0.00  0.00    +0.000 A 
ATOM     17  C   UNL     1       0.942   9.559  21.883  0.00  0.00    +0.000 A 
ENDBRANCH   8  11
BRANCH   1  18
ATOM     18  C   UNL     1      -5.372  14.049  22.972  0.00  0.00    +0.000 A 
ATOM     19  C   UNL     1      -6.069  13.027  23.648  0.00  0.00    +0.000 A 
ATOM     20  C   UNL     1      -7.327  13.261  24.221  0.00  0.00    +0.000 A 
ATOM     21  C   UNL     1      -7.911  14.524  24.154  0.00  0.00    +0.000 A 
ATOM     22  C   UNL     1      -7.229  15.558  23.528  0.00  0.00    +0.000 A 
ATOM     23  C   UNL     1      -5.978  15.323  22.950  0.00  0.00    +0.000 A 
ENDBRANCH   1  18
BRANCH   1  24
ATOM     24  C   UNL     1      -4.402  12.602  21.145  0.00  0.00    +0.000 C 
BRANCH  24  25
ATOM     25  C   UNL     1      -5.583  12.901  20.214  0.00  0.00    +0.000 C 
BRANCH  25  27
ATOM     26  O   UNL     1      -6.321  12.181  18.048  0.00  0.00    +0.000 OA
ATOM     27  C   UNL     1      -5.375  12.370  18.811  0.00  0.00    +0.000 C 
ATOM     28  N   UNL     1      -4.059  12.131  18.485  0.00  0.00    +0.000 N 
ATOM     29  C   UNL     1      -3.633  11.512  17.349  0.00  0.00    +0.000 C 
ATOM     30  N   UNL     1      -2.359  11.362  17.126  0.00  0.00    +0.000 NA
ATOM     31  N   UNL     1      -2.283  10.744  15.907  0.00  0.00    +0.000 N 
ATOM     32  N   UNL     1      -3.604  10.742  15.310  0.00  0.00    +0.000 NA
ATOM     33  N   UNL     1      -4.456  11.041  16.373  0.00  0.00    +0.000 N 
ATOM     34  H   UNL     1      -3.320  12.369  19.130  0.00  0.00    +0.000 HD
ATOM     35  H   UNL     1      -1.587  11.201  15.311  0.00  0.00    +0.000 HD
ATOM     36  H   UNL     1      -3.810   9.798  14.967  0.00  0.00    +0.000 HD
ATOM     37  H   UNL     1      -5.313  11.571  16.222  0.00  0.00    +0.000 HD
ENDBRANCH  25  27
ENDBRANCH  24  25
ENDBRANCH   1  24
TORSDOF 5
ENDMDL
MODEL 4
REMARK VINA RESULT:      -8.2      4.440      9.717
REMARK  Name = 
REMARK  5 active torsions:
REMARK  status: ('A' for Active; 'I' for Inactive)
REMARK    1  A    between atoms: C_2  and  C_3
REMARK    2  A    between atoms: C_3  and  C_4
REMARK    3  A    between atoms: C_4  and  C_5
REMARK    4  A    between atoms: C_5  and  C_6
REMARK    5  A    between atoms: N_18  and  C_19
REMARK                            x       y       z     vdW  Elec       q    Type
REMARK                         _______ _______ _______ _____ _____    ______ ____
ROOT
ATOM      1  C   UNL     1      -1.674  11.869  20.024  0.00  0.00    +0.000 C 
ATOM      2  C   UNL     1      -0.756  12.840  19.211  0.00  0.00    +0.000 C 
ATOM      3  C   UNL     1       0.548  12.226  18.711  0.00  0.00    +0.000 C 
ATOM      4  C   UNL     1       1.326  11.602  19.859  0.00  0.00    +0.000 C 
ATOM      5  N   UNL     1       0.477  10.653  20.576  0.00  0.00    +0.000 N 
ATOM      6  C   UNL     1       0.604   9.270  20.592  0.00  0.00    +0.000 C 
ATOM      7  O   UNL     1      -0.263   8.577  21.125  0.00  0.00    +0.000 OA
ATOM      8  N   UNL     1       1.723   8.748  19.971  0.00  0.00    +0.000 N 
ATOM      9  C   UNL     1      -0.762  11.249  21.139  0.00  0.00    +0.000 C 
ATOM     10  H   UNL     1       2.500   9.368  19.827  0.00  0.00    +0.000 HD
ENDROOT
BRANCH   8  11
ATOM     11  C   UNL     1       2.002   7.375  19.749  0.00  0.00    +0.000 A 
ATOM     12  C   UNL     1       1.787   6.381  20.708  0.00  0.00    +0.000 A 
ATOM     13  C   UNL     1       2.126   5.049  20.453  0.00  0.00    +0.000 A 
ATOM     14  C   UNL     1       2.666   4.694  19.223  0.00  0.00    +0.000 A 
ATOM     15 CL   UNL     1       3.105   3.059  18.922  0.00  0.00    +0.000 Cl
ATOM     16  C   UNL     1       2.852   5.661  18.239  0.00  0.00    +0.000 A 
ATOM     17  C   UNL     1       2.516   6.996  18.498  0.00  0.00    +0.000 A 
ENDBRANCH   8  11
BRANCH   1  18
ATOM     18  C   UNL     1      -2.892  12.625  20.627  0.00  0.00    +0.000 A 
ATOM     19  C   UNL     1      -2.889  13.067  21.965  0.00  0.00    +0.000 A 
ATOM     20  C   UNL     1      -4.047  13.588  22.562  0.00  0.00    +0.000 A 
ATOM     21  C   UNL     1      -5.229  13.700  21.834  0.00  0.00    +0.000 A 
ATOM     22  C   UNL     1      -5.249  13.308  20.503  0.00  0.00    +0.000 A 
ATOM     23  C   UNL     1      -4.098  12.783  19.910  0.00  0.00    +0.000 A 
ENDBRANCH   1  18
BRANCH   1  24
ATOM     24  C   UNL     1      -2.227  10.713  19.120  0.00  0.00    +0.000 C 
BRANCH  24  25
ATOM     25  C   UNL     1      -1.730  10.747  17.670  0.00  0.00    +0.000 C 
BRANCH  25  27
ATOM     26  O   UNL     1      -4.024  10.554  17.001  0.00  0.00    +0.000 OA
ATOM     27  C   UNL     1      -2.843  10.560  16.661  0.00  0.00    +0.000 C 
ATOM     28  N   UNL     1      -2.411  10.403  15.364  0.00  0.00    +0.000 N 
ATOM     29  C   UNL     1      -3.204  10.067  14.309  0.00  0.00    +0.000 C 
ATOM     30  N   UNL     1      -2.696   9.973  13.114  0.00  0.00    +0.000 NA
ATOM     31  N   UNL     1      -3.752   9.657  12.303  0.00  0.00    +0.000 N 
ATOM     32  N   UNL     1      -4.976   9.796  13.068  0.00  0.00    +0.000 NA
ATOM     33  N   UNL     1      -4.543   9.837  14.393  0.00  0.00    +0.000 N 
ATOM     34  H   UNL     1      -1.431  10.484  15.136  0.00  0.00    +0.000 HD
ATOM     35  H   UNL     1      -3.752  10.241  11.461  0.00  0.00    +0.000 HD
ATOM     36  H   UNL     1      -5.550   8.958  12.926  0.00  0.00    +0.000 HD
ATOM     37  H   UNL     1      -5.044  10.389  15.089  0.00  0.00    +0.000 HD
ENDBRANCH  25  27
ENDBRANCH  24  25
ENDBRANCH   1  24
TORSDOF 5
ENDMDL
MODEL 5
REMARK VINA RESULT:      -8.1      4.493      9.748
REMARK  Name = 
REMARK  5 active torsions:
REMARK  status: ('A' for Active; 'I' for Inactive)
REMARK    1  A    between atoms: C_2  and  C_3
REMARK    2  A    between atoms: C_3  and  C_4
REMARK    3  A    between atoms: C_4  and  C_5
REMARK    4  A    between atoms: C_5  and  C_6
REMARK    5  A    between atoms: N_18  and  C_19
REMARK                            x       y       z     vdW  Elec       q    Type
REMARK                         _______ _______ _______ _____ _____    ______ ____
ROOT
ATOM      1  C   UNL     1      -1.480  12.193  20.597  0.00  0.00    +0.000 C 
ATOM      2  C   UNL     1      -0.392  13.229  20.160  0.00  0.00    +0.000 C 
ATOM      3  C   UNL     1       0.939  12.622  19.726  0.00  0.00    +0.000 C 
ATOM      4  C   UNL     1       1.489  11.703  20.805  0.00  0.00    +0.000 C 
ATOM      5  N   UNL     1       0.487  10.702  21.163  0.00  0.00    +0.000 N 
ATOM      6  C   UNL     1       0.533   9.342  20.887  0.00  0.00    +0.000 C 
ATOM      7  O   UNL     1      -0.444   8.630  21.124  0.00  0.00    +0.000 OA
ATOM      8  N   UNL     1       1.706   8.866  20.332  0.00  0.00    +0.000 N 
ATOM      9  C   UNL     1      -0.791  11.272  21.663  0.00  0.00    +0.000 C 
ATOM     10  H   UNL     1       2.529   9.431  20.442  0.00  0.00    +0.000 HD
ENDROOT
BRANCH   8  11
ATOM     11  C   UNL     1       1.940   7.552  19.850  0.00  0.00    +0.000 A 
ATOM     12  C   UNL     1       1.760   6.405  20.628  0.00  0.00    +0.000 A 
ATOM     13  C   UNL     1       2.053   5.136  20.118  0.00  0.00    +0.000 A 
ATOM     14  C   UNL     1       2.512   5.002  18.814  0.00  0.00    +0.000 A 
ATOM     15 CL   UNL     1       2.895   3.443  18.198  0.00  0.00    +0.000 Cl
ATOM     16  C   UNL     1       2.661   6.129  18.008  0.00  0.00    +0.000 A 
ATOM     17  C   UNL     1       2.370   7.399  18.522  0.00  0.00    +0.000 A 
ENDBRANCH   8  11
BRANCH   1  18
ATOM     18  C   UNL     1      -2.734  12.909  21.173  0.00  0.00    +0.000 A 
ATOM     19  C   UNL     1      -4.019  12.672  20.643  0.00  0.00    +0.000 A 
ATOM     20  C   UNL     1      -5.122  13.443  21.037  0.00  0.00    +0.000 A 
ATOM     21  C   UNL     1      -4.976  14.454  21.983  0.00  0.00    +0.000 A 
ATOM     22  C   UNL     1      -3.730  14.684  22.549  0.00  0.00    +0.000 A 
ATOM     23  C   UNL     1      -2.629  13.920  22.151  0.00  0.00    +0.000 A 
ENDBRANCH   1  18
BRANCH   1  24
ATOM     24  C   UNL     1      -1.945  11.309  19.387  0.00  0.00    +0.000 C 
BRANCH  24  25
ATOM     25  C   UNL     1      -1.817  11.986  18.018  0.00  0.00    +0.000 C 
BRANCH  25  27
ATOM     26  O   UNL     1      -4.053  11.502  17.298  0.00  0.00    +0.000 OA
ATOM     27  C   UNL     1      -2.854  11.506  17.025  0.00  0.00    +0.000 C 
ATOM     28  N   UNL     1      -2.334  11.090  15.820  0.00  0.00    +0.000 N 
ATOM     29  C   UNL     1      -3.041  10.476  14.831  0.00  0.00    +0.000 C 
ATOM     30  N   UNL     1      -2.455  10.149  13.716  0.00  0.00    +0.000 NA
ATOM     31  N   UNL     1      -3.441   9.592  12.947  0.00  0.00    +0.000 N 
ATOM     32  N   UNL     1      -4.715   9.820  13.599  0.00  0.00    +0.000 NA
ATOM     33  N   UNL     1      -4.369  10.186  14.899  0.00  0.00    +0.000 N 
ATOM     34  H   UNL     1      -1.347  11.180  15.629  0.00  0.00    +0.000 HD
ATOM     35  H   UNL     1      -3.418   9.971  11.996  0.00  0.00    +0.000 HD
ATOM     36  H   UNL     1      -5.236   8.938  13.624  0.00  0.00    +0.000 HD
ATOM     37  H   UNL     1      -4.941  10.847  15.426  0.00  0.00    +0.000 HD
ENDBRANCH  25  27
ENDBRANCH  24  25
ENDBRANCH   1  24
TORSDOF 5
ENDMDL
MODEL 6
REMARK VINA RESULT:      -8.0      5.722      9.341
REMARK  Name = 
REMARK  5 active torsions:
REMARK  status: ('A' for Active; 'I' for Inactive)
REMARK    1  A    between atoms: C_2  and  C_3
REMARK    2  A    between atoms: C_3  and  C_4
REMARK    3  A    between atoms: C_4  and  C_5
REMARK    4  A    between atoms: C_5  and  C_6
REMARK    5  A    between atoms: N_18  and  C_19
REMARK                            x       y       z     vdW  Elec       q    Type
REMARK                         _______ _______ _______ _____ _____    ______ ____
ROOT
ATOM      1  C   UNL     1      -2.192  14.281  23.538  0.00  0.00    +0.000 C 
ATOM      2  C   UNL     1      -3.418  13.708  24.323  0.00  0.00    +0.000 C 
ATOM      3  C   UNL     1      -4.335  12.797  23.512  0.00  0.00    +0.000 C 
ATOM      4  C   UNL     1      -4.799  13.493  22.242  0.00  0.00    +0.000 C 
ATOM      5  N   UNL     1      -3.644  13.973  21.487  0.00  0.00    +0.000 N 
ATOM      6  C   UNL     1      -3.179  13.479  20.275  0.00  0.00    +0.000 C 
ATOM      7  O   UNL     1      -2.111  13.883  19.813  0.00  0.00    +0.000 OA
ATOM      8  N   UNL     1      -3.964  12.524  19.658  0.00  0.00    +0.000 N 
ATOM      9  C   UNL     1      -2.780  14.922  22.234  0.00  0.00    +0.000 C 
ATOM     10  H   UNL     1      -4.927  12.468  19.939  0.00  0.00    +0.000 HD
ENDROOT
BRANCH   8  11
ATOM     11  C   UNL     1      -3.636  11.787  18.490  0.00  0.00    +0.000 A 
ATOM     12  C   UNL     1      -2.444  11.074  18.339  0.00  0.00    +0.000 A 
ATOM     13  C   UNL     1      -2.151  10.405  17.146  0.00  0.00    +0.000 A 
ATOM     14  C   UNL     1      -3.061  10.428  16.097  0.00  0.00    +0.000 A 
ATOM     15 CL   UNL     1      -2.686   9.626  14.623  0.00  0.00    +0.000 Cl
ATOM     16  C   UNL     1      -4.272  11.100  16.240  0.00  0.00    +0.000 A 
ATOM     17  C   UNL     1      -4.562  11.772  17.434  0.00  0.00    +0.000 A 
ENDBRANCH   8  11
BRANCH   1  18
ATOM     18  C   UNL     1      -1.415  15.319  24.396  0.00  0.00    +0.000 A 
ATOM     19  C   UNL     1      -0.408  16.127  23.830  0.00  0.00    +0.000 A 
ATOM     20  C   UNL     1       0.414  16.933  24.632  0.00  0.00    +0.000 A 
ATOM     21  C   UNL     1       0.238  16.970  26.013  0.00  0.00    +0.000 A 
ATOM     22  C   UNL     1      -0.771  16.214  26.592  0.00  0.00    +0.000 A 
ATOM     23  C   UNL     1      -1.585  15.405  25.794  0.00  0.00    +0.000 A 
ENDBRANCH   1  18
BRANCH   1  24
ATOM     24  C   UNL     1      -1.188  13.144  23.136  0.00  0.00    +0.000 C 
BRANCH  24  25
ATOM     25  C   UNL     1      -1.763  11.726  23.231  0.00  0.00    +0.000 C 
BRANCH  25  27
ATOM     26  O   UNL     1      -0.169  10.022  23.781  0.00  0.00    +0.000 OA
ATOM     27  C   UNL     1      -0.746  10.655  22.899  0.00  0.00    +0.000 C 
ATOM     28  N   UNL     1      -0.541  10.467  21.551  0.00  0.00    +0.000 N 
ATOM     29  C   UNL     1       0.428   9.678  21.008  0.00  0.00    +0.000 C 
ATOM     30  N   UNL     1       0.515   9.547  19.716  0.00  0.00    +0.000 NA
ATOM     31  N   UNL     1       1.554   8.678  19.517  0.00  0.00    +0.000 N 
ATOM     32  N   UNL     1       1.935   8.117  20.798  0.00  0.00    +0.000 NA
ATOM     33  N   UNL     1       1.334   8.962  21.730  0.00  0.00    +0.000 N 
ATOM     34  H   UNL     1      -1.094  10.970  20.873  0.00  0.00    +0.000 HD
ATOM     35  H   UNL     1       1.299   7.956  18.837  0.00  0.00    +0.000 HD
ATOM     36  H   UNL     1       2.954   8.178  20.895  0.00  0.00    +0.000 HD
ATOM     37  H   UNL     1       1.003   8.602  22.624  0.00  0.00    +0.000 HD
ENDBRANCH  25  27
ENDBRANCH  24  25
ENDBRANCH   1  24
TORSDOF 5
ENDMDL
MODEL 7
REMARK VINA RESULT:      -8.0      5.759      7.977
REMARK  Name = 
REMARK  5 active torsions:
REMARK  status: ('A' for Active; 'I' for Inactive)
REMARK    1  A    between atoms: C_2  and  C_3
REMARK    2  A    between atoms: C_3  and  C_4
REMARK    3  A    between atoms: C_4  and  C_5
REMARK    4  A    between atoms: C_5  and  C_6
REMARK    5  A    between atoms: N_18  and  C_19
REMARK                            x       y       z     vdW  Elec       q    Type
REMARK                         _______ _______ _______ _____ _____    ______ ____
ROOT
ATOM      1  C   UNL     1       0.004  10.088  20.412  0.00  0.00    +0.000 C 
ATOM      2  C   UNL     1      -0.160   9.646  21.904  0.00  0.00    +0.000 C 
ATOM      3  C   UNL     1      -1.091  10.521  22.737  0.00  0.00    +0.000 C 
ATOM      4  C   UNL     1      -0.669  11.980  22.663  0.00  0.00    +0.000 C 
ATOM      5  N   UNL     1      -0.576  12.400  21.267  0.00  0.00    +0.000 N 
ATOM      6  C   UNL     1      -1.420  13.282  20.605  0.00  0.00    +0.000 C 
ATOM      7  O   UNL     1      -1.313  13.444  19.389  0.00  0.00    +0.000 OA
ATOM      8  N   UNL     1      -2.366  13.926  21.380  0.00  0.00    +0.000 N 
ATOM      9  C   UNL     1       0.385  11.609  20.455  0.00  0.00    +0.000 C 
ATOM     10  H   UNL     1      -2.201  13.964  22.370  0.00  0.00    +0.000 HD
ENDROOT
BRANCH   8  11
ATOM     11  C   UNL     1      -3.410  14.766  20.913  0.00  0.00    +0.000 A 
ATOM     12  C   UNL     1      -4.686  14.298  20.587  0.00  0.00    +0.000 A 
ATOM     13  C   UNL     1      -5.664  15.163  20.084  0.00  0.00    +0.000 A 
ATOM     14  C   UNL     1      -5.379  16.512  19.923  0.00  0.00    +0.000 A 
ATOM     15 CL   UNL     1      -6.575  17.568  19.283  0.00  0.00    +0.000 Cl
ATOM     16  C   UNL     1      -4.127  17.008  20.280  0.00  0.00    +0.000 A 
ATOM     17  C   UNL     1      -3.148  16.139  20.779  0.00  0.00    +0.000 A 
ENDBRANCH   8  11
BRANCH   1  18
ATOM     18  C   UNL     1       1.090   9.239  19.693  0.00  0.00    +0.000 A 
ATOM     19  C   UNL     1       1.562   9.589  18.412  0.00  0.00    +0.000 A 
ATOM     20  C   UNL     1       2.405   8.733  17.689  0.00  0.00    +0.000 A 
ATOM     21  C   UNL     1       2.815   7.518  18.232  0.00  0.00    +0.000 A 
ATOM     22  C   UNL     1       2.396   7.166  19.508  0.00  0.00    +0.000 A 
ATOM     23  C   UNL     1       1.550   8.015  20.225  0.00  0.00    +0.000 A 
ENDBRANCH   1  18
BRANCH   1  24
ATOM     24  C   UNL     1      -1.338   9.924  19.616  0.00  0.00    +0.000 C 
BRANCH  24  25
ATOM     25  C   UNL     1      -1.208  10.130  18.102  0.00  0.00    +0.000 C 
BRANCH  25  27
ATOM     26  O   UNL     1      -2.274  11.632  16.566  0.00  0.00    +0.000 OA
ATOM     27  C   UNL     1      -2.400  10.844  17.501  0.00  0.00    +0.000 C 
ATOM     28  N   UNL     1      -3.605  10.530  18.090  0.00  0.00    +0.000 N 
ATOM     29  C   UNL     1      -4.788  11.152  17.832  0.00  0.00    +0.000 C 
ATOM     30  N   UNL     1      -5.877  10.754  18.426  0.00  0.00    +0.000 NA
ATOM     31  N   UNL     1      -6.867  11.556  17.925  0.00  0.00    +0.000 N 
ATOM     32  N   UNL     1      -6.326  12.313  16.813  0.00  0.00    +0.000 NA
ATOM     33  N   UNL     1      -4.945  12.178  16.952  0.00  0.00    +0.000 N 
ATOM     34  H   UNL     1      -3.655   9.825  18.811  0.00  0.00    +0.000 HD
ATOM     35  H   UNL     1      -7.684  11.001  17.657  0.00  0.00    +0.000 HD
ATOM     36  H   UNL     1      -6.582  13.299  16.930  0.00  0.00    +0.000 HD
ATOM     37  H   UNL     1      -4.338  12.156  16.133  0.00  0.00    +0.000 HD
ENDBRANCH  25  27
ENDBRANCH  24  25
ENDBRANCH   1  24
TORSDOF 5
ENDMDL
MODEL 8
REMARK VINA RESULT:      -7.9      5.180     10.607
REMARK  Name = 
REMARK  5 active torsions:
REMARK  status: ('A' for Active; 'I' for Inactive)
REMARK    1  A    between atoms: C_2  and  C_3
REMARK    2  A    between atoms: C_3  and  C_4
REMARK    3  A    between atoms: C_4  and  C_5
REMARK    4  A    between atoms: C_5  and  C_6
REMARK    5  A    between atoms: N_18  and  C_19
REMARK                            x       y       z     vdW  Elec       q    Type
REMARK                         _______ _______ _______ _____ _____    ______ ____
ROOT
ATOM      1  C   UNL     1      -0.564  14.200  19.939  0.00  0.00    +0.000 C 
ATOM      2  C   UNL     1      -2.080  13.817  19.960  0.00  0.00    +0.000 C 
ATOM      3  C   UNL     1      -2.373  12.333  19.755  0.00  0.00    +0.000 C 
ATOM      4  C   UNL     1      -1.717  11.825  18.481  0.00  0.00    +0.000 C 
ATOM      5  N   UNL     1      -0.290  12.136  18.498  0.00  0.00    +0.000 N 
ATOM      6  C   UNL     1       0.757  11.233  18.629  0.00  0.00    +0.000 C 
ATOM      7  O   UNL     1       1.911  11.641  18.767  0.00  0.00    +0.000 OA
ATOM      8  N   UNL     1       0.420   9.893  18.610  0.00  0.00    +0.000 N 
ATOM      9  C   UNL     1       0.016  13.585  18.618  0.00  0.00    +0.000 C 
ATOM     10  H   UNL     1      -0.469   9.648  18.210  0.00  0.00    +0.000 HD
ENDROOT
BRANCH   8  11
ATOM     11  C   UNL     1       1.290   8.799  18.852  0.00  0.00    +0.000 A 
ATOM     12  C   UNL     1       1.390   8.154  20.088  0.00  0.00    +0.000 A 
ATOM     13  C   UNL     1       2.302   7.112  20.284  0.00  0.00    +0.000 A 
ATOM     14  C   UNL     1       3.110   6.690  19.236  0.00  0.00    +0.000 A 
ATOM     15 CL   UNL     1       4.246   5.425  19.488  0.00  0.00    +0.000 Cl
ATOM     16  C   UNL     1       2.999   7.293  17.985  0.00  0.00    +0.000 A 
ATOM     17  C   UNL     1       2.088   8.339  17.792  0.00  0.00    +0.000 A 
ENDBRANCH   8  11
BRANCH   1  18
ATOM     18  C   UNL     1      -0.376  15.743  19.991  0.00  0.00    +0.000 A 
ATOM     19  C   UNL     1       0.903  16.328  19.902  0.00  0.00    +0.000 A 
ATOM     20  C   UNL     1       1.094  17.699  20.126  0.00  0.00    +0.000 A 
ATOM     21  C   UNL     1       0.012  18.524  20.423  0.00  0.00    +0.000 A 
ATOM     22  C   UNL     1      -1.264  17.982  20.477  0.00  0.00    +0.000 A 
ATOM     23  C   UNL     1      -1.453  16.614  20.261  0.00  0.00    +0.000 A 
ENDBRANCH   1  18
BRANCH   1  24
ATOM     24  C   UNL     1       0.199  13.583  21.163  0.00  0.00    +0.000 C 
BRANCH  24  25
ATOM     25  C   UNL     1      -0.262  14.106  22.529  0.00  0.00    +0.000 C 
BRANCH  25  27
ATOM     26  O   UNL     1      -1.137  12.058  23.416  0.00  0.00    +0.000 OA
ATOM     27  C   UNL     1      -1.336  13.243  23.157  0.00  0.00    +0.000 C 
ATOM     28  N   UNL     1      -2.519  13.902  23.404  0.00  0.00    +0.000 N 
ATOM     29  C   UNL     1      -3.674  13.309  23.816  0.00  0.00    +0.000 C 
ATOM     30  N   UNL     1      -4.732  14.032  24.049  0.00  0.00    +0.000 NA
ATOM     31  N   UNL     1      -5.684  13.143  24.469  0.00  0.00    +0.000 N 
ATOM     32  N   UNL     1      -5.047  11.860  24.692  0.00  0.00    +0.000 NA
ATOM     33  N   UNL     1      -3.818  11.974  24.043  0.00  0.00    +0.000 N 
ATOM     34  H   UNL     1      -2.601  14.893  23.231  0.00  0.00    +0.000 HD
ATOM     35  H   UNL     1      -6.161  13.490  25.305  0.00  0.00    +0.000 HD
ATOM     36  H   UNL     1      -5.604  11.131  24.235  0.00  0.00    +0.000 HD
ATOM     37  H   UNL     1      -2.992  11.494  24.399  0.00  0.00    +0.000 HD
ENDBRANCH  25  27
ENDBRANCH  24  25
ENDBRANCH   1  24
TORSDOF 5
ENDMDL
MODEL 9
REMARK VINA RESULT:      -7.9      7.006     10.439
REMARK  Name = 
REMARK  5 active torsions:
REMARK  status: ('A' for Active; 'I' for Inactive)
REMARK    1  A    between atoms: C_2  and  C_3
REMARK    2  A    between atoms: C_3  and  C_4
REMARK    3  A    between atoms: C_4  and  C_5
REMARK    4  A    between atoms: C_5  and  C_6
REMARK    5  A    between atoms: N_18  and  C_19
REMARK                            x       y       z     vdW  Elec       q    Type
REMARK                         _______ _______ _______ _____ _____    ______ ____
ROOT
ATOM      1  C   UNL     1      -2.483  14.638  23.992  0.00  0.00    +0.000 C 
ATOM      2  C   UNL     1      -3.347  13.690  24.888  0.00  0.00    +0.000 C 
ATOM      3  C   UNL     1      -4.060  12.568  24.140  0.00  0.00    +0.000 C 
ATOM      4  C   UNL     1      -4.899  13.128  23.002  0.00  0.00    +0.000 C 
ATOM      5  N   UNL     1      -4.069  13.964  22.137  0.00  0.00    +0.000 N 
ATOM      6  C   UNL     1      -3.667  13.676  20.840  0.00  0.00    +0.000 C 
ATOM      7  O   UNL     1      -2.852  14.404  20.270  0.00  0.00    +0.000 OA
ATOM      8  N   UNL     1      -4.213  12.546  20.262  0.00  0.00    +0.000 N 
ATOM      9  C   UNL     1      -3.427  15.109  22.832  0.00  0.00    +0.000 C 
ATOM     10  H   UNL     1      -5.060  12.187  20.665  0.00  0.00    +0.000 HD
ENDROOT
BRANCH   8  11
ATOM     11  C   UNL     1      -3.861  11.984  19.007  0.00  0.00    +0.000 A 
ATOM     12  C   UNL     1      -2.573  11.540  18.698  0.00  0.00    +0.000 A 
ATOM     13  C   UNL     1      -2.269  11.039  17.427  0.00  0.00    +0.000 A 
ATOM     14  C   UNL     1      -3.262  10.959  16.459  0.00  0.00    +0.000 A 
ATOM     15 CL   UNL     1      -2.880  10.366  14.891  0.00  0.00    +0.000 Cl
ATOM     16  C   UNL     1      -4.562  11.359  16.758  0.00  0.00    +0.000 A 
ATOM     17  C   UNL     1      -4.862  11.864  18.030  0.00  0.00    +0.000 A 
ENDBRANCH   8  11
BRANCH   1  18
ATOM     18  C   UNL     1      -1.932  15.837  24.815  0.00  0.00    +0.000 A 
ATOM     19  C   UNL     1      -1.152  15.634  25.971  0.00  0.00    +0.000 A 
ATOM     20  C   UNL     1      -0.805  16.701  26.812  0.00  0.00    +0.000 A 
ATOM     21  C   UNL     1      -1.209  17.999  26.510  0.00  0.00    +0.000 A 
ATOM     22  C   UNL     1      -1.946  18.233  25.357  0.00  0.00    +0.000 A 
ATOM     23  C   UNL     1      -2.298  17.169  24.524  0.00  0.00    +0.000 A 
ENDBRANCH   1  18
BRANCH   1  24
ATOM     24  C   UNL     1      -1.257  13.879  23.372  0.00  0.00    +0.000 C 
BRANCH  24  25
ATOM     25  C   UNL     1      -0.246  14.782  22.658  0.00  0.00    +0.000 C 
BRANCH  25  27
ATOM     26  O   UNL     1       0.771  14.836  20.486  0.00  0.00    +0.000 OA
ATOM     27  C   UNL     1       0.323  14.151  21.404  0.00  0.00    +0.000 C 
ATOM     28  N   UNL     1       0.291  12.775  21.398  0.00  0.00    +0.000 N 
ATOM     29  C   UNL     1       0.599  11.989  20.330  0.00  0.00    +0.000 C 
ATOM     30  N   UNL     1       0.564  10.692  20.442  0.00  0.00    +0.000 NA
ATOM     31  N   UNL     1       0.951  10.219  19.217  0.00  0.00    +0.000 N 
ATOM     32  N   UNL     1       1.444  11.333  18.430  0.00  0.00    +0.000 NA
ATOM     33  N   UNL     1       0.982  12.459  19.111  0.00  0.00    +0.000 N 
ATOM     34  H   UNL     1      -0.027  12.266  22.210  0.00  0.00    +0.000 HD
ATOM     35  H   UNL     1       1.648   9.476  19.318  0.00  0.00    +0.000 HD
ATOM     36  H   UNL     1       1.011  11.299  17.502  0.00  0.00    +0.000 HD
ATOM     37  H   UNL     1       1.524  13.323  19.120  0.00  0.00    +0.000 HD
ENDBRANCH  25  27
ENDBRANCH  24  25
ENDBRANCH   1  24
TORSDOF 5
ENDMDL
