MODEL 1
REMARK VINA RESULT:      -6.9      0.000      0.000
REMARK  Name = 
REMARK  6 active torsions:
REMARK  status: ('A' for Active; 'I' for Inactive)
REMARK    1  A    between atoms: C_2  and  C_3
REMARK    2  A    between atoms: C_2  and  C_14
REMARK    3  A    between atoms: C_3  and  C_4
REMARK    4  A    between atoms: C_4  and  C_5
REMARK    5  A    between atoms: C_4  and  N_8
REMARK    6  A    between atoms: C_5  and  O_7
REMARK                            x       y       z     vdW  Elec       q    Type
REMARK                         _______ _______ _______ _____ _____    ______ ____
ROOT
ATOM      1  C   UNL     1       5.136   4.820  18.108  0.00  0.00    +0.000 C 
ENDROOT
BRANCH   1   2
ATOM      2  N   UNL     1       6.397   4.938  17.304  0.00  0.00    +0.000 NA
ATOM      3  C   UNL     1       7.638   4.783  18.105  0.00  0.00    +0.000 C 
ATOM      4  C   UNL     1       7.974   6.011  18.971  0.00  0.00    +0.000 C 
ATOM      5  O   UNL     1       8.018   7.222  18.206  0.00  0.00    +0.000 OA
ATOM      6  C   UNL     1       6.811   7.416  17.463  0.00  0.00    +0.000 C 
ATOM      7  C   UNL     1       6.533   6.210  16.555  0.00  0.00    +0.000 C 
ENDBRANCH   1   2
BRANCH   1   8
ATOM      8  C   UNL     1       4.929   3.347  18.534  0.00  0.00    +0.000 C 
ATOM      9  O   UNL     1       5.061   2.924  19.674  0.00  0.00    +0.000 OA
BRANCH   8  10
ATOM     10  O   UNL     1       4.522   2.539  17.520  0.00  0.00    +0.000 OA
ATOM     11  H   UNL     1       4.647   2.921  16.634  0.00  0.00    +0.000 HD
ENDBRANCH   8  10
ENDBRANCH   1   8
BRANCH   1  12
ATOM     12  C   UNL     1       3.901   5.253  17.294  0.00  0.00    +0.000 C 
BRANCH  12  14
ATOM     13  O   UNL     1       2.332   6.913  18.046  0.00  0.00    +0.000 OA
ATOM     14  C   UNL     1       2.767   5.770  18.156  0.00  0.00    +0.000 C 
BRANCH  14  15
ATOM     15  C   UNL     1       2.135   4.819  19.121  0.00  0.00    +0.000 A 
ATOM     16  C   UNL     1       2.342   4.926  20.504  0.00  0.00    +0.000 A 
ATOM     17  C   UNL     1       1.799   3.976  21.373  0.00  0.00    +0.000 A 
ATOM     18  C   UNL     1       1.038   2.926  20.869  0.00  0.00    +0.000 A 
ATOM     19  C   UNL     1       0.810   2.826  19.497  0.00  0.00    +0.000 A 
ATOM     20  C   UNL     1       1.361   3.767  18.622  0.00  0.00    +0.000 A 
ENDBRANCH  14  15
ENDBRANCH  12  14
ENDBRANCH   1  12
TORSDOF 6
ENDMDL
MODEL 2
REMARK VINA RESULT:      -6.8      2.341      3.348
REMARK  Name = 
REMARK  6 active torsions:
REMARK  status: ('A' for Active; 'I' for Inactive)
REMARK    1  A    between atoms: C_2  and  C_3
REMARK    2  A    between atoms: C_2  and  C_14
REMARK    3  A    between atoms: C_3  and  C_4
REMARK    4  A    between atoms: C_4  and  C_5
REMARK    5  A    between atoms: C_4  and  N_8
REMARK    6  A    between atoms: C_5  and  O_7
REMARK                            x       y       z     vdW  Elec       q    Type
REMARK                         _______ _______ _______ _____ _____    ______ ____
ROOT
ATOM      1  C   UNL     1       4.270   4.702  17.925  0.00  0.00    +0.000 C 
ENDROOT
BRANCH   1   2
ATOM      2  N   UNL     1       4.815   4.910  16.542  0.00  0.00    +0.000 NA
ATOM      3  C   UNL     1       6.076   4.173  16.274  0.00  0.00    +0.000 C 
ATOM      4  C   UNL     1       7.313   4.797  16.947  0.00  0.00    +0.000 C 
ATOM      5  O   UNL     1       7.464   6.185  16.627  0.00  0.00    +0.000 OA
ATOM      6  C   UNL     1       6.276   6.925  16.922  0.00  0.00    +0.000 C 
ATOM      7  C   UNL     1       5.069   6.327  16.186  0.00  0.00    +0.000 C 
ENDBRANCH   1   2
BRANCH   1   8
ATOM      8  C   UNL     1       4.243   3.190  18.249  0.00  0.00    +0.000 C 
ATOM      9  O   UNL     1       3.569   2.360  17.657  0.00  0.00    +0.000 OA
BRANCH   8  10
ATOM     10  O   UNL     1       5.098   2.830  19.243  0.00  0.00    +0.000 OA
ATOM     11  H   UNL     1       4.691   2.283  19.937  0.00  0.00    +0.000 HD
ENDBRANCH   8  10
ENDBRANCH   1   8
BRANCH   1  12
ATOM     12  C   UNL     1       2.831   5.238  18.055  0.00  0.00    +0.000 C 
BRANCH  12  14
ATOM     13  O   UNL     1       2.799   5.475  20.448  0.00  0.00    +0.000 OA
ATOM     14  C   UNL     1       2.585   5.983  19.352  0.00  0.00    +0.000 C 
BRANCH  14  15
ATOM     15  C   UNL     1       2.127   7.404  19.264  0.00  0.00    +0.000 A 
ATOM     16  C   UNL     1       1.537   8.058  20.355  0.00  0.00    +0.000 A 
ATOM     17  C   UNL     1       1.050   9.360  20.217  0.00  0.00    +0.000 A 
ATOM     18  C   UNL     1       1.162  10.020  18.996  0.00  0.00    +0.000 A 
ATOM     19  C   UNL     1       1.768   9.384  17.913  0.00  0.00    +0.000 A 
ATOM     20  C   UNL     1       2.245   8.076  18.042  0.00  0.00    +0.000 A 
ENDBRANCH  14  15
ENDBRANCH  12  14
ENDBRANCH   1  12
TORSDOF 6
ENDMDL
MODEL 3
REMARK VINA RESULT:      -6.7      2.790      6.009
REMARK  Name = 
REMARK  6 active torsions:
REMARK  status: ('A' for Active; 'I' for Inactive)
REMARK    1  A    between atoms: C_2  and  C_3
REMARK    2  A    between atoms: C_2  and  C_14
REMARK    3  A    between atoms: C_3  and  C_4
REMARK    4  A    between atoms: C_4  and  C_5
REMARK    5  A    between atoms: C_4  and  N_8
REMARK    6  A    between atoms: C_5  and  O_7
REMARK                            x       y       z     vdW  Elec       q    Type
REMARK                         _______ _______ _______ _____ _____    ______ ____
ROOT
ATOM      1  C   UNL     1       5.502   4.380  17.735  0.00  0.00    +0.000 C 
ENDROOT
BRANCH   1   2
ATOM      2  N   UNL     1       4.344   4.326  18.689  0.00  0.00    +0.000 NA
ATOM      3  C   UNL     1       4.236   3.045  19.432  0.00  0.00    +0.000 C 
ATOM      4  C   UNL     1       3.700   1.878  18.581  0.00  0.00    +0.000 C 
ATOM      5  O   UNL     1       2.457   2.196  17.943  0.00  0.00    +0.000 OA
ATOM      6  C   UNL     1       2.552   3.403  17.181  0.00  0.00    +0.000 C 
ATOM      7  C   UNL     1       3.021   4.567  18.065  0.00  0.00    +0.000 C 
ENDBRANCH   1   2
BRANCH   1   8
ATOM      8  C   UNL     1       6.807   4.654  18.520  0.00  0.00    +0.000 C 
ATOM      9  O   UNL     1       6.879   5.305  19.552  0.00  0.00    +0.000 OA
BRANCH   8  10
ATOM     10  O   UNL     1       7.901   4.048  17.986  0.00  0.00    +0.000 OA
ATOM     11  H   UNL     1       8.702   4.122  18.535  0.00  0.00    +0.000 HD
ENDBRANCH   8  10
ENDBRANCH   1   8
BRANCH   1  12
ATOM     12  C   UNL     1       5.330   5.506  16.697  0.00  0.00    +0.000 C 
BRANCH  12  14
ATOM     13  O   UNL     1       7.502   6.347  16.097  0.00  0.00    +0.000 OA
ATOM     14  C   UNL     1       6.530   5.666  15.785  0.00  0.00    +0.000 C 
BRANCH  14  15
ATOM     15  C   UNL     1       6.531   4.909  14.496  0.00  0.00    +0.000 A 
ATOM     16  C   UNL     1       7.557   5.060  13.552  0.00  0.00    +0.000 A 
ATOM     17  C   UNL     1       7.490   4.396  12.325  0.00  0.00    +0.000 A 
ATOM     18  C   UNL     1       6.407   3.570  12.039  0.00  0.00    +0.000 A 
ATOM     19  C   UNL     1       5.393   3.398  12.981  0.00  0.00    +0.000 A 
ATOM     20  C   UNL     1       5.450   4.069  14.206  0.00  0.00    +0.000 A 
ENDBRANCH  14  15
ENDBRANCH  12  14
ENDBRANCH   1  12
TORSDOF 6
ENDMDL
MODEL 4
REMARK VINA RESULT:      -6.7      2.352      3.480
REMARK  Name = 
REMARK  6 active torsions:
REMARK  status: ('A' for Active; 'I' for Inactive)
REMARK    1  A    between atoms: C_2  and  C_3
REMARK    2  A    between atoms: C_2  and  C_14
REMARK    3  A    between atoms: C_3  and  C_4
REMARK    4  A    between atoms: C_4  and  C_5
REMARK    5  A    between atoms: C_4  and  N_8
REMARK    6  A    between atoms: C_5  and  O_7
REMARK                            x       y       z     vdW  Elec       q    Type
REMARK                         _______ _______ _______ _____ _____    ______ ____
ROOT
ATOM      1  C   UNL     1       4.278   4.689  17.909  0.00  0.00    +0.000 C 
ENDROOT
BRANCH   1   2
ATOM      2  N   UNL     1       4.826   4.881  16.525  0.00  0.00    +0.000 NA
ATOM      3  C   UNL     1       6.094   4.149  16.274  0.00  0.00    +0.000 C 
ATOM      4  C   UNL     1       7.323   4.792  16.943  0.00  0.00    +0.000 C 
ATOM      5  O   UNL     1       7.466   6.177  16.603  0.00  0.00    +0.000 OA
ATOM      6  C   UNL     1       6.271   6.912  16.883  0.00  0.00    +0.000 C 
ATOM      7  C   UNL     1       5.071   6.294  16.150  0.00  0.00    +0.000 C 
ENDBRANCH   1   2
BRANCH   1   8
ATOM      8  C   UNL     1       4.237   3.180  18.246  0.00  0.00    +0.000 C 
ATOM      9  O   UNL     1       3.554   2.351  17.662  0.00  0.00    +0.000 OA
BRANCH   8  10
ATOM     10  O   UNL     1       5.091   2.821  19.241  0.00  0.00    +0.000 OA
ATOM     11  H   UNL     1       4.938   3.288  20.082  0.00  0.00    +0.000 HD
ENDBRANCH   8  10
ENDBRANCH   1   8
BRANCH   1  12
ATOM     12  C   UNL     1       2.843   5.238  18.032  0.00  0.00    +0.000 C 
BRANCH  12  14
ATOM     13  O   UNL     1       2.890   5.592  20.410  0.00  0.00    +0.000 OA
ATOM     14  C   UNL     1       2.614   6.037  19.300  0.00  0.00    +0.000 C 
BRANCH  14  15
ATOM     15  C   UNL     1       2.094   7.431  19.161  0.00  0.00    +0.000 A 
ATOM     16  C   UNL     1       2.208   8.145  17.960  0.00  0.00    +0.000 A 
ATOM     17  C   UNL     1       1.781   9.473  17.885  0.00  0.00    +0.000 A 
ATOM     18  C   UNL     1       1.226  10.090  19.003  0.00  0.00    +0.000 A 
ATOM     19  C   UNL     1       1.090   9.380  20.195  0.00  0.00    +0.000 A 
ATOM     20  C   UNL     1       1.527   8.054  20.278  0.00  0.00    +0.000 A 
ENDBRANCH  14  15
ENDBRANCH  12  14
ENDBRANCH   1  12
TORSDOF 6
ENDMDL
MODEL 5
REMARK VINA RESULT:      -6.6      0.245      1.341
REMARK  Name = 
REMARK  6 active torsions:
REMARK  status: ('A' for Active; 'I' for Inactive)
REMARK    1  A    between atoms: C_2  and  C_3
REMARK    2  A    between atoms: C_2  and  C_14
REMARK    3  A    between atoms: C_3  and  C_4
REMARK    4  A    between atoms: C_4  and  C_5
REMARK    5  A    between atoms: C_4  and  N_8
REMARK    6  A    between atoms: C_5  and  O_7
REMARK                            x       y       z     vdW  Elec       q    Type
REMARK                         _______ _______ _______ _____ _____    ______ ____
ROOT
ATOM      1  C   UNL     1       5.077   4.791  18.045  0.00  0.00    +0.000 C 
ENDROOT
BRANCH   1   2
ATOM      2  N   UNL     1       6.309   4.953  17.202  0.00  0.00    +0.000 NA
ATOM      3  C   UNL     1       7.577   4.732  17.943  0.00  0.00    +0.000 C 
ATOM      4  C   UNL     1       7.960   5.896  18.876  0.00  0.00    +0.000 C 
ATOM      5  O   UNL     1       7.988   7.155  18.193  0.00  0.00    +0.000 OA
ATOM      6  C   UNL     1       6.756   7.410  17.512  0.00  0.00    +0.000 C 
ATOM      7  C   UNL     1       6.431   6.271  16.536  0.00  0.00    +0.000 C 
ENDBRANCH   1   2
BRANCH   1   8
ATOM      8  C   UNL     1       4.753   3.287  18.206  0.00  0.00    +0.000 C 
ATOM      9  O   UNL     1       4.214   2.593  17.356  0.00  0.00    +0.000 OA
BRANCH   8  10
ATOM     10  O   UNL     1       5.177   2.761  19.386  0.00  0.00    +0.000 OA
ATOM     11  H   UNL     1       4.465   2.378  19.928  0.00  0.00    +0.000 HD
ENDBRANCH   8  10
ENDBRANCH   1   8
BRANCH   1  12
ATOM     12  C   UNL     1       3.854   5.471  17.399  0.00  0.00    +0.000 C 
BRANCH  12  14
ATOM     13  O   UNL     1       2.360   7.021  18.470  0.00  0.00    +0.000 OA
ATOM     14  C   UNL     1       2.794   5.875  18.403  0.00  0.00    +0.000 C 
BRANCH  14  15
ATOM     15  C   UNL     1       2.230   4.810  19.289  0.00  0.00    +0.000 A 
ATOM     16  C   UNL     1       1.330   3.850  18.806  0.00  0.00    +0.000 A 
ATOM     17  C   UNL     1       0.763   2.915  19.676  0.00  0.00    +0.000 A 
ATOM     18  C   UNL     1       1.101   2.925  21.026  0.00  0.00    +0.000 A 
ATOM     19  C   UNL     1       2.012   3.863  21.509  0.00  0.00    +0.000 A 
ATOM     20  C   UNL     1       2.573   4.809  20.645  0.00  0.00    +0.000 A 
ENDBRANCH  14  15
ENDBRANCH  12  14
ENDBRANCH   1  12
TORSDOF 6
ENDMDL
MODEL 6
REMARK VINA RESULT:      -6.5      1.316      1.566
REMARK  Name = 
REMARK  6 active torsions:
REMARK  status: ('A' for Active; 'I' for Inactive)
REMARK    1  A    between atoms: C_2  and  C_3
REMARK    2  A    between atoms: C_2  and  C_14
REMARK    3  A    between atoms: C_3  and  C_4
REMARK    4  A    between atoms: C_4  and  C_5
REMARK    5  A    between atoms: C_4  and  N_8
REMARK    6  A    between atoms: C_5  and  O_7
REMARK                            x       y       z     vdW  Elec       q    Type
REMARK                         _______ _______ _______ _____ _____    ______ ____
ROOT
ATOM      1  C   UNL     1       4.048   4.775  17.575  0.00  0.00    +0.000 C 
ENDROOT
BRANCH   1   2
ATOM      2  N   UNL     1       4.829   5.093  16.334  0.00  0.00    +0.000 NA
ATOM      3  C   UNL     1       6.034   4.245  16.148  0.00  0.00    +0.000 C 
ATOM      4  C   UNL     1       7.202   4.615  17.082  0.00  0.00    +0.000 C 
ATOM      5  O   UNL     1       7.547   6.003  16.998  0.00  0.00    +0.000 OA
ATOM      6  C   UNL     1       6.408   6.841  17.222  0.00  0.00    +0.000 C 
ATOM      7  C   UNL     1       5.283   6.501  16.235  0.00  0.00    +0.000 C 
ENDBRANCH   1   2
BRANCH   1   8
ATOM      8  C   UNL     1       3.497   3.333  17.485  0.00  0.00    +0.000 C 
ATOM      9  O   UNL     1       3.914   2.383  18.132  0.00  0.00    +0.000 OA
BRANCH   8  10
ATOM     10  O   UNL     1       2.437   3.205  16.642  0.00  0.00    +0.000 OA
ATOM     11  H   UNL     1       1.781   3.920  16.720  0.00  0.00    +0.000 HD
ENDBRANCH   8  10
ENDBRANCH   1   8
BRANCH   1  12
ATOM     12  C   UNL     1       2.848   5.728  17.749  0.00  0.00    +0.000 C 
BRANCH  12  14
ATOM     13  O   UNL     1       2.516   7.115  19.686  0.00  0.00    +0.000 OA
ATOM     14  C   UNL     1       2.497   5.987  19.201  0.00  0.00    +0.000 C 
BRANCH  14  15
ATOM     15  C   UNL     1       2.057   4.824  20.030  0.00  0.00    +0.000 A 
ATOM     16  C   UNL     1       2.743   4.446  21.193  0.00  0.00    +0.000 A 
ATOM     17  C   UNL     1       2.352   3.308  21.904  0.00  0.00    +0.000 A 
ATOM     18  C   UNL     1       1.269   2.551  21.466  0.00  0.00    +0.000 A 
ATOM     19  C   UNL     1       0.569   2.933  20.322  0.00  0.00    +0.000 A 
ATOM     20  C   UNL     1       0.964   4.064  19.600  0.00  0.00    +0.000 A 
ENDBRANCH  14  15
ENDBRANCH  12  14
ENDBRANCH   1  12
TORSDOF 6
ENDMDL
MODEL 7
REMARK VINA RESULT:      -6.5      1.997      5.896
REMARK  Name = 
REMARK  6 active torsions:
REMARK  status: ('A' for Active; 'I' for Inactive)
REMARK    1  A    between atoms: C_2  and  C_3
REMARK    2  A    between atoms: C_2  and  C_14
REMARK    3  A    between atoms: C_3  and  C_4
REMARK    4  A    between atoms: C_4  and  C_5
REMARK    5  A    between atoms: C_4  and  N_8
REMARK    6  A    between atoms: C_5  and  O_7
REMARK                            x       y       z     vdW  Elec       q    Type
REMARK                         _______ _______ _______ _____ _____    ______ ____
ROOT
ATOM      1  C   UNL     1       2.784   5.358  18.928  0.00  0.00    +0.000 C 
ENDROOT
BRANCH   1   2
ATOM      2  N   UNL     1       1.522   4.571  19.130  0.00  0.00    +0.000 NA
ATOM      3  C   UNL     1       1.113   4.445  20.552  0.00  0.00    +0.000 C 
ATOM      4  C   UNL     1       1.966   3.445  21.355  0.00  0.00    +0.000 C 
ATOM      5  O   UNL     1       2.025   2.156  20.732  0.00  0.00    +0.000 OA
ATOM      6  C   UNL     1       2.463   2.249  19.373  0.00  0.00    +0.000 C 
ATOM      7  C   UNL     1       1.557   3.197  18.575  0.00  0.00    +0.000 C 
ENDBRANCH   1   2
BRANCH   1   8
ATOM      8  C   UNL     1       2.514   6.853  19.215  0.00  0.00    +0.000 C 
ATOM      9  O   UNL     1       2.255   7.693  18.366  0.00  0.00    +0.000 OA
BRANCH   8  10
ATOM     10  O   UNL     1       2.534   7.166  20.539  0.00  0.00    +0.000 OA
ATOM     11  H   UNL     1       1.753   7.662  20.840  0.00  0.00    +0.000 HD
ENDBRANCH   8  10
ENDBRANCH   1   8
BRANCH   1  12
ATOM     12  C   UNL     1       3.300   5.242  17.480  0.00  0.00    +0.000 C 
BRANCH  12  14
ATOM     13  O   UNL     1       4.904   3.528  16.958  0.00  0.00    +0.000 OA
ATOM     14  C   UNL     1       4.696   4.659  17.387  0.00  0.00    +0.000 C 
BRANCH  14  15
ATOM     15  C   UNL     1       5.844   5.533  17.778  0.00  0.00    +0.000 A 
ATOM     16  C   UNL     1       6.164   6.695  17.061  0.00  0.00    +0.000 A 
ATOM     17  C   UNL     1       7.289   7.448  17.406  0.00  0.00    +0.000 A 
ATOM     18  C   UNL     1       8.090   7.055  18.474  0.00  0.00    +0.000 A 
ATOM     19  C   UNL     1       7.765   5.913  19.205  0.00  0.00    +0.000 A 
ATOM     20  C   UNL     1       6.648   5.148  18.856  0.00  0.00    +0.000 A 
ENDBRANCH  14  15
ENDBRANCH  12  14
ENDBRANCH   1  12
TORSDOF 6
ENDMDL
MODEL 8
REMARK VINA RESULT:      -6.5      1.794      2.988
REMARK  Name = 
REMARK  6 active torsions:
REMARK  status: ('A' for Active; 'I' for Inactive)
REMARK    1  A    between atoms: C_2  and  C_3
REMARK    2  A    between atoms: C_2  and  C_14
REMARK    3  A    between atoms: C_3  and  C_4
REMARK    4  A    between atoms: C_4  and  C_5
REMARK    5  A    between atoms: C_4  and  N_8
REMARK    6  A    between atoms: C_5  and  O_7
REMARK                            x       y       z     vdW  Elec       q    Type
REMARK                         _______ _______ _______ _____ _____    ______ ____
ROOT
ATOM      1  C   UNL     1       5.972   5.883  17.525  0.00  0.00    +0.000 C 
ENDROOT
BRANCH   1   2
ATOM      2  N   UNL     1       6.380   4.519  17.049  0.00  0.00    +0.000 NA
ATOM      3  C   UNL     1       7.497   4.534  16.069  0.00  0.00    +0.000 C 
ATOM      4  C   UNL     1       7.078   4.994  14.660  0.00  0.00    +0.000 C 
ATOM      5  O   UNL     1       5.969   4.243  14.149  0.00  0.00    +0.000 OA
ATOM      6  C   UNL     1       4.864   4.256  15.057  0.00  0.00    +0.000 C 
ATOM      7  C   UNL     1       5.288   3.728  16.434  0.00  0.00    +0.000 C 
ENDBRANCH   1   2
BRANCH   1   8
ATOM      8  C   UNL     1       7.231   6.705  17.886  0.00  0.00    +0.000 C 
ATOM      9  O   UNL     1       7.993   6.449  18.807  0.00  0.00    +0.000 OA
BRANCH   8  10
ATOM     10  O   UNL     1       7.468   7.740  17.037  0.00  0.00    +0.000 OA
ATOM     11  H   UNL     1       6.857   8.490  17.147  0.00  0.00    +0.000 HD
ENDBRANCH   8  10
ENDBRANCH   1   8
BRANCH   1  12
ATOM     12  C   UNL     1       5.085   5.802  18.783  0.00  0.00    +0.000 C 
BRANCH  12  14
ATOM     13  O   UNL     1       3.281   7.126  17.899  0.00  0.00    +0.000 OA
ATOM     14  C   UNL     1       3.628   6.118  18.508  0.00  0.00    +0.000 C 
BRANCH  14  15
ATOM     15  C   UNL     1       2.604   5.122  18.950  0.00  0.00    +0.000 A 
ATOM     16  C   UNL     1       2.174   5.049  20.283  0.00  0.00    +0.000 A 
ATOM     17  C   UNL     1       1.272   4.057  20.678  0.00  0.00    +0.000 A 
ATOM     18  C   UNL     1       0.786   3.145  19.746  0.00  0.00    +0.000 A 
ATOM     19  C   UNL     1       1.193   3.226  18.415  0.00  0.00    +0.000 A 
ATOM     20  C   UNL     1       2.104   4.208  18.016  0.00  0.00    +0.000 A 
ENDBRANCH  14  15
ENDBRANCH  12  14
ENDBRANCH   1  12
TORSDOF 6
ENDMDL
MODEL 9
REMARK VINA RESULT:      -6.4      2.761      4.968
REMARK  Name = 
REMARK  6 active torsions:
REMARK  status: ('A' for Active; 'I' for Inactive)
REMARK    1  A    between atoms: C_2  and  C_3
REMARK    2  A    between atoms: C_2  and  C_14
REMARK    3  A    between atoms: C_3  and  C_4
REMARK    4  A    between atoms: C_4  and  C_5
REMARK    5  A    between atoms: C_4  and  N_8
REMARK    6  A    between atoms: C_5  and  O_7
REMARK                            x       y       z     vdW  Elec       q    Type
REMARK                         _______ _______ _______ _____ _____    ______ ____
ROOT
ATOM      1  C   UNL     1       3.833   4.403  18.764  0.00  0.00    +0.000 C 
ENDROOT
BRANCH   1   2
ATOM      2  N   UNL     1       3.418   3.426  19.825  0.00  0.00    +0.000 NA
ATOM      3  C   UNL     1       2.876   2.151  19.290  0.00  0.00    +0.000 C 
ATOM      4  C   UNL     1       1.449   2.274  18.725  0.00  0.00    +0.000 C 
ATOM      5  O   UNL     1       0.538   2.852  19.668  0.00  0.00    +0.000 OA
ATOM      6  C   UNL     1       1.018   4.106  20.161  0.00  0.00    +0.000 C 
ATOM      7  C   UNL     1       2.412   3.946  20.782  0.00  0.00    +0.000 C 
ENDBRANCH   1   2
BRANCH   1   8
ATOM      8  C   UNL     1       5.253   4.052  18.262  0.00  0.00    +0.000 C 
ATOM      9  O   UNL     1       6.283   4.231  18.897  0.00  0.00    +0.000 OA
BRANCH   8  10
ATOM     10  O   UNL     1       5.268   3.456  17.040  0.00  0.00    +0.000 OA
ATOM     11  H   UNL     1       4.936   2.540  17.042  0.00  0.00    +0.000 HD
ENDBRANCH   8  10
ENDBRANCH   1   8
BRANCH   1  12
ATOM     12  C   UNL     1       3.867   5.847  19.303  0.00  0.00    +0.000 C 
BRANCH  12  14
ATOM     13  O   UNL     1       3.767   6.890  17.139  0.00  0.00    +0.000 OA
ATOM     14  C   UNL     1       3.374   6.871  18.302  0.00  0.00    +0.000 C 
BRANCH  14  15
ATOM     15  C   UNL     1       2.328   7.840  18.753  0.00  0.00    +0.000 A 
ATOM     16  C   UNL     1       1.799   8.810  17.890  0.00  0.00    +0.000 A 
ATOM     17  C   UNL     1       0.879   9.749  18.364  0.00  0.00    +0.000 A 
ATOM     18  C   UNL     1       0.474   9.717  19.695  0.00  0.00    +0.000 A 
ATOM     19  C   UNL     1       0.980   8.742  20.554  0.00  0.00    +0.000 A 
ATOM     20  C   UNL     1       1.910   7.808  20.088  0.00  0.00    +0.000 A 
ENDBRANCH  14  15
ENDBRANCH  12  14
ENDBRANCH   1  12
TORSDOF 6
ENDMDL
