MODEL 1
REMARK VINA RESULT:      -7.2      0.000      0.000
REMARK  Name = 
REMARK  6 active torsions:
REMARK  status: ('A' for Active; 'I' for Inactive)
REMARK    1  A    between atoms: C_1  and  C_2
REMARK    2  A    between atoms: C_2  and  C_3
REMARK    3  A    between atoms: C_3  and  C_4
REMARK    4  A    between atoms: C_3  and  C_13
REMARK    5  A    between atoms: C_4  and  C_6
REMARK    6  A    between atoms: C_9  and  O_10
REMARK                            x       y       z     vdW  Elec       q    Type
REMARK                         _______ _______ _______ _____ _____    ______ ____
ROOT
ATOM      1  C   UNL     1       4.315   5.855  18.003  0.00  0.00    +0.000 C 
ATOM      2  O   UNL     1       5.054   6.119  18.956  0.00  0.00    +0.000 OA
ENDROOT
BRANCH   1   3
ATOM      3  C   UNL     1       4.924   5.263  16.774  0.00  0.00    +0.000 A 
ATOM      4  C   UNL     1       5.298   6.048  15.676  0.00  0.00    +0.000 A 
ATOM      5  C   UNL     1       5.824   5.450  14.522  0.00  0.00    +0.000 A 
ATOM      6  C   UNL     1       5.993   4.070  14.486  0.00  0.00    +0.000 A 
ATOM      7  C   UNL     1       5.680   3.284  15.588  0.00  0.00    +0.000 A 
ATOM      8  C   UNL     1       5.145   3.880  16.735  0.00  0.00    +0.000 A 
BRANCH   6   9
ATOM      9  O   UNL     1       6.473   3.448  13.374  0.00  0.00    +0.000 OA
ATOM     10  H   UNL     1       5.892   2.700  13.156  0.00  0.00    +0.000 HD
ENDBRANCH   6   9
ENDBRANCH   1   3
BRANCH   1  11
ATOM     11  C   UNL     1       2.794   6.080  18.058  0.00  0.00    +0.000 C 
BRANCH  11  12
ATOM     12  C   UNL     1       2.095   4.916  18.758  0.00  0.00    +0.000 A 
ATOM     13  C   UNL     1       1.625   3.821  18.017  0.00  0.00    +0.000 A 
ATOM     14  C   UNL     1       0.937   2.778  18.646  0.00  0.00    +0.000 A 
ATOM     15  C   UNL     1       0.712   2.816  20.021  0.00  0.00    +0.000 A 
ATOM     16  C   UNL     1       1.189   3.886  20.772  0.00  0.00    +0.000 A 
ATOM     17  C   UNL     1       1.883   4.923  20.147  0.00  0.00    +0.000 A 
ENDBRANCH  11  12
BRANCH  11  19
ATOM     18  C   UNL     1       2.272   8.589  17.807  0.00  0.00    +0.000 C 
ATOM     19  C   UNL     1       2.458   7.415  18.760  0.00  0.00    +0.000 C 
ENDBRANCH  11  19
ENDBRANCH   1  11
TORSDOF 5
ENDMDL
MODEL 2
REMARK VINA RESULT:      -7.2      1.985      3.037
REMARK  Name = 
REMARK  6 active torsions:
REMARK  status: ('A' for Active; 'I' for Inactive)
REMARK    1  A    between atoms: C_1  and  C_2
REMARK    2  A    between atoms: C_2  and  C_3
REMARK    3  A    between atoms: C_3  and  C_4
REMARK    4  A    between atoms: C_3  and  C_13
REMARK    5  A    between atoms: C_4  and  C_6
REMARK    6  A    between atoms: C_9  and  O_10
REMARK                            x       y       z     vdW  Elec       q    Type
REMARK                         _______ _______ _______ _____ _____    ______ ____
ROOT
ATOM      1  C   UNL     1       3.938   5.097  17.351  0.00  0.00    +0.000 C 
ATOM      2  O   UNL     1       3.928   4.289  16.419  0.00  0.00    +0.000 OA
ENDROOT
BRANCH   1   3
ATOM      3  C   UNL     1       5.252   5.638  17.811  0.00  0.00    +0.000 A 
ATOM      4  C   UNL     1       5.914   5.132  18.936  0.00  0.00    +0.000 A 
ATOM      5  C   UNL     1       7.125   5.697  19.362  0.00  0.00    +0.000 A 
ATOM      6  C   UNL     1       7.676   6.751  18.642  0.00  0.00    +0.000 A 
ATOM      7  C   UNL     1       7.061   7.227  17.491  0.00  0.00    +0.000 A 
ATOM      8  C   UNL     1       5.847   6.670  17.072  0.00  0.00    +0.000 A 
BRANCH   6   9
ATOM      9  O   UNL     1       8.834   7.347  19.039  0.00  0.00    +0.000 OA
ATOM     10  H   UNL     1       9.537   6.677  19.074  0.00  0.00    +0.000 HD
ENDBRANCH   6   9
ENDBRANCH   1   3
BRANCH   1  11
ATOM     11  C   UNL     1       2.644   5.589  18.024  0.00  0.00    +0.000 C 
BRANCH  11  12
ATOM     12  C   UNL     1       2.171   4.597  19.086  0.00  0.00    +0.000 A 
ATOM     13  C   UNL     1       1.330   3.529  18.736  0.00  0.00    +0.000 A 
ATOM     14  C   UNL     1       0.851   2.650  19.713  0.00  0.00    +0.000 A 
ATOM     15  C   UNL     1       1.207   2.826  21.049  0.00  0.00    +0.000 A 
ATOM     16  C   UNL     1       2.056   3.868  21.408  0.00  0.00    +0.000 A 
ATOM     17  C   UNL     1       2.541   4.741  20.434  0.00  0.00    +0.000 A 
ENDBRANCH  11  12
BRANCH  11  19
ATOM     18  C   UNL     1       2.409   8.136  17.735  0.00  0.00    +0.000 C 
ATOM     19  C   UNL     1       2.840   6.990  18.642  0.00  0.00    +0.000 C 
ENDBRANCH  11  19
ENDBRANCH   1  11
TORSDOF 5
ENDMDL
MODEL 3
REMARK VINA RESULT:      -7.1      1.998      3.225
REMARK  Name = 
REMARK  6 active torsions:
REMARK  status: ('A' for Active; 'I' for Inactive)
REMARK    1  A    between atoms: C_1  and  C_2
REMARK    2  A    between atoms: C_2  and  C_3
REMARK    3  A    between atoms: C_3  and  C_4
REMARK    4  A    between atoms: C_3  and  C_13
REMARK    5  A    between atoms: C_4  and  C_6
REMARK    6  A    between atoms: C_9  and  O_10
REMARK                            x       y       z     vdW  Elec       q    Type
REMARK                         _______ _______ _______ _____ _____    ______ ____
ROOT
ATOM      1  C   UNL     1       4.084   5.031  17.278  0.00  0.00    +0.000 C 
ATOM      2  O   UNL     1       4.120   4.105  16.463  0.00  0.00    +0.000 OA
ENDROOT
BRANCH   1   3
ATOM      3  C   UNL     1       5.376   5.613  17.751  0.00  0.00    +0.000 A 
ATOM      4  C   UNL     1       6.048   5.121  18.876  0.00  0.00    +0.000 A 
ATOM      5  C   UNL     1       7.235   5.724  19.314  0.00  0.00    +0.000 A 
ATOM      6  C   UNL     1       7.753   6.803  18.607  0.00  0.00    +0.000 A 
ATOM      7  C   UNL     1       7.129   7.267  17.456  0.00  0.00    +0.000 A 
ATOM      8  C   UNL     1       5.938   6.672  17.025  0.00  0.00    +0.000 A 
BRANCH   6   9
ATOM      9  O   UNL     1       8.887   7.435  19.017  0.00  0.00    +0.000 OA
ATOM     10  H   UNL     1       9.643   7.082  18.519  0.00  0.00    +0.000 HD
ENDBRANCH   6   9
ENDBRANCH   1   3
BRANCH   1  11
ATOM     11  C   UNL     1       2.758   5.623  17.790  0.00  0.00    +0.000 C 
BRANCH  11  12
ATOM     12  C   UNL     1       2.142   4.729  18.866  0.00  0.00    +0.000 A 
ATOM     13  C   UNL     1       2.409   4.966  20.223  0.00  0.00    +0.000 A 
ATOM     14  C   UNL     1       1.892   4.119  21.208  0.00  0.00    +0.000 A 
ATOM     15  C   UNL     1       1.100   3.029  20.851  0.00  0.00    +0.000 A 
ATOM     16  C   UNL     1       0.811   2.794  19.510  0.00  0.00    +0.000 A 
ATOM     17  C   UNL     1       1.319   3.642  18.527  0.00  0.00    +0.000 A 
ENDBRANCH  11  12
BRANCH  11  19
ATOM     18  C   UNL     1       1.918   8.056  17.849  0.00  0.00    +0.000 C 
ATOM     19  C   UNL     1       2.963   7.056  18.328  0.00  0.00    +0.000 C 
ENDBRANCH  11  19
ENDBRANCH   1  11
TORSDOF 5
ENDMDL
MODEL 4
REMARK VINA RESULT:      -7.1      0.081      1.142
REMARK  Name = 
REMARK  6 active torsions:
REMARK  status: ('A' for Active; 'I' for Inactive)
REMARK    1  A    between atoms: C_1  and  C_2
REMARK    2  A    between atoms: C_2  and  C_3
REMARK    3  A    between atoms: C_3  and  C_4
REMARK    4  A    between atoms: C_3  and  C_13
REMARK    5  A    between atoms: C_4  and  C_6
REMARK    6  A    between atoms: C_9  and  O_10
REMARK                            x       y       z     vdW  Elec       q    Type
REMARK                         _______ _______ _______ _____ _____    ______ ____
ROOT
ATOM      1  C   UNL     1       4.332   5.815  17.976  0.00  0.00    +0.000 C 
ATOM      2  O   UNL     1       5.098   6.105  18.899  0.00  0.00    +0.000 OA
ENDROOT
BRANCH   1   3
ATOM      3  C   UNL     1       4.902   5.172  16.754  0.00  0.00    +0.000 A 
ATOM      4  C   UNL     1       5.059   3.785  16.645  0.00  0.00    +0.000 A 
ATOM      5  C   UNL     1       5.640   3.223  15.500  0.00  0.00    +0.000 A 
ATOM      6  C   UNL     1       6.040   4.056  14.460  0.00  0.00    +0.000 A 
ATOM      7  C   UNL     1       5.839   5.429  14.528  0.00  0.00    +0.000 A 
ATOM      8  C   UNL     1       5.269   5.990  15.676  0.00  0.00    +0.000 A 
BRANCH   6   9
ATOM      9  O   UNL     1       6.635   3.553  13.344  0.00  0.00    +0.000 OA
ATOM     10  H   UNL     1       7.226   4.227  12.970  0.00  0.00    +0.000 HD
ENDBRANCH   6   9
ENDBRANCH   1   3
BRANCH   1  11
ATOM     11  C   UNL     1       2.815   6.061  18.061  0.00  0.00    +0.000 C 
BRANCH  11  12
ATOM     12  C   UNL     1       2.115   4.903  18.771  0.00  0.00    +0.000 A 
ATOM     13  C   UNL     1       1.603   3.824  18.034  0.00  0.00    +0.000 A 
ATOM     14  C   UNL     1       0.914   2.789  18.674  0.00  0.00    +0.000 A 
ATOM     15  C   UNL     1       0.729   2.818  20.055  0.00  0.00    +0.000 A 
ATOM     16  C   UNL     1       1.248   3.872  20.800  0.00  0.00    +0.000 A 
ATOM     17  C   UNL     1       1.943   4.901  20.165  0.00  0.00    +0.000 A 
ENDBRANCH  11  12
BRANCH  11  19
ATOM     18  C   UNL     1       2.289   8.571  17.827  0.00  0.00    +0.000 C 
ATOM     19  C   UNL     1       2.511   7.397  18.774  0.00  0.00    +0.000 C 
ENDBRANCH  11  19
ENDBRANCH   1  11
TORSDOF 5
ENDMDL
MODEL 5
REMARK VINA RESULT:      -7.0      1.978      3.026
REMARK  Name = 
REMARK  6 active torsions:
REMARK  status: ('A' for Active; 'I' for Inactive)
REMARK    1  A    between atoms: C_1  and  C_2
REMARK    2  A    between atoms: C_2  and  C_3
REMARK    3  A    between atoms: C_3  and  C_4
REMARK    4  A    between atoms: C_3  and  C_13
REMARK    5  A    between atoms: C_4  and  C_6
REMARK    6  A    between atoms: C_9  and  O_10
REMARK                            x       y       z     vdW  Elec       q    Type
REMARK                         _______ _______ _______ _____ _____    ______ ____
ROOT
ATOM      1  C   UNL     1       3.937   5.049  17.341  0.00  0.00    +0.000 C 
ATOM      2  O   UNL     1       3.976   4.161  16.484  0.00  0.00    +0.000 OA
ENDROOT
BRANCH   1   3
ATOM      3  C   UNL     1       5.222   5.668  17.783  0.00  0.00    +0.000 A 
ATOM      4  C   UNL     1       5.813   6.733  17.093  0.00  0.00    +0.000 A 
ATOM      5  C   UNL     1       7.044   7.257  17.514  0.00  0.00    +0.000 A 
ATOM      6  C   UNL     1       7.663   6.723  18.639  0.00  0.00    +0.000 A 
ATOM      7  C   UNL     1       7.062   5.703  19.367  0.00  0.00    +0.000 A 
ATOM      8  C   UNL     1       5.839   5.174  18.941  0.00  0.00    +0.000 A 
BRANCH   6   9
ATOM      9  O   UNL     1       8.872   7.182  19.063  0.00  0.00    +0.000 OA
ATOM     10  H   UNL     1       9.162   7.898  18.473  0.00  0.00    +0.000 HD
ENDBRANCH   6   9
ENDBRANCH   1   3
BRANCH   1  11
ATOM     11  C   UNL     1       2.611   5.559  17.934  0.00  0.00    +0.000 C 
BRANCH  11  12
ATOM     12  C   UNL     1       2.090   4.602  19.005  0.00  0.00    +0.000 A 
ATOM     13  C   UNL     1       2.419   4.800  20.355  0.00  0.00    +0.000 A 
ATOM     14  C   UNL     1       1.989   3.896  21.332  0.00  0.00    +0.000 A 
ATOM     15  C   UNL     1       1.224   2.788  20.974  0.00  0.00    +0.000 A 
ATOM     16  C   UNL     1       0.874   2.590  19.642  0.00  0.00    +0.000 A 
ATOM     17  C   UNL     1       1.295   3.494  18.667  0.00  0.00    +0.000 A 
ENDBRANCH  11  12
BRANCH  11  19
ATOM     18  C   UNL     1       2.032   8.059  17.732  0.00  0.00    +0.000 C 
ATOM     19  C   UNL     1       2.775   6.981  18.512  0.00  0.00    +0.000 C 
ENDBRANCH  11  19
ENDBRANCH   1  11
TORSDOF 5
ENDMDL
MODEL 6
REMARK VINA RESULT:      -7.0      1.929      3.918
REMARK  Name = 
REMARK  6 active torsions:
REMARK  status: ('A' for Active; 'I' for Inactive)
REMARK    1  A    between atoms: C_1  and  C_2
REMARK    2  A    between atoms: C_2  and  C_3
REMARK    3  A    between atoms: C_3  and  C_4
REMARK    4  A    between atoms: C_3  and  C_13
REMARK    5  A    between atoms: C_4  and  C_6
REMARK    6  A    between atoms: C_9  and  O_10
REMARK                            x       y       z     vdW  Elec       q    Type
REMARK                         _______ _______ _______ _____ _____    ______ ____
ROOT
ATOM      1  C   UNL     1       2.827   5.093  18.493  0.00  0.00    +0.000 C 
ATOM      2  O   UNL     1       1.899   4.616  17.834  0.00  0.00    +0.000 OA
ENDROOT
BRANCH   1   3
ATOM      3  C   UNL     1       4.224   4.894  18.001  0.00  0.00    +0.000 A 
ATOM      4  C   UNL     1       4.500   4.399  16.720  0.00  0.00    +0.000 A 
ATOM      5  C   UNL     1       5.824   4.184  16.312  0.00  0.00    +0.000 A 
ATOM      6  C   UNL     1       6.864   4.489  17.184  0.00  0.00    +0.000 A 
ATOM      7  C   UNL     1       6.608   5.033  18.436  0.00  0.00    +0.000 A 
ATOM      8  C   UNL     1       5.287   5.238  18.847  0.00  0.00    +0.000 A 
BRANCH   6   9
ATOM      9  O   UNL     1       8.161   4.267  16.837  0.00  0.00    +0.000 OA
ATOM     10  H   UNL     1       8.541   5.090  16.488  0.00  0.00    +0.000 HD
ENDBRANCH   6   9
ENDBRANCH   1   3
BRANCH   1  11
ATOM     11  C   UNL     1       2.588   5.910  19.775  0.00  0.00    +0.000 C 
BRANCH  11  12
ATOM     12  C   UNL     1       2.094   7.317  19.441  0.00  0.00    +0.000 A 
ATOM     13  C   UNL     1       2.348   7.877  18.180  0.00  0.00    +0.000 A 
ATOM     14  C   UNL     1       1.946   9.184  17.888  0.00  0.00    +0.000 A 
ATOM     15  C   UNL     1       1.283   9.945  18.850  0.00  0.00    +0.000 A 
ATOM     16  C   UNL     1       1.007   9.395  20.098  0.00  0.00    +0.000 A 
ATOM     17  C   UNL     1       1.401   8.089  20.388  0.00  0.00    +0.000 A 
ENDBRANCH  11  12
BRANCH  11  19
ATOM     18  C   UNL     1       2.134   3.920  21.344  0.00  0.00    +0.000 C 
ATOM     19  C   UNL     1       1.589   5.193  20.709  0.00  0.00    +0.000 C 
ENDBRANCH  11  19
ENDBRANCH   1  11
TORSDOF 5
ENDMDL
MODEL 7
REMARK VINA RESULT:      -6.9      0.803      1.413
REMARK  Name = 
REMARK  6 active torsions:
REMARK  status: ('A' for Active; 'I' for Inactive)
REMARK    1  A    between atoms: C_1  and  C_2
REMARK    2  A    between atoms: C_2  and  C_3
REMARK    3  A    between atoms: C_3  and  C_4
REMARK    4  A    between atoms: C_3  and  C_13
REMARK    5  A    between atoms: C_4  and  C_6
REMARK    6  A    between atoms: C_9  and  O_10
REMARK                            x       y       z     vdW  Elec       q    Type
REMARK                         _______ _______ _______ _____ _____    ______ ____
ROOT
ATOM      1  C   UNL     1       4.533   5.591  18.205  0.00  0.00    +0.000 C 
ATOM      2  O   UNL     1       5.116   5.516  19.290  0.00  0.00    +0.000 OA
ENDROOT
BRANCH   1   3
ATOM      3  C   UNL     1       5.310   5.315  16.960  0.00  0.00    +0.000 A 
ATOM      4  C   UNL     1       6.590   5.841  16.748  0.00  0.00    +0.000 A 
ATOM      5  C   UNL     1       7.269   5.595  15.546  0.00  0.00    +0.000 A 
ATOM      6  C   UNL     1       6.668   4.804  14.573  0.00  0.00    +0.000 A 
ATOM      7  C   UNL     1       5.422   4.229  14.791  0.00  0.00    +0.000 A 
ATOM      8  C   UNL     1       4.741   4.482  15.986  0.00  0.00    +0.000 A 
BRANCH   6   9
ATOM      9  O   UNL     1       7.280   4.567  13.381  0.00  0.00    +0.000 OA
ATOM     10  H   UNL     1       7.955   5.250  13.230  0.00  0.00    +0.000 HD
ENDBRANCH   6   9
ENDBRANCH   1   3
BRANCH   1  11
ATOM     11  C   UNL     1       3.033   5.921  18.101  0.00  0.00    +0.000 C 
BRANCH  11  12
ATOM     12  C   UNL     1       2.186   4.820  18.739  0.00  0.00    +0.000 A 
ATOM     13  C   UNL     1       1.848   4.884  20.099  0.00  0.00    +0.000 A 
ATOM     14  C   UNL     1       1.120   3.853  20.700  0.00  0.00    +0.000 A 
ATOM     15  C   UNL     1       0.719   2.748  19.950  0.00  0.00    +0.000 A 
ATOM     16  C   UNL     1       1.031   2.681  18.596  0.00  0.00    +0.000 A 
ATOM     17  C   UNL     1       1.750   3.713  17.993  0.00  0.00    +0.000 A 
ENDBRANCH  11  12
BRANCH  11  19
ATOM     18  C   UNL     1       2.220   8.341  17.768  0.00  0.00    +0.000 C 
ATOM     19  C   UNL     1       2.721   7.288  18.749  0.00  0.00    +0.000 C 
ENDBRANCH  11  19
ENDBRANCH   1  11
TORSDOF 5
ENDMDL
MODEL 8
REMARK VINA RESULT:      -6.9      2.278      5.981
REMARK  Name = 
REMARK  6 active torsions:
REMARK  status: ('A' for Active; 'I' for Inactive)
REMARK    1  A    between atoms: C_1  and  C_2
REMARK    2  A    between atoms: C_2  and  C_3
REMARK    3  A    between atoms: C_3  and  C_4
REMARK    4  A    between atoms: C_3  and  C_13
REMARK    5  A    between atoms: C_4  and  C_6
REMARK    6  A    between atoms: C_9  and  O_10
REMARK                            x       y       z     vdW  Elec       q    Type
REMARK                         _______ _______ _______ _____ _____    ______ ____
ROOT
ATOM      1  C   UNL     1       3.928   4.410  17.259  0.00  0.00    +0.000 C 
ATOM      2  O   UNL     1       3.565   3.231  17.218  0.00  0.00    +0.000 OA
ENDROOT
BRANCH   1   3
ATOM      3  C   UNL     1       3.265   5.325  18.236  0.00  0.00    +0.000 A 
ATOM      4  C   UNL     1       2.974   6.660  17.929  0.00  0.00    +0.000 A 
ATOM      5  C   UNL     1       2.392   7.499  18.890  0.00  0.00    +0.000 A 
ATOM      6  C   UNL     1       2.084   6.987  20.146  0.00  0.00    +0.000 A 
ATOM      7  C   UNL     1       2.314   5.650  20.447  0.00  0.00    +0.000 A 
ATOM      8  C   UNL     1       2.904   4.816  19.492  0.00  0.00    +0.000 A 
BRANCH   6   9
ATOM      9  O   UNL     1       1.546   7.776  21.116  0.00  0.00    +0.000 OA
ATOM     10  H   UNL     1       0.625   7.507  21.268  0.00  0.00    +0.000 HD
ENDBRANCH   6   9
ENDBRANCH   1   3
BRANCH   1  11
ATOM     11  C   UNL     1       5.058   4.952  16.366  0.00  0.00    +0.000 C 
BRANCH  11  12
ATOM     12  C   UNL     1       6.122   5.661  17.204  0.00  0.00    +0.000 A 
ATOM     13  C   UNL     1       6.499   6.979  16.905  0.00  0.00    +0.000 A 
ATOM     14  C   UNL     1       7.510   7.613  17.634  0.00  0.00    +0.000 A 
ATOM     15  C   UNL     1       8.154   6.939  18.670  0.00  0.00    +0.000 A 
ATOM     16  C   UNL     1       7.777   5.639  18.990  0.00  0.00    +0.000 A 
ATOM     17  C   UNL     1       6.763   5.008  18.270  0.00  0.00    +0.000 A 
ENDBRANCH  11  12
BRANCH  11  19
ATOM     18  C   UNL     1       6.391   4.298  14.263  0.00  0.00    +0.000 C 
ATOM     19  C   UNL     1       5.693   3.820  15.530  0.00  0.00    +0.000 C 
ENDBRANCH  11  19
ENDBRANCH   1  11
TORSDOF 5
ENDMDL
MODEL 9
REMARK VINA RESULT:      -6.9      2.424      5.922
REMARK  Name = 
REMARK  6 active torsions:
REMARK  status: ('A' for Active; 'I' for Inactive)
REMARK    1  A    between atoms: C_1  and  C_2
REMARK    2  A    between atoms: C_2  and  C_3
REMARK    3  A    between atoms: C_3  and  C_4
REMARK    4  A    between atoms: C_3  and  C_13
REMARK    5  A    between atoms: C_4  and  C_6
REMARK    6  A    between atoms: C_9  and  O_10
REMARK                            x       y       z     vdW  Elec       q    Type
REMARK                         _______ _______ _______ _____ _____    ______ ____
ROOT
ATOM      1  C   UNL     1       3.286   6.342  17.800  0.00  0.00    +0.000 C 
ATOM      2  O   UNL     1       2.832   7.482  17.665  0.00  0.00    +0.000 OA
ENDROOT
BRANCH   1   3
ATOM      3  C   UNL     1       2.617   5.420  18.767  0.00  0.00    +0.000 A 
ATOM      4  C   UNL     1       2.870   5.472  20.143  0.00  0.00    +0.000 A 
ATOM      5  C   UNL     1       2.257   4.559  21.013  0.00  0.00    +0.000 A 
ATOM      6  C   UNL     1       1.375   3.614  20.498  0.00  0.00    +0.000 A 
ATOM      7  C   UNL     1       1.070   3.587  19.143  0.00  0.00    +0.000 A 
ATOM      8  C   UNL     1       1.690   4.491  18.274  0.00  0.00    +0.000 A 
BRANCH   6   9
ATOM      9  O   UNL     1       0.782   2.692  21.305  0.00  0.00    +0.000 OA
ATOM     10  H   UNL     1       1.344   2.545  22.084  0.00  0.00    +0.000 HD
ENDBRANCH   6   9
ENDBRANCH   1   3
BRANCH   1  11
ATOM     11  C   UNL     1       4.487   5.835  16.982  0.00  0.00    +0.000 C 
BRANCH  11  12
ATOM     12  C   UNL     1       5.805   6.227  17.650  0.00  0.00    +0.000 A 
ATOM     13  C   UNL     1       6.534   7.333  17.187  0.00  0.00    +0.000 A 
ATOM     14  C   UNL     1       7.767   7.662  17.759  0.00  0.00    +0.000 A 
ATOM     15  C   UNL     1       8.284   6.894  18.800  0.00  0.00    +0.000 A 
ATOM     16  C   UNL     1       7.563   5.807  19.282  0.00  0.00    +0.000 A 
ATOM     17  C   UNL     1       6.329   5.481  18.719  0.00  0.00    +0.000 A 
ENDBRANCH  11  12
BRANCH  11  19
ATOM     18  C   UNL     1       5.460   3.753  15.822  0.00  0.00    +0.000 C 
ATOM     19  C   UNL     1       4.415   4.306  16.783  0.00  0.00    +0.000 C 
ENDBRANCH  11  19
ENDBRANCH   1  11
TORSDOF 5
ENDMDL
