MODEL 1
REMARK VINA RESULT:      -6.8      0.000      0.000
REMARK  Name = 
REMARK  2 active torsions:
REMARK  status: ('A' for Active; 'I' for Inactive)
REMARK    1  A    between atoms: C_2  and  C_3
REMARK    2  A    between atoms: N_5  and  C_6
REMARK                            x       y       z     vdW  Elec       q    Type
REMARK                         _______ _______ _______ _____ _____    ______ ____
ROOT
ATOM      1  C   UNL     1       1.509  13.426  21.235  0.00  0.00    +0.000 A 
ATOM      2  N   UNL     1       1.205  12.153  20.968  0.00  0.00    +0.000 NA
ATOM      3  N   UNL     1      -0.044  11.951  21.440  0.00  0.00    +0.000 N 
ATOM      4  C   UNL     1      -0.558  13.074  22.070  0.00  0.00    +0.000 A 
ATOM      5  C   UNL     1       0.436  14.034  21.925  0.00  0.00    +0.000 A 
ATOM      6  C   UNL     1       0.338  15.430  22.413  0.00  0.00    +0.000 C 
ATOM      7  S   UNL     1      -1.346  16.008  22.265  0.00  0.00    +0.000 S 
ATOM      8  O   UNL     1      -1.683  16.165  20.860  0.00  0.00    +0.000 OA
ATOM      9  O   UNL     1      -1.519  17.108  23.195  0.00  0.00    +0.000 OA
ATOM     10  C   UNL     1      -2.320  14.647  22.869  0.00  0.00    +0.000 A 
ATOM     11  C   UNL     1      -3.514  14.960  23.532  0.00  0.00    +0.000 A 
ATOM     12  C   UNL     1      -4.286  13.937  24.067  0.00  0.00    +0.000 A 
ATOM     13  C   UNL     1      -3.850  12.619  23.954  0.00  0.00    +0.000 A 
ATOM     14  C   UNL     1      -2.642  12.317  23.307  0.00  0.00    +0.000 A 
ATOM     15  C   UNL     1      -1.854  13.320  22.728  0.00  0.00    +0.000 A 
ENDROOT
BRANCH   1  17
ATOM     16  O   UNL     1       3.718  13.989  21.770  0.00  0.00    +0.000 OA
ATOM     17  C   UNL     1       2.817  14.047  20.930  0.00  0.00    +0.000 C 
ATOM     18  N   UNL     1       3.011  14.703  19.718  0.00  0.00    +0.000 N 
ATOM     19  C   UNL     1       4.343  15.189  19.362  0.00  0.00    +0.000 C 
ATOM     20  C   UNL     1       4.334  16.708  19.169  0.00  0.00    +0.000 C 
ATOM     21  O   UNL     1       3.342  17.096  18.204  0.00  0.00    +0.000 OA
ATOM     22  C   UNL     1       2.035  16.682  18.631  0.00  0.00    +0.000 C 
ATOM     23  C   UNL     1       1.954  15.158  18.805  0.00  0.00    +0.000 C 
ENDBRANCH   1  17
BRANCH   3  24
ATOM     24  C   UNL     1      -0.637  10.622  21.269  0.00  0.00    +0.000 C 
ATOM     25  C   UNL     1      -0.315   9.702  22.457  0.00  0.00    +0.000 C 
ATOM     26  C   UNL     1       1.087   9.104  22.361  0.00  0.00    +0.000 C 
ATOM     27  C   UNL     1       1.340   8.434  21.012  0.00  0.00    +0.000 C 
ATOM     28  N   UNL     1       1.059   9.310  19.881  0.00  0.00    +0.000 NA
ATOM     29  C   UNL     1      -0.279   9.909  19.940  0.00  0.00    +0.000 C 
ATOM     30  H   UNL     1       1.190   8.812  19.002  0.00  0.00    +0.000 HD
ENDBRANCH   3  24
TORSDOF 2
ENDMDL
MODEL 2
REMARK VINA RESULT:      -6.8      3.558      4.150
REMARK  Name = 
REMARK  2 active torsions:
REMARK  status: ('A' for Active; 'I' for Inactive)
REMARK    1  A    between atoms: C_2  and  C_3
REMARK    2  A    between atoms: N_5  and  C_6
REMARK                            x       y       z     vdW  Elec       q    Type
REMARK                         _______ _______ _______ _____ _____    ______ ____
ROOT
ATOM      1  C   UNL     1      -1.583  12.711  19.676  0.00  0.00    +0.000 A 
ATOM      2  N   UNL     1      -2.021  11.877  18.729  0.00  0.00    +0.000 NA
ATOM      3  N   UNL     1      -3.359  11.792  18.883  0.00  0.00    +0.000 N 
ATOM      4  C   UNL     1      -3.814  12.528  19.966  0.00  0.00    +0.000 A 
ATOM      5  C   UNL     1      -2.671  13.137  20.471  0.00  0.00    +0.000 A 
ATOM      6  C   UNL     1      -2.650  14.063  21.628  0.00  0.00    +0.000 C 
ATOM      7  S   UNL     1      -4.141  15.046  21.646  0.00  0.00    +0.000 S 
ATOM      8  O   UNL     1      -4.125  15.974  20.528  0.00  0.00    +0.000 OA
ATOM      9  O   UNL     1      -4.340  15.523  23.002  0.00  0.00    +0.000 OA
ATOM     10  C   UNL     1      -5.432  13.869  21.307  0.00  0.00    +0.000 A 
ATOM     11  C   UNL     1      -6.678  14.097  21.906  0.00  0.00    +0.000 A 
ATOM     12  C   UNL     1      -7.705  13.182  21.715  0.00  0.00    +0.000 A 
ATOM     13  C   UNL     1      -7.473  12.043  20.948  0.00  0.00    +0.000 A 
ATOM     14  C   UNL     1      -6.216  11.813  20.368  0.00  0.00    +0.000 A 
ATOM     15  C   UNL     1      -5.168  12.729  20.514  0.00  0.00    +0.000 A 
ENDROOT
BRANCH   1  17
ATOM     16  O   UNL     1       0.516  12.324  20.640  0.00  0.00    +0.000 OA
ATOM     17  C   UNL     1      -0.158  13.041  19.895  0.00  0.00    +0.000 C 
ATOM     18  N   UNL     1       0.401  14.159  19.282  0.00  0.00    +0.000 N 
ATOM     19  C   UNL     1       1.840  14.399  19.386  0.00  0.00    +0.000 C 
ATOM     20  C   UNL     1       2.118  15.738  20.076  0.00  0.00    +0.000 C 
ATOM     21  O   UNL     1       1.438  16.811  19.405  0.00  0.00    +0.000 OA
ATOM     22  C   UNL     1       0.020  16.586  19.402  0.00  0.00    +0.000 C 
ATOM     23  C   UNL     1      -0.342  15.276  18.686  0.00  0.00    +0.000 C 
ENDBRANCH   1  17
BRANCH   3  24
ATOM     24  C   UNL     1      -4.105  10.937  17.955  0.00  0.00    +0.000 C 
ATOM     25  C   UNL     1      -3.399   9.590  17.735  0.00  0.00    +0.000 C 
ATOM     26  C   UNL     1      -2.250   9.697  16.735  0.00  0.00    +0.000 C 
ATOM     27  C   UNL     1      -2.681  10.357  15.427  0.00  0.00    +0.000 C 
ATOM     28  N   UNL     1      -3.330  11.647  15.627  0.00  0.00    +0.000 NA
ATOM     29  C   UNL     1      -4.437  11.586  16.587  0.00  0.00    +0.000 C 
ATOM     30  H   UNL     1      -3.647  12.029  14.738  0.00  0.00    +0.000 HD
ENDBRANCH   3  24
TORSDOF 2
ENDMDL
MODEL 3
REMARK VINA RESULT:      -6.7      3.991      5.242
REMARK  Name = 
REMARK  2 active torsions:
REMARK  status: ('A' for Active; 'I' for Inactive)
REMARK    1  A    between atoms: C_2  and  C_3
REMARK    2  A    between atoms: N_5  and  C_6
REMARK                            x       y       z     vdW  Elec       q    Type
REMARK                         _______ _______ _______ _____ _____    ______ ____
ROOT
ATOM      1  C   UNL     1      -0.825  12.230  19.640  0.00  0.00    +0.000 A 
ATOM      2  N   UNL     1      -1.140  12.550  20.898  0.00  0.00    +0.000 NA
ATOM      3  N   UNL     1      -2.488  12.548  20.967  0.00  0.00    +0.000 N 
ATOM      4  C   UNL     1      -3.079  12.277  19.743  0.00  0.00    +0.000 A 
ATOM      5  C   UNL     1      -2.007  12.056  18.886  0.00  0.00    +0.000 A 
ATOM      6  C   UNL     1      -2.133  11.694  17.455  0.00  0.00    +0.000 C 
ATOM      7  S   UNL     1      -3.564  10.653  17.214  0.00  0.00    +0.000 S 
ATOM      8  O   UNL     1      -3.329   9.356  17.824  0.00  0.00    +0.000 OA
ATOM      9  O   UNL     1      -3.958  10.757  15.821  0.00  0.00    +0.000 OA
ATOM     10  C   UNL     1      -4.833  11.442  18.181  0.00  0.00    +0.000 A 
ATOM     11  C   UNL     1      -6.149  11.349  17.707  0.00  0.00    +0.000 A 
ATOM     12  C   UNL     1      -7.170  11.991  18.396  0.00  0.00    +0.000 A 
ATOM     13  C   UNL     1      -6.866  12.731  19.536  0.00  0.00    +0.000 A 
ATOM     14  C   UNL     1      -5.543  12.835  19.992  0.00  0.00    +0.000 A 
ATOM     15  C   UNL     1      -4.494  12.177  19.340  0.00  0.00    +0.000 A 
ENDROOT
BRANCH   1  17
ATOM     16  O   UNL     1       1.183  11.110  19.195  0.00  0.00    +0.000 OA
ATOM     17  C   UNL     1       0.559  12.173  19.122  0.00  0.00    +0.000 C 
ATOM     18  N   UNL     1       1.149  13.312  18.581  0.00  0.00    +0.000 N 
ATOM     19  C   UNL     1       2.461  13.215  17.943  0.00  0.00    +0.000 C 
ATOM     20  C   UNL     1       3.482  14.105  18.659  0.00  0.00    +0.000 C 
ATOM     21  O   UNL     1       3.014  15.462  18.731  0.00  0.00    +0.000 OA
ATOM     22  C   UNL     1       1.770  15.530  19.444  0.00  0.00    +0.000 C 
ATOM     23  C   UNL     1       0.680  14.692  18.759  0.00  0.00    +0.000 C 
ENDBRANCH   1  17
BRANCH   3  24
ATOM     24  C   UNL     1      -3.111  12.861  22.257  0.00  0.00    +0.000 C 
ATOM     25  C   UNL     1      -3.539  14.335  22.335  0.00  0.00    +0.000 C 
ATOM     26  C   UNL     1      -2.367  15.260  22.660  0.00  0.00    +0.000 C 
ATOM     27  C   UNL     1      -1.596  14.804  23.897  0.00  0.00    +0.000 C 
ATOM     28  N   UNL     1      -1.167  13.413  23.819  0.00  0.00    +0.000 NA
ATOM     29  C   UNL     1      -2.264  12.493  23.502  0.00  0.00    +0.000 C 
ATOM     30  H   UNL     1      -0.702  13.133  24.681  0.00  0.00    +0.000 HD
ENDBRANCH   3  24
TORSDOF 2
ENDMDL
MODEL 4
REMARK VINA RESULT:      -6.7      3.923      6.993
REMARK  Name = 
REMARK  2 active torsions:
REMARK  status: ('A' for Active; 'I' for Inactive)
REMARK    1  A    between atoms: C_2  and  C_3
REMARK    2  A    between atoms: N_5  and  C_6
REMARK                            x       y       z     vdW  Elec       q    Type
REMARK                         _______ _______ _______ _____ _____    ______ ____
ROOT
ATOM      1  C   UNL     1      -3.765  14.043  20.829  0.00  0.00    +0.000 A 
ATOM      2  N   UNL     1      -4.717  13.366  20.182  0.00  0.00    +0.000 NA
ATOM      3  N   UNL     1      -4.101  12.332  19.570  0.00  0.00    +0.000 N 
ATOM      4  C   UNL     1      -2.729  12.345  19.764  0.00  0.00    +0.000 A 
ATOM      5  C   UNL     1      -2.509  13.440  20.590  0.00  0.00    +0.000 A 
ATOM      6  C   UNL     1      -1.184  13.853  21.108  0.00  0.00    +0.000 C 
ATOM      7  S   UNL     1      -0.179  12.411  21.426  0.00  0.00    +0.000 S 
ATOM      8  O   UNL     1      -0.722  11.681  22.559  0.00  0.00    +0.000 OA
ATOM      9  O   UNL     1       1.211  12.828  21.409  0.00  0.00    +0.000 OA
ATOM     10  C   UNL     1      -0.439  11.386  19.994  0.00  0.00    +0.000 A 
ATOM     11  C   UNL     1       0.636  10.591  19.574  0.00  0.00    +0.000 A 
ATOM     12  C   UNL     1       0.502   9.811  18.432  0.00  0.00    +0.000 A 
ATOM     13  C   UNL     1      -0.690   9.848  17.713  0.00  0.00    +0.000 A 
ATOM     14  C   UNL     1      -1.754  10.663  18.130  0.00  0.00    +0.000 A 
ATOM     15  C   UNL     1      -1.665  11.438  19.293  0.00  0.00    +0.000 A 
ENDROOT
BRANCH   1  17
ATOM     16  O   UNL     1      -4.045  16.363  20.984  0.00  0.00    +0.000 OA
ATOM     17  C   UNL     1      -4.006  15.289  21.590  0.00  0.00    +0.000 C 
ATOM     18  N   UNL     1      -4.164  15.241  22.972  0.00  0.00    +0.000 N 
ATOM     19  C   UNL     1      -4.543  16.452  23.700  0.00  0.00    +0.000 C 
ATOM     20  C   UNL     1      -3.470  16.828  24.725  0.00  0.00    +0.000 C 
ATOM     21  O   UNL     1      -3.198  15.728  25.609  0.00  0.00    +0.000 OA
ATOM     22  C   UNL     1      -2.741  14.586  24.868  0.00  0.00    +0.000 C 
ATOM     23  C   UNL     1      -3.788  14.122  23.845  0.00  0.00    +0.000 C 
ENDBRANCH   1  17
BRANCH   3  24
ATOM     24  C   UNL     1      -4.926  11.408  18.786  0.00  0.00    +0.000 C 
ATOM     25  C   UNL     1      -5.045  11.860  17.321  0.00  0.00    +0.000 C 
ATOM     26  C   UNL     1      -6.085  12.964  17.140  0.00  0.00    +0.000 C 
ATOM     27  C   UNL     1      -7.433  12.594  17.755  0.00  0.00    +0.000 C 
ATOM     28  N   UNL     1      -7.331  12.187  19.151  0.00  0.00    +0.000 NA
ATOM     29  C   UNL     1      -6.336  11.131  19.366  0.00  0.00    +0.000 C 
ATOM     30  H   UNL     1      -8.240  11.901  19.508  0.00  0.00    +0.000 HD
ENDBRANCH   3  24
TORSDOF 2
ENDMDL
MODEL 5
REMARK VINA RESULT:      -6.4      3.010      5.993
REMARK  Name = 
REMARK  2 active torsions:
REMARK  status: ('A' for Active; 'I' for Inactive)
REMARK    1  A    between atoms: C_2  and  C_3
REMARK    2  A    between atoms: N_5  and  C_6
REMARK                            x       y       z     vdW  Elec       q    Type
REMARK                         _______ _______ _______ _____ _____    ______ ____
ROOT
ATOM      1  C   UNL     1      -1.443  12.192  21.706  0.00  0.00    +0.000 A 
ATOM      2  N   UNL     1      -2.731  12.461  21.932  0.00  0.00    +0.000 NA
ATOM      3  N   UNL     1      -2.969  13.674  21.391  0.00  0.00    +0.000 N 
ATOM      4  C   UNL     1      -1.828  14.243  20.847  0.00  0.00    +0.000 A 
ATOM      5  C   UNL     1      -0.843  13.281  21.034  0.00  0.00    +0.000 A 
ATOM      6  C   UNL     1       0.562  13.415  20.584  0.00  0.00    +0.000 C 
ATOM      7  S   UNL     1       0.624  14.319  19.044  0.00  0.00    +0.000 S 
ATOM      8  O   UNL     1       0.052  13.509  17.982  0.00  0.00    +0.000 OA
ATOM      9  O   UNL     1       1.956  14.880  18.913  0.00  0.00    +0.000 OA
ATOM     10  C   UNL     1      -0.497  15.677  19.302  0.00  0.00    +0.000 A 
ATOM     11  C   UNL     1      -0.192  16.887  18.664  0.00  0.00    +0.000 A 
ATOM     12  C   UNL     1      -1.006  17.993  18.873  0.00  0.00    +0.000 A 
ATOM     13  C   UNL     1      -2.101  17.885  19.727  0.00  0.00    +0.000 A 
ATOM     14  C   UNL     1      -2.387  16.675  20.377  0.00  0.00    +0.000 A 
ATOM     15  C   UNL     1      -1.606  15.532  20.166  0.00  0.00    +0.000 A 
ENDROOT
BRANCH   1  17
ATOM     16  O   UNL     1      -0.441  10.892  23.376  0.00  0.00    +0.000 OA
ATOM     17  C   UNL     1      -0.754  10.974  22.185  0.00  0.00    +0.000 C 
ATOM     18  N   UNL     1      -0.449   9.949  21.294  0.00  0.00    +0.000 N 
ATOM     19  C   UNL     1       0.101   8.691  21.797  0.00  0.00    +0.000 C 
ATOM     20  C   UNL     1       1.486   8.425  21.198  0.00  0.00    +0.000 C 
ATOM     21  O   UNL     1       1.436   8.458  19.762  0.00  0.00    +0.000 OA
ATOM     22  C   UNL     1       0.979   9.739  19.302  0.00  0.00    +0.000 C 
ATOM     23  C   UNL     1      -0.428  10.058  19.830  0.00  0.00    +0.000 C 
ENDBRANCH   1  17
BRANCH   3  24
ATOM     24  C   UNL     1      -4.328  14.216  21.489  0.00  0.00    +0.000 C 
ATOM     25  C   UNL     1      -4.517  15.038  22.775  0.00  0.00    +0.000 C 
ATOM     26  C   UNL     1      -4.767  14.153  23.994  0.00  0.00    +0.000 C 
ATOM     27  C   UNL     1      -5.898  13.153  23.761  0.00  0.00    +0.000 C 
ATOM     28  N   UNL     1      -5.712  12.354  22.556  0.00  0.00    +0.000 NA
ATOM     29  C   UNL     1      -5.464  13.170  21.362  0.00  0.00    +0.000 C 
ATOM     30  H   UNL     1      -6.510  11.738  22.409  0.00  0.00    +0.000 HD
ENDBRANCH   3  24
TORSDOF 2
ENDMDL
MODEL 6
REMARK VINA RESULT:      -6.4      3.903      5.418
REMARK  Name = 
REMARK  2 active torsions:
REMARK  status: ('A' for Active; 'I' for Inactive)
REMARK    1  A    between atoms: C_2  and  C_3
REMARK    2  A    between atoms: N_5  and  C_6
REMARK                            x       y       z     vdW  Elec       q    Type
REMARK                         _______ _______ _______ _____ _____    ______ ____
ROOT
ATOM      1  C   UNL     1      -1.041  12.511  20.781  0.00  0.00    +0.000 A 
ATOM      2  N   UNL     1      -1.795  12.744  21.859  0.00  0.00    +0.000 NA
ATOM      3  N   UNL     1      -3.079  12.696  21.446  0.00  0.00    +0.000 N 
ATOM      4  C   UNL     1      -3.186  12.483  20.080  0.00  0.00    +0.000 A 
ATOM      5  C   UNL     1      -1.872  12.347  19.650  0.00  0.00    +0.000 A 
ATOM      6  C   UNL     1      -1.466  12.070  18.252  0.00  0.00    +0.000 C 
ATOM      7  S   UNL     1      -2.667  11.002  17.471  0.00  0.00    +0.000 S 
ATOM      8  O   UNL     1      -2.596   9.677  18.064  0.00  0.00    +0.000 OA
ATOM      9  O   UNL     1      -2.549  11.178  16.036  0.00  0.00    +0.000 OA
ATOM     10  C   UNL     1      -4.233  11.691  17.960  0.00  0.00    +0.000 A 
ATOM     11  C   UNL     1      -5.290  11.587  17.047  0.00  0.00    +0.000 A 
ATOM     12  C   UNL     1      -6.520  12.153  17.358  0.00  0.00    +0.000 A 
ATOM     13  C   UNL     1      -6.675  12.832  18.564  0.00  0.00    +0.000 A 
ATOM     14  C   UNL     1      -5.605  12.949  19.465  0.00  0.00    +0.000 A 
ATOM     15  C   UNL     1      -4.361  12.364  19.197  0.00  0.00    +0.000 A 
ENDROOT
BRANCH   1  17
ATOM     16  O   UNL     1       1.047  11.581  21.292  0.00  0.00    +0.000 OA
ATOM     17  C   UNL     1       0.438  12.528  20.786  0.00  0.00    +0.000 C 
ATOM     18  N   UNL     1       1.125  13.610  20.243  0.00  0.00    +0.000 N 
ATOM     19  C   UNL     1       2.581  13.557  20.121  0.00  0.00    +0.000 C 
ATOM     20  C   UNL     1       3.236  14.682  20.928  0.00  0.00    +0.000 C 
ATOM     21  O   UNL     1       2.707  15.962  20.544  0.00  0.00    +0.000 OA
ATOM     22  C   UNL     1       1.288  16.009  20.763  0.00  0.00    +0.000 C 
ATOM     23  C   UNL     1       0.556  14.932  19.949  0.00  0.00    +0.000 C 
ENDBRANCH   1  17
BRANCH   3  24
ATOM     24  C   UNL     1      -4.131  12.911  22.443  0.00  0.00    +0.000 C 
ATOM     25  C   UNL     1      -4.760  14.307  22.310  0.00  0.00    +0.000 C 
ATOM     26  C   UNL     1      -3.903  15.391  22.960  0.00  0.00    +0.000 C 
ATOM     27  C   UNL     1      -3.530  15.048  24.401  0.00  0.00    +0.000 C 
ATOM     28  N   UNL     1      -2.911  13.734  24.531  0.00  0.00    +0.000 NA
ATOM     29  C   UNL     1      -3.703  12.666  23.913  0.00  0.00    +0.000 C 
ATOM     30  H   UNL     1      -2.725  13.522  25.509  0.00  0.00    +0.000 HD
ENDBRANCH   3  24
TORSDOF 2
ENDMDL
MODEL 7
REMARK VINA RESULT:      -6.3      2.642      5.307
REMARK  Name = 
REMARK  2 active torsions:
REMARK  status: ('A' for Active; 'I' for Inactive)
REMARK    1  A    between atoms: C_2  and  C_3
REMARK    2  A    between atoms: N_5  and  C_6
REMARK                            x       y       z     vdW  Elec       q    Type
REMARK                         _______ _______ _______ _____ _____    ______ ____
ROOT
ATOM      1  C   UNL     1      -0.870  15.682  20.805  0.00  0.00    +0.000 A 
ATOM      2  N   UNL     1      -1.257  15.850  22.072  0.00  0.00    +0.000 NA
ATOM      3  N   UNL     1      -1.136  14.646  22.671  0.00  0.00    +0.000 N 
ATOM      4  C   UNL     1      -0.717  13.659  21.793  0.00  0.00    +0.000 A 
ATOM      5  C   UNL     1      -0.529  14.328  20.589  0.00  0.00    +0.000 A 
ATOM      6  C   UNL     1      -0.046  13.695  19.339  0.00  0.00    +0.000 C 
ATOM      7  S   UNL     1       1.138  12.415  19.724  0.00  0.00    +0.000 S 
ATOM      8  O   UNL     1       2.357  13.018  20.236  0.00  0.00    +0.000 OA
ATOM      9  O   UNL     1       1.180  11.499  18.599  0.00  0.00    +0.000 OA
ATOM     10  C   UNL     1       0.396  11.543  21.086  0.00  0.00    +0.000 A 
ATOM     11  C   UNL     1       0.646  10.167  21.177  0.00  0.00    +0.000 A 
ATOM     12  C   UNL     1       0.050   9.430  22.192  0.00  0.00    +0.000 A 
ATOM     13  C   UNL     1      -0.803  10.067  23.090  0.00  0.00    +0.000 A 
ATOM     14  C   UNL     1      -1.064  11.441  22.980  0.00  0.00    +0.000 A 
ATOM     15  C   UNL     1      -0.456  12.221  21.988  0.00  0.00    +0.000 A 
ENDROOT
BRANCH   1  17
ATOM     16  O   UNL     1      -1.980  17.062  19.273  0.00  0.00    +0.000 OA
ATOM     17  C   UNL     1      -0.900  16.750  19.782  0.00  0.00    +0.000 C 
ATOM     18  N   UNL     1       0.281  17.374  19.390  0.00  0.00    +0.000 N 
ATOM     19  C   UNL     1       0.230  18.522  18.487  0.00  0.00    +0.000 C 
ATOM     20  C   UNL     1       0.995  18.231  17.192  0.00  0.00    +0.000 C 
ATOM     21  O   UNL     1       2.344  17.826  17.475  0.00  0.00    +0.000 OA
ATOM     22  C   UNL     1       2.356  16.642  18.289  0.00  0.00    +0.000 C 
ATOM     23  C   UNL     1       1.641  16.871  19.629  0.00  0.00    +0.000 C 
ENDBRANCH   1  17
BRANCH   3  24
ATOM     24  C   UNL     1      -1.491  14.545  24.090  0.00  0.00    +0.000 C 
ATOM     25  C   UNL     1      -2.956  14.121  24.277  0.00  0.00    +0.000 C 
ATOM     26  C   UNL     1      -3.923  15.291  24.105  0.00  0.00    +0.000 C 
ATOM     27  C   UNL     1      -3.540  16.490  24.970  0.00  0.00    +0.000 C 
ATOM     28  N   UNL     1      -2.157  16.912  24.780  0.00  0.00    +0.000 NA
ATOM     29  C   UNL     1      -1.198  15.813  24.932  0.00  0.00    +0.000 C 
ATOM     30  H   UNL     1      -1.927  17.678  25.409  0.00  0.00    +0.000 HD
ENDBRANCH   3  24
TORSDOF 2
ENDMDL
MODEL 8
REMARK VINA RESULT:      -6.3      2.964      5.169
REMARK  Name = 
REMARK  2 active torsions:
REMARK  status: ('A' for Active; 'I' for Inactive)
REMARK    1  A    between atoms: C_2  and  C_3
REMARK    2  A    between atoms: N_5  and  C_6
REMARK                            x       y       z     vdW  Elec       q    Type
REMARK                         _______ _______ _______ _____ _____    ______ ____
ROOT
ATOM      1  C   UNL     1       1.557  13.486  20.767  0.00  0.00    +0.000 A 
ATOM      2  N   UNL     1       0.524  13.977  21.456  0.00  0.00    +0.000 NA
ATOM      3  N   UNL     1      -0.579  13.359  20.982  0.00  0.00    +0.000 N 
ATOM      4  C   UNL     1      -0.292  12.492  19.940  0.00  0.00    +0.000 A 
ATOM      5  C   UNL     1       1.090  12.559  19.808  0.00  0.00    +0.000 A 
ATOM      6  C   UNL     1       1.884  11.774  18.834  0.00  0.00    +0.000 C 
ATOM      7  S   UNL     1       1.147  10.163  18.607  0.00  0.00    +0.000 S 
ATOM      8  O   UNL     1       1.313   9.378  19.819  0.00  0.00    +0.000 OA
ATOM      9  O   UNL     1       1.592   9.649  17.325  0.00  0.00    +0.000 OA
ATOM     10  C   UNL     1      -0.593  10.506  18.463  0.00  0.00    +0.000 A 
ATOM     11  C   UNL     1      -1.343   9.667  17.627  0.00  0.00    +0.000 A 
ATOM     12  C   UNL     1      -2.695   9.922  17.439  0.00  0.00    +0.000 A 
ATOM     13  C   UNL     1      -3.279  11.019  18.069  0.00  0.00    +0.000 A 
ATOM     14  C   UNL     1      -2.516  11.866  18.888  0.00  0.00    +0.000 A 
ATOM     15  C   UNL     1      -1.158  11.621  19.123  0.00  0.00    +0.000 A 
ENDROOT
BRANCH   1  17
ATOM     16  O   UNL     1       3.605  13.526  21.903  0.00  0.00    +0.000 OA
ATOM     17  C   UNL     1       2.956  13.938  20.938  0.00  0.00    +0.000 C 
ATOM     18  N   UNL     1       3.516  14.832  20.029  0.00  0.00    +0.000 N 
ATOM     19  C   UNL     1       4.937  15.163  20.121  0.00  0.00    +0.000 C 
ATOM     20  C   UNL     1       5.131  16.663  20.363  0.00  0.00    +0.000 C 
ATOM     21  O   UNL     1       4.459  17.435  19.355  0.00  0.00    +0.000 OA
ATOM     22  C   UNL     1       3.052  17.151  19.356  0.00  0.00    +0.000 C 
ATOM     23  C   UNL     1       2.776  15.667  19.075  0.00  0.00    +0.000 C 
ENDBRANCH   1  17
BRANCH   3  24
ATOM     24  C   UNL     1      -1.872  13.708  21.577  0.00  0.00    +0.000 C 
ATOM     25  C   UNL     1      -2.490  14.944  20.903  0.00  0.00    +0.000 C 
ATOM     26  C   UNL     1      -1.884  16.247  21.419  0.00  0.00    +0.000 C 
ATOM     27  C   UNL     1      -1.910  16.333  22.944  0.00  0.00    +0.000 C 
ATOM     28  N   UNL     1      -1.304  15.175  23.589  0.00  0.00    +0.000 NA
ATOM     29  C   UNL     1      -1.857  13.902  23.115  0.00  0.00    +0.000 C 
ATOM     30  H   UNL     1      -1.386  15.247  24.602  0.00  0.00    +0.000 HD
ENDBRANCH   3  24
TORSDOF 2
ENDMDL
MODEL 9
REMARK VINA RESULT:      -6.3      3.984      6.540
REMARK  Name = 
REMARK  2 active torsions:
REMARK  status: ('A' for Active; 'I' for Inactive)
REMARK    1  A    between atoms: C_2  and  C_3
REMARK    2  A    between atoms: N_5  and  C_6
REMARK                            x       y       z     vdW  Elec       q    Type
REMARK                         _______ _______ _______ _____ _____    ______ ____
ROOT
ATOM      1  C   UNL     1      -2.428  13.453  21.502  0.00  0.00    +0.000 A 
ATOM      2  N   UNL     1      -3.763  13.479  21.487  0.00  0.00    +0.000 NA
ATOM      3  N   UNL     1      -4.148  12.748  20.419  0.00  0.00    +0.000 N 
ATOM      4  C   UNL     1      -3.070  12.274  19.688  0.00  0.00    +0.000 A 
ATOM      5  C   UNL     1      -1.956  12.714  20.393  0.00  0.00    +0.000 A 
ATOM      6  C   UNL     1      -0.552  12.426  20.018  0.00  0.00    +0.000 C 
ATOM      7  S   UNL     1      -0.437  10.795  19.300  0.00  0.00    +0.000 S 
ATOM      8  O   UNL     1      -0.677   9.795  20.326  0.00  0.00    +0.000 OA
ATOM      9  O   UNL     1       0.766  10.752  18.489  0.00  0.00    +0.000 OA
ATOM     10  C   UNL     1      -1.825  10.719  18.188  0.00  0.00    +0.000 A 
ATOM     11  C   UNL     1      -1.667   9.962  17.020  0.00  0.00    +0.000 A 
ATOM     12  C   UNL     1      -2.702   9.912  16.094  0.00  0.00    +0.000 A 
ATOM     13  C   UNL     1      -3.870  10.631  16.333  0.00  0.00    +0.000 A 
ATOM     14  C   UNL     1      -4.011  11.404  17.496  0.00  0.00    +0.000 A 
ATOM     15  C   UNL     1      -3.001  11.453  18.465  0.00  0.00    +0.000 A 
ENDROOT
BRANCH   1  17
ATOM     16  O   UNL     1      -1.331  13.637  23.563  0.00  0.00    +0.000 OA
ATOM     17  C   UNL     1      -1.597  14.180  22.486  0.00  0.00    +0.000 C 
ATOM     18  N   UNL     1      -1.143  15.464  22.203  0.00  0.00    +0.000 N 
ATOM     19  C   UNL     1      -0.207  16.120  23.115  0.00  0.00    +0.000 C 
ATOM     20  C   UNL     1      -0.808  17.413  23.675  0.00  0.00    +0.000 C 
ATOM     21  O   UNL     1      -1.228  18.284  22.612  0.00  0.00    +0.000 OA
ATOM     22  C   UNL     1      -2.215  17.640  21.791  0.00  0.00    +0.000 C 
ATOM     23  C   UNL     1      -1.667  16.352  21.157  0.00  0.00    +0.000 C 
ENDBRANCH   1  17
BRANCH   3  24
ATOM     24  C   UNL     1      -5.584  12.601  20.168  0.00  0.00    +0.000 C 
ATOM     25  C   UNL     1      -6.099  13.668  19.188  0.00  0.00    +0.000 C 
ATOM     26  C   UNL     1      -6.342  15.012  19.873  0.00  0.00    +0.000 C 
ATOM     27  C   UNL     1      -7.222  14.877  21.114  0.00  0.00    +0.000 C 
ATOM     28  N   UNL     1      -6.726  13.883  22.058  0.00  0.00    +0.000 NA
ATOM     29  C   UNL     1      -6.475  12.579  21.436  0.00  0.00    +0.000 C 
ATOM     30  H   UNL     1      -7.365  13.788  22.845  0.00  0.00    +0.000 HD
ENDBRANCH   3  24
TORSDOF 2
ENDMDL
