MODEL 1
REMARK VINA RESULT:      -7.3      0.000      0.000
REMARK  Name = 
REMARK  6 active torsions:
REMARK  status: ('A' for Active; 'I' for Inactive)
REMARK    1  A    between atoms: C_2  and  C_3
REMARK    2  A    between atoms: C_6  and  C_7
REMARK    3  A    between atoms: C_7  and  O_8
REMARK    4  A    between atoms: O_8  and  C_9
REMARK    5  A    between atoms: C_9  and  C_10
REMARK    6  A    between atoms: N_15  and  C_16
REMARK                            x       y       z     vdW  Elec       q    Type
REMARK                         _______ _______ _______ _____ _____    ______ ____
ROOT
ATOM      1  C   UNL     1       1.872   2.805  19.425  0.00  0.00    +0.000 C 
ATOM      2  O   UNL     1       1.702   2.196  20.483  0.00  0.00    +0.000 OA
ATOM      3  N   UNL     1       1.559   4.143  19.273  0.00  0.00    +0.000 N 
ATOM      4  C   UNL     1       1.148   4.931  20.433  0.00  0.00    +0.000 C 
ATOM      5  C   UNL     1       1.998   6.207  20.573  0.00  0.00    +0.000 C 
ATOM      6  N   UNL     1       2.007   6.958  19.302  0.00  0.00    +0.000 N 
ATOM      7  C   UNL     1       2.441   6.173  18.130  0.00  0.00    +0.000 C 
ATOM      8  C   UNL     1       1.590   4.896  18.010  0.00  0.00    +0.000 C 
ENDROOT
BRANCH   6   9
ATOM      9  C   UNL     1       1.759   8.318  19.225  0.00  0.00    +0.000 A 
ATOM     10  C   UNL     1       2.200   9.018  18.076  0.00  0.00    +0.000 A 
ATOM     11  C   UNL     1       1.959  10.383  17.889  0.00  0.00    +0.000 A 
ATOM     12  C   UNL     1       1.260  11.089  18.850  0.00  0.00    +0.000 A 
ATOM     13 CL   UNL     1       0.951  12.768  18.626  0.00  0.00    +0.000 Cl
ATOM     14  C   UNL     1       0.810  10.453  19.995  0.00  0.00    +0.000 A 
ATOM     15  C   UNL     1       1.068   9.089  20.191  0.00  0.00    +0.000 A 
ATOM     16 CL   UNL     1       0.556   8.480  21.736  0.00  0.00    +0.000 Cl
ENDBRANCH   6   9
BRANCH   1  17
ATOM     17  C   UNL     1       2.531   2.111  18.230  0.00  0.00    +0.000 C 
BRANCH  17  18
ATOM     18  O   UNL     1       3.935   1.919  18.375  0.00  0.00    +0.000 OA
BRANCH  18  19
ATOM     19  C   UNL     1       4.527   2.892  19.243  0.00  0.00    +0.000 C 
BRANCH  19  23
ATOM     20  C   UNL     1       6.413   5.908  17.572  0.00  0.00    +0.000 A 
ATOM     21  C   UNL     1       5.948   5.133  16.534  0.00  0.00    +0.000 A 
ATOM     22  C   UNL     1       5.233   3.988  16.994  0.00  0.00    +0.000 A 
ATOM     23  C   UNL     1       5.167   3.925  18.373  0.00  0.00    +0.000 A 
ATOM     24  S   UNL     1       5.980   5.257  19.091  0.00  0.00    +0.000 S 
BRANCH  20  26
ATOM     25  N   UNL     1       7.784   8.083  17.274  0.00  0.00    +0.000 NA
ATOM     26  C   UNL     1       7.168   7.113  17.420  0.00  0.00    +0.000 C 
ENDBRANCH  20  26
ENDBRANCH  19  23
ENDBRANCH  18  19
ENDBRANCH  17  18
ENDBRANCH   1  17
TORSDOF 6
ENDMDL
MODEL 2
REMARK VINA RESULT:      -6.9      2.938      4.211
REMARK  Name = 
REMARK  6 active torsions:
REMARK  status: ('A' for Active; 'I' for Inactive)
REMARK    1  A    between atoms: C_2  and  C_3
REMARK    2  A    between atoms: C_6  and  C_7
REMARK    3  A    between atoms: C_7  and  O_8
REMARK    4  A    between atoms: O_8  and  C_9
REMARK    5  A    between atoms: C_9  and  C_10
REMARK    6  A    between atoms: N_15  and  C_16
REMARK                            x       y       z     vdW  Elec       q    Type
REMARK                         _______ _______ _______ _____ _____    ______ ____
ROOT
ATOM      1  C   UNL     1       2.318   7.175  19.140  0.00  0.00    +0.000 C 
ATOM      2  O   UNL     1       2.801   7.183  18.006  0.00  0.00    +0.000 OA
ATOM      3  N   UNL     1       1.757   8.296  19.723  0.00  0.00    +0.000 N 
ATOM      4  C   UNL     1       1.580   9.514  18.936  0.00  0.00    +0.000 C 
ATOM      5  C   UNL     1       0.127  10.018  19.003  0.00  0.00    +0.000 C 
ATOM      6  N   UNL     1      -0.309  10.135  20.409  0.00  0.00    +0.000 N 
ATOM      7  C   UNL     1      -0.152   8.902  21.203  0.00  0.00    +0.000 C 
ATOM      8  C   UNL     1       1.302   8.404  21.117  0.00  0.00    +0.000 C 
ENDROOT
BRANCH   6   9
ATOM      9  C   UNL     1      -0.938  11.260  20.915  0.00  0.00    +0.000 A 
ATOM     10  C   UNL     1      -0.570  11.715  22.205  0.00  0.00    +0.000 A 
ATOM     11  C   UNL     1      -1.118  12.864  22.782  0.00  0.00    +0.000 A 
ATOM     12  C   UNL     1      -2.050  13.602  22.077  0.00  0.00    +0.000 A 
ATOM     13 CL   UNL     1      -2.725  15.024  22.774  0.00  0.00    +0.000 Cl
ATOM     14  C   UNL     1      -2.448  13.200  20.812  0.00  0.00    +0.000 A 
ATOM     15  C   UNL     1      -1.913  12.036  20.243  0.00  0.00    +0.000 A 
ATOM     16 CL   UNL     1      -2.618  11.600  18.714  0.00  0.00    +0.000 Cl
ENDBRANCH   6   9
BRANCH   1  17
ATOM     17  C   UNL     1       2.243   5.871  19.939  0.00  0.00    +0.000 C 
BRANCH  17  18
ATOM     18  O   UNL     1       3.514   5.288  20.214  0.00  0.00    +0.000 OA
BRANCH  18  19
ATOM     19  C   UNL     1       3.631   3.968  19.672  0.00  0.00    +0.000 C 
BRANCH  19  23
ATOM     20  C   UNL     1       5.771   4.607  16.438  0.00  0.00    +0.000 A 
ATOM     21  C   UNL     1       4.605   4.016  16.006  0.00  0.00    +0.000 A 
ATOM     22  C   UNL     1       3.718   3.724  17.085  0.00  0.00    +0.000 A 
ATOM     23  C   UNL     1       4.232   4.106  18.309  0.00  0.00    +0.000 A 
ATOM     24  S   UNL     1       5.788   4.812  18.134  0.00  0.00    +0.000 S 
BRANCH  20  26
ATOM     25  N   UNL     1       7.706   5.342  14.882  0.00  0.00    +0.000 NA
ATOM     26  C   UNL     1       6.849   5.008  15.587  0.00  0.00    +0.000 C 
ENDBRANCH  20  26
ENDBRANCH  19  23
ENDBRANCH  18  19
ENDBRANCH  17  18
ENDBRANCH   1  17
TORSDOF 6
ENDMDL
MODEL 3
REMARK VINA RESULT:      -6.9      1.504      2.040
REMARK  Name = 
REMARK  6 active torsions:
REMARK  status: ('A' for Active; 'I' for Inactive)
REMARK    1  A    between atoms: C_2  and  C_3
REMARK    2  A    between atoms: C_6  and  C_7
REMARK    3  A    between atoms: C_7  and  O_8
REMARK    4  A    between atoms: O_8  and  C_9
REMARK    5  A    between atoms: C_9  and  C_10
REMARK    6  A    between atoms: N_15  and  C_16
REMARK                            x       y       z     vdW  Elec       q    Type
REMARK                         _______ _______ _______ _____ _____    ______ ____
ROOT
ATOM      1  C   UNL     1       2.407   2.991  18.786  0.00  0.00    +0.000 C 
ATOM      2  O   UNL     1       2.203   2.038  19.540  0.00  0.00    +0.000 OA
ATOM      3  N   UNL     1       1.897   4.254  19.020  0.00  0.00    +0.000 N 
ATOM      4  C   UNL     1       1.211   4.540  20.278  0.00  0.00    +0.000 C 
ATOM      5  C   UNL     1       1.809   5.776  20.974  0.00  0.00    +0.000 C 
ATOM      6  N   UNL     1       1.860   6.916  20.037  0.00  0.00    +0.000 N 
ATOM      7  C   UNL     1       2.570   6.640  18.774  0.00  0.00    +0.000 C 
ATOM      8  C   UNL     1       1.968   5.396  18.096  0.00  0.00    +0.000 C 
ENDROOT
BRANCH   6   9
ATOM      9  C   UNL     1       1.401   8.182  20.361  0.00  0.00    +0.000 A 
ATOM     10  C   UNL     1       1.055   8.448  21.708  0.00  0.00    +0.000 A 
ATOM     11  C   UNL     1       0.622   9.706  22.138  0.00  0.00    +0.000 A 
ATOM     12  C   UNL     1       0.531  10.743  21.229  0.00  0.00    +0.000 A 
ATOM     13 CL   UNL     1       0.008  12.298  21.749  0.00  0.00    +0.000 Cl
ATOM     14  C   UNL     1       0.854  10.536  19.897  0.00  0.00    +0.000 A 
ATOM     15  C   UNL     1       1.269   9.269  19.463  0.00  0.00    +0.000 A 
ATOM     16 CL   UNL     1       1.503   9.145  17.746  0.00  0.00    +0.000 Cl
ENDBRANCH   6   9
BRANCH   1  17
ATOM     17  C   UNL     1       3.324   2.832  17.570  0.00  0.00    +0.000 C 
BRANCH  17  18
ATOM     18  O   UNL     1       4.700   3.075  17.848  0.00  0.00    +0.000 OA
BRANCH  18  19
ATOM     19  C   UNL     1       5.438   3.414  16.670  0.00  0.00    +0.000 C 
BRANCH  19  23
ATOM     20  C   UNL     1       6.829   7.041  17.265  0.00  0.00    +0.000 A 
ATOM     21  C   UNL     1       5.700   7.194  16.492  0.00  0.00    +0.000 A 
ATOM     22  C   UNL     1       5.080   5.944  16.193  0.00  0.00    +0.000 A 
ATOM     23  C   UNL     1       5.750   4.874  16.753  0.00  0.00    +0.000 A 
ATOM     24  S   UNL     1       7.129   5.400  17.631  0.00  0.00    +0.000 S 
BRANCH  20  26
ATOM     25  N   UNL     1       8.357   8.964  18.085  0.00  0.00    +0.000 NA
ATOM     26  C   UNL     1       7.662   8.112  17.718  0.00  0.00    +0.000 C 
ENDBRANCH  20  26
ENDBRANCH  19  23
ENDBRANCH  18  19
ENDBRANCH  17  18
ENDBRANCH   1  17
TORSDOF 6
ENDMDL
MODEL 4
REMARK VINA RESULT:      -6.9      3.889      5.396
REMARK  Name = 
REMARK  6 active torsions:
REMARK  status: ('A' for Active; 'I' for Inactive)
REMARK    1  A    between atoms: C_2  and  C_3
REMARK    2  A    between atoms: C_6  and  C_7
REMARK    3  A    between atoms: C_7  and  O_8
REMARK    4  A    between atoms: O_8  and  C_9
REMARK    5  A    between atoms: C_9  and  C_10
REMARK    6  A    between atoms: N_15  and  C_16
REMARK                            x       y       z     vdW  Elec       q    Type
REMARK                         _______ _______ _______ _____ _____    ______ ____
ROOT
ATOM      1  C   UNL     1       1.555   8.383  19.844  0.00  0.00    +0.000 C 
ATOM      2  O   UNL     1       1.763   8.478  18.634  0.00  0.00    +0.000 OA
ATOM      3  N   UNL     1       1.086   9.435  20.609  0.00  0.00    +0.000 N 
ATOM      4  C   UNL     1       0.672  10.677  19.961  0.00  0.00    +0.000 C 
ATOM      5  C   UNL     1      -0.751  11.084  20.387  0.00  0.00    +0.000 C 
ATOM      6  N   UNL     1      -0.858  11.101  21.860  0.00  0.00    +0.000 N 
ATOM      7  C   UNL     1      -0.461   9.842  22.518  0.00  0.00    +0.000 C 
ATOM      8  C   UNL     1       0.958   9.443  22.074  0.00  0.00    +0.000 C 
ENDROOT
BRANCH   6   9
ATOM      9  C   UNL     1      -1.410  12.157  22.565  0.00  0.00    +0.000 A 
ATOM     10  C   UNL     1      -2.647  11.954  23.224  0.00  0.00    +0.000 A 
ATOM     11  C   UNL     1      -3.261  12.946  23.994  0.00  0.00    +0.000 A 
ATOM     12  C   UNL     1      -2.647  14.176  24.135  0.00  0.00    +0.000 A 
ATOM     13 CL   UNL     1      -3.390  15.402  25.088  0.00  0.00    +0.000 Cl
ATOM     14  C   UNL     1      -1.437  14.429  23.509  0.00  0.00    +0.000 A 
ATOM     15  C   UNL     1      -0.832  13.441  22.720  0.00  0.00    +0.000 A 
ATOM     16 CL   UNL     1       0.607  13.965  21.898  0.00  0.00    +0.000 Cl
ENDBRANCH   6   9
BRANCH   1  17
ATOM     17  C   UNL     1       1.730   7.038  20.555  0.00  0.00    +0.000 C 
BRANCH  17  18
ATOM     18  O   UNL     1       2.720   6.198  19.967  0.00  0.00    +0.000 OA
BRANCH  18  19
ATOM     19  C   UNL     1       2.167   5.319  18.981  0.00  0.00    +0.000 C 
BRANCH  19  23
ATOM     20  C   UNL     1       5.315   5.011  16.649  0.00  0.00    +0.000 A 
ATOM     21  C   UNL     1       4.709   3.776  16.628  0.00  0.00    +0.000 A 
ATOM     22  C   UNL     1       3.537   3.737  17.440  0.00  0.00    +0.000 A 
ATOM     23  C   UNL     1       3.278   4.947  18.052  0.00  0.00    +0.000 A 
ATOM     24  S   UNL     1       4.466   6.117  17.637  0.00  0.00    +0.000 S 
BRANCH  20  26
ATOM     25  N   UNL     1       7.462   5.636  15.343  0.00  0.00    +0.000 NA
ATOM     26  C   UNL     1       6.508   5.350  15.937  0.00  0.00    +0.000 C 
ENDBRANCH  20  26
ENDBRANCH  19  23
ENDBRANCH  18  19
ENDBRANCH  17  18
ENDBRANCH   1  17
TORSDOF 6
ENDMDL
MODEL 5
REMARK VINA RESULT:      -6.8      3.002      4.266
REMARK  Name = 
REMARK  6 active torsions:
REMARK  status: ('A' for Active; 'I' for Inactive)
REMARK    1  A    between atoms: C_2  and  C_3
REMARK    2  A    between atoms: C_6  and  C_7
REMARK    3  A    between atoms: C_7  and  O_8
REMARK    4  A    between atoms: O_8  and  C_9
REMARK    5  A    between atoms: C_9  and  C_10
REMARK    6  A    between atoms: N_15  and  C_16
REMARK                            x       y       z     vdW  Elec       q    Type
REMARK                         _______ _______ _______ _____ _____    ______ ____
ROOT
ATOM      1  C   UNL     1       2.414   7.287  18.832  0.00  0.00    +0.000 C 
ATOM      2  O   UNL     1       2.957   7.389  17.731  0.00  0.00    +0.000 OA
ATOM      3  N   UNL     1       1.833   8.359  19.483  0.00  0.00    +0.000 N 
ATOM      4  C   UNL     1       1.710   9.645  18.801  0.00  0.00    +0.000 C 
ATOM      5  C   UNL     1       0.260  10.162  18.837  0.00  0.00    +0.000 C 
ATOM      6  N   UNL     1      -0.250  10.158  20.222  0.00  0.00    +0.000 N 
ATOM      7  C   UNL     1      -0.148   8.857  20.909  0.00  0.00    +0.000 C 
ATOM      8  C   UNL     1       1.304   8.348  20.855  0.00  0.00    +0.000 C 
ENDROOT
BRANCH   6   9
ATOM      9  C   UNL     1      -0.895  11.243  20.793  0.00  0.00    +0.000 A 
ATOM     10  C   UNL     1      -0.496  11.658  22.087  0.00  0.00    +0.000 A 
ATOM     11  C   UNL     1      -1.058  12.766  22.728  0.00  0.00    +0.000 A 
ATOM     12  C   UNL     1      -2.037  13.501  22.084  0.00  0.00    +0.000 A 
ATOM     13 CL   UNL     1      -2.730  14.872  22.860  0.00  0.00    +0.000 Cl
ATOM     14  C   UNL     1      -2.466  13.136  20.818  0.00  0.00    +0.000 A 
ATOM     15  C   UNL     1      -1.916  12.012  20.186  0.00  0.00    +0.000 A 
ATOM     16 CL   UNL     1      -2.660  11.614  18.666  0.00  0.00    +0.000 Cl
ENDBRANCH   6   9
BRANCH   1  17
ATOM     17  C   UNL     1       2.283   5.918  19.505  0.00  0.00    +0.000 C 
BRANCH  17  18
ATOM     18  O   UNL     1       3.494   5.442  20.087  0.00  0.00    +0.000 OA
BRANCH  18  19
ATOM     19  C   UNL     1       3.950   4.233  19.472  0.00  0.00    +0.000 C 
BRANCH  19  23
ATOM     20  C   UNL     1       6.508   4.995  16.588  0.00  0.00    +0.000 A 
ATOM     21  C   UNL     1       7.140   5.357  17.756  0.00  0.00    +0.000 A 
ATOM     22  C   UNL     1       6.322   5.132  18.902  0.00  0.00    +0.000 A 
ATOM     23  C   UNL     1       5.090   4.599  18.576  0.00  0.00    +0.000 A 
ATOM     24  S   UNL     1       4.940   4.382  16.879  0.00  0.00    +0.000 S 
BRANCH  20  26
ATOM     25  N   UNL     1       7.518   5.217  14.214  0.00  0.00    +0.000 NA
ATOM     26  C   UNL     1       7.077   5.110  15.280  0.00  0.00    +0.000 C 
ENDBRANCH  20  26
ENDBRANCH  19  23
ENDBRANCH  18  19
ENDBRANCH  17  18
ENDBRANCH   1  17
TORSDOF 6
ENDMDL
MODEL 6
REMARK VINA RESULT:      -6.8      1.054      1.320
REMARK  Name = 
REMARK  6 active torsions:
REMARK  status: ('A' for Active; 'I' for Inactive)
REMARK    1  A    between atoms: C_2  and  C_3
REMARK    2  A    between atoms: C_6  and  C_7
REMARK    3  A    between atoms: C_7  and  O_8
REMARK    4  A    between atoms: O_8  and  C_9
REMARK    5  A    between atoms: C_9  and  C_10
REMARK    6  A    between atoms: N_15  and  C_16
REMARK                            x       y       z     vdW  Elec       q    Type
REMARK                         _______ _______ _______ _____ _____    ______ ____
ROOT
ATOM      1  C   UNL     1       2.849   3.178  19.160  0.00  0.00    +0.000 C 
ATOM      2  O   UNL     1       3.099   2.569  20.202  0.00  0.00    +0.000 OA
ATOM      3  N   UNL     1       2.275   4.434  19.146  0.00  0.00    +0.000 N 
ATOM      4  C   UNL     1       2.080   5.160  20.400  0.00  0.00    +0.000 C 
ATOM      5  C   UNL     1       2.695   6.569  20.332  0.00  0.00    +0.000 C 
ATOM      6  N   UNL     1       2.207   7.284  19.136  0.00  0.00    +0.000 N 
ATOM      7  C   UNL     1       2.420   6.566  17.865  0.00  0.00    +0.000 C 
ATOM      8  C   UNL     1       1.810   5.155  17.951  0.00  0.00    +0.000 C 
ENDROOT
BRANCH   6   9
ATOM      9  C   UNL     1       1.712   8.576  19.176  0.00  0.00    +0.000 A 
ATOM     10  C   UNL     1       2.087   9.473  18.146  0.00  0.00    +0.000 A 
ATOM     11  C   UNL     1       1.605  10.784  18.079  0.00  0.00    +0.000 A 
ATOM     12  C   UNL     1       0.722  11.236  19.042  0.00  0.00    +0.000 A 
ATOM     13 CL   UNL     1       0.116  12.845  18.963  0.00  0.00    +0.000 Cl
ATOM     14  C   UNL     1       0.325  10.400  20.073  0.00  0.00    +0.000 A 
ATOM     15  C   UNL     1       0.825   9.092  20.151  0.00  0.00    +0.000 A 
ATOM     16 CL   UNL     1       0.335   8.226  21.576  0.00  0.00    +0.000 Cl
ENDBRANCH   6   9
BRANCH   1  17
ATOM     17  C   UNL     1       3.251   2.588  17.805  0.00  0.00    +0.000 C 
BRANCH  17  18
ATOM     18  O   UNL     1       4.611   2.824  17.452  0.00  0.00    +0.000 OA
BRANCH  18  19
ATOM     19  C   UNL     1       4.755   3.947  16.576  0.00  0.00    +0.000 C 
BRANCH  19  23
ATOM     20  C   UNL     1       7.177   6.822  17.722  0.00  0.00    +0.000 A 
ATOM     21  C   UNL     1       7.433   5.759  18.558  0.00  0.00    +0.000 A 
ATOM     22  C   UNL     1       6.618   4.628  18.257  0.00  0.00    +0.000 A 
ATOM     23  C   UNL     1       5.766   4.858  17.193  0.00  0.00    +0.000 A 
ATOM     24  S   UNL     1       5.965   6.449  16.577  0.00  0.00    +0.000 S 
BRANCH  20  26
ATOM     25  N   UNL     1       8.347   9.129  17.825  0.00  0.00    +0.000 NA
ATOM     26  C   UNL     1       7.833   8.091  17.787  0.00  0.00    +0.000 C 
ENDBRANCH  20  26
ENDBRANCH  19  23
ENDBRANCH  18  19
ENDBRANCH  17  18
ENDBRANCH   1  17
TORSDOF 6
ENDMDL
MODEL 7
REMARK VINA RESULT:      -6.7      2.960      4.215
REMARK  Name = 
REMARK  6 active torsions:
REMARK  status: ('A' for Active; 'I' for Inactive)
REMARK    1  A    between atoms: C_2  and  C_3
REMARK    2  A    between atoms: C_6  and  C_7
REMARK    3  A    between atoms: C_7  and  O_8
REMARK    4  A    between atoms: O_8  and  C_9
REMARK    5  A    between atoms: C_9  and  C_10
REMARK    6  A    between atoms: N_15  and  C_16
REMARK                            x       y       z     vdW  Elec       q    Type
REMARK                         _______ _______ _______ _____ _____    ______ ____
ROOT
ATOM      1  C   UNL     1       2.349   6.843  18.867  0.00  0.00    +0.000 C 
ATOM      2  O   UNL     1       2.620   6.886  17.666  0.00  0.00    +0.000 OA
ATOM      3  N   UNL     1       1.996   7.963  19.596  0.00  0.00    +0.000 N 
ATOM      4  C   UNL     1       1.783   9.238  18.915  0.00  0.00    +0.000 C 
ATOM      5  C   UNL     1       0.412   9.841  19.271  0.00  0.00    +0.000 C 
ATOM      6  N   UNL     1       0.245   9.901  20.737  0.00  0.00    +0.000 N 
ATOM      7  C   UNL     1       0.438   8.612  21.428  0.00  0.00    +0.000 C 
ATOM      8  C   UNL     1       1.807   8.016  21.053  0.00  0.00    +0.000 C 
ENDROOT
BRANCH   6   9
ATOM      9  C   UNL     1      -0.187  11.035  21.403  0.00  0.00    +0.000 A 
ATOM     10  C   UNL     1      -1.186  10.893  22.396  0.00  0.00    +0.000 A 
ATOM     11  C   UNL     1      -1.656  11.972  23.150  0.00  0.00    +0.000 A 
ATOM     12  C   UNL     1      -1.130  13.233  22.937  0.00  0.00    +0.000 A 
ATOM     13 CL   UNL     1      -1.695  14.567  23.866  0.00  0.00    +0.000 Cl
ATOM     14  C   UNL     1      -0.152  13.428  21.975  0.00  0.00    +0.000 A 
ATOM     15  C   UNL     1       0.303  12.348  21.205  0.00  0.00    +0.000 A 
ATOM     16 CL   UNL     1       1.428  12.788  19.955  0.00  0.00    +0.000 Cl
ENDBRANCH   6   9
BRANCH   1  17
ATOM     17  C   UNL     1       2.309   5.500  19.602  0.00  0.00    +0.000 C 
BRANCH  17  18
ATOM     18  O   UNL     1       3.095   4.482  18.988  0.00  0.00    +0.000 OA
BRANCH  18  19
ATOM     19  C   UNL     1       4.462   4.526  19.413  0.00  0.00    +0.000 C 
BRANCH  19  23
ATOM     20  C   UNL     1       6.070   4.190  15.843  0.00  0.00    +0.000 A 
ATOM     21  C   UNL     1       7.093   4.571  16.682  0.00  0.00    +0.000 A 
ATOM     22  C   UNL     1       6.653   4.733  18.029  0.00  0.00    +0.000 A 
ATOM     23  C   UNL     1       5.306   4.464  18.181  0.00  0.00    +0.000 A 
ATOM     24  S   UNL     1       4.592   4.022  16.682  0.00  0.00    +0.000 S 
BRANCH  20  26
ATOM     25  N   UNL     1       6.326   3.746  13.305  0.00  0.00    +0.000 NA
ATOM     26  C   UNL     1       6.207   3.958  14.439  0.00  0.00    +0.000 C 
ENDBRANCH  20  26
ENDBRANCH  19  23
ENDBRANCH  18  19
ENDBRANCH  17  18
ENDBRANCH   1  17
TORSDOF 6
ENDMDL
MODEL 8
REMARK VINA RESULT:      -6.7      2.835      3.976
REMARK  Name = 
REMARK  6 active torsions:
REMARK  status: ('A' for Active; 'I' for Inactive)
REMARK    1  A    between atoms: C_2  and  C_3
REMARK    2  A    between atoms: C_6  and  C_7
REMARK    3  A    between atoms: C_7  and  O_8
REMARK    4  A    between atoms: O_8  and  C_9
REMARK    5  A    between atoms: C_9  and  C_10
REMARK    6  A    between atoms: N_15  and  C_16
REMARK                            x       y       z     vdW  Elec       q    Type
REMARK                         _______ _______ _______ _____ _____    ______ ____
ROOT
ATOM      1  C   UNL     1       2.384   7.131  19.007  0.00  0.00    +0.000 C 
ATOM      2  O   UNL     1       2.816   7.078  17.854  0.00  0.00    +0.000 OA
ATOM      3  N   UNL     1       1.845   8.282  19.551  0.00  0.00    +0.000 N 
ATOM      4  C   UNL     1       1.628   9.454  18.707  0.00  0.00    +0.000 C 
ATOM      5  C   UNL     1       0.178   9.959  18.811  0.00  0.00    +0.000 C 
ATOM      6  N   UNL     1      -0.196  10.152  20.227  0.00  0.00    +0.000 N 
ATOM      7  C   UNL     1       0.001   8.965  21.080  0.00  0.00    +0.000 C 
ATOM      8  C   UNL     1       1.452   8.466  20.956  0.00  0.00    +0.000 C 
ENDROOT
BRANCH   6   9
ATOM      9  C   UNL     1      -0.806  11.303  20.697  0.00  0.00    +0.000 A 
ATOM     10  C   UNL     1      -1.030  12.366  19.789  0.00  0.00    +0.000 A 
ATOM     11  C   UNL     1      -1.676  13.549  20.161  0.00  0.00    +0.000 A 
ATOM     12  C   UNL     1      -2.127  13.700  21.459  0.00  0.00    +0.000 A 
ATOM     13 CL   UNL     1      -2.932  15.148  21.925  0.00  0.00    +0.000 Cl
ATOM     14  C   UNL     1      -1.931  12.691  22.389  0.00  0.00    +0.000 A 
ATOM     15  C   UNL     1      -1.266  11.514  22.020  0.00  0.00    +0.000 A 
ATOM     16 CL   UNL     1      -0.984  10.412  23.335  0.00  0.00    +0.000 Cl
ENDBRANCH   6   9
BRANCH   1  17
ATOM     17  C   UNL     1       2.350   5.873  19.879  0.00  0.00    +0.000 C 
BRANCH  17  18
ATOM     18  O   UNL     1       2.558   4.663  19.155  0.00  0.00    +0.000 OA
BRANCH  18  19
ATOM     19  C   UNL     1       3.726   3.964  19.598  0.00  0.00    +0.000 C 
BRANCH  19  23
ATOM     20  C   UNL     1       6.379   4.986  16.884  0.00  0.00    +0.000 A 
ATOM     21  C   UNL     1       6.856   5.475  18.079  0.00  0.00    +0.000 A 
ATOM     22  C   UNL     1       5.986   5.175  19.169  0.00  0.00    +0.000 A 
ATOM     23  C   UNL     1       4.872   4.460  18.775  0.00  0.00    +0.000 A 
ATOM     24  S   UNL     1       4.894   4.164  17.083  0.00  0.00    +0.000 S 
BRANCH  20  26
ATOM     25  N   UNL     1       7.567   5.234  14.597  0.00  0.00    +0.000 NA
ATOM     26  C   UNL     1       7.030   5.135  15.619  0.00  0.00    +0.000 C 
ENDBRANCH  20  26
ENDBRANCH  19  23
ENDBRANCH  18  19
ENDBRANCH  17  18
ENDBRANCH   1  17
TORSDOF 6
ENDMDL
MODEL 9
REMARK VINA RESULT:      -6.6      2.002      2.345
REMARK  Name = 
REMARK  6 active torsions:
REMARK  status: ('A' for Active; 'I' for Inactive)
REMARK    1  A    between atoms: C_2  and  C_3
REMARK    2  A    between atoms: C_6  and  C_7
REMARK    3  A    between atoms: C_7  and  O_8
REMARK    4  A    between atoms: O_8  and  C_9
REMARK    5  A    between atoms: C_9  and  C_10
REMARK    6  A    between atoms: N_15  and  C_16
REMARK                            x       y       z     vdW  Elec       q    Type
REMARK                         _______ _______ _______ _____ _____    ______ ____
ROOT
ATOM      1  C   UNL     1       2.955   3.817  19.827  0.00  0.00    +0.000 C 
ATOM      2  O   UNL     1       2.887   3.190  20.885  0.00  0.00    +0.000 OA
ATOM      3  N   UNL     1       2.286   5.008  19.618  0.00  0.00    +0.000 N 
ATOM      4  C   UNL     1       1.581   5.651  20.725  0.00  0.00    +0.000 C 
ATOM      5  C   UNL     1       2.019   7.118  20.891  0.00  0.00    +0.000 C 
ATOM      6  N   UNL     1       1.909   7.833  19.605  0.00  0.00    +0.000 N 
ATOM      7  C   UNL     1       2.636   7.200  18.488  0.00  0.00    +0.000 C 
ATOM      8  C   UNL     1       2.196   5.733  18.341  0.00  0.00    +0.000 C 
ENDROOT
BRANCH   6   9
ATOM      9  C   UNL     1       1.291   9.065  19.475  0.00  0.00    +0.000 A 
ATOM     10  C   UNL     1       1.741   9.941  18.458  0.00  0.00    +0.000 A 
ATOM     11  C   UNL     1       1.152  11.187  18.223  0.00  0.00    +0.000 A 
ATOM     12  C   UNL     1       0.082  11.593  18.999  0.00  0.00    +0.000 A 
ATOM     13 CL   UNL     1      -0.656  13.121  18.713  0.00  0.00    +0.000 Cl
ATOM     14  C   UNL     1      -0.396  10.775  20.011  0.00  0.00    +0.000 A 
ATOM     15  C   UNL     1       0.209   9.535  20.259  0.00  0.00    +0.000 A 
ATOM     16 CL   UNL     1      -0.423   8.698  21.645  0.00  0.00    +0.000 Cl
ENDBRANCH   6   9
BRANCH   1  17
ATOM     17  C   UNL     1       3.872   3.335  18.700  0.00  0.00    +0.000 C 
BRANCH  17  18
ATOM     18  O   UNL     1       5.259   3.546  18.953  0.00  0.00    +0.000 OA
BRANCH  18  19
ATOM     19  C   UNL     1       5.665   4.886  18.651  0.00  0.00    +0.000 C 
BRANCH  19  23
ATOM     20  C   UNL     1       5.915   4.510  14.747  0.00  0.00    +0.000 A 
ATOM     21  C   UNL     1       5.569   5.822  14.977  0.00  0.00    +0.000 A 
ATOM     22  C   UNL     1       5.441   6.109  16.368  0.00  0.00    +0.000 A 
ATOM     23  C   UNL     1       5.700   5.008  17.161  0.00  0.00    +0.000 A 
ATOM     24  S   UNL     1       6.092   3.636  16.205  0.00  0.00    +0.000 S 
BRANCH  20  26
ATOM     25  N   UNL     1       6.242   3.461  12.403  0.00  0.00    +0.000 NA
ATOM     26  C   UNL     1       6.109   3.929  13.455  0.00  0.00    +0.000 C 
ENDBRANCH  20  26
ENDBRANCH  19  23
ENDBRANCH  18  19
ENDBRANCH  17  18
ENDBRANCH   1  17
TORSDOF 6
ENDMDL
