MODEL 1
REMARK VINA RESULT:      -7.3      0.000      0.000
REMARK  Name = 
REMARK  4 active torsions:
REMARK  status: ('A' for Active; 'I' for Inactive)
REMARK    1  A    between atoms: C_6  and  O_7
REMARK    2  A    between atoms: C_8  and  C_9
REMARK    3  A    between atoms: N_11  and  C_12
REMARK    4  A    between atoms: C_15  and  C_16
REMARK                            x       y       z     vdW  Elec       q    Type
REMARK                         _______ _______ _______ _____ _____    ______ ____
ROOT
ATOM      1  C   UNL     1       4.820   3.967  18.381  0.00  0.00    +0.000 C 
ATOM      2  O   UNL     1       5.972   4.098  18.786  0.00  0.00    +0.000 OA
ATOM      3  N   UNL     1       4.434   4.195  17.071  0.00  0.00    +0.000 N 
ATOM      4  H   UNL     1       3.431   4.264  16.890  0.00  0.00    +0.000 HD
ENDROOT
BRANCH   1  11
ATOM      5  O   UNL     1       2.141   5.165  18.418  0.00  0.00    +0.000 OA
ATOM      6  C   UNL     1       2.400   4.368  19.323  0.00  0.00    +0.000 C 
ATOM      7  C   UNL     1       1.358   4.052  20.376  0.00  0.00    +0.000 C 
ATOM      8  C   UNL     1       1.995   3.546  21.654  0.00  0.00    +0.000 C 
ATOM      9  C   UNL     1       2.881   2.348  21.353  0.00  0.00    +0.000 C 
ATOM     10  C   UNL     1       3.863   2.647  20.251  0.00  0.00    +0.000 C 
ATOM     11  C   UNL     1       3.705   3.636  19.338  0.00  0.00    +0.000 C 
BRANCH  10  12
ATOM     12  O   UNL     1       4.977   1.826  20.249  0.00  0.00    +0.000 OA
ATOM     13  H   UNL     1       4.793   0.990  19.791  0.00  0.00    +0.000 HD
ENDBRANCH  10  12
ENDBRANCH   1  11
BRANCH   3  14
ATOM     14  C   UNL     1       5.300   4.480  15.991  0.00  0.00    +0.000 A 
ATOM     15  C   UNL     1       6.238   5.515  16.022  0.00  0.00    +0.000 A 
ATOM     16  C   UNL     1       7.073   5.765  14.931  0.00  0.00    +0.000 A 
ATOM     17  C   UNL     1       6.994   4.976  13.779  0.00  0.00    +0.000 A 
ATOM     18  C   UNL     1       6.057   3.932  13.745  0.00  0.00    +0.000 A 
ATOM     19  C   UNL     1       5.226   3.679  14.846  0.00  0.00    +0.000 A 
BRANCH  17  20
ATOM     20  C   UNL     1       7.907   5.237  12.607  0.00  0.00    +0.000 C 
ATOM     21  F   UNL     1       7.651   6.412  11.966  0.00  0.00    +0.000 F 
ATOM     22  F   UNL     1       9.218   5.294  12.973  0.00  0.00    +0.000 F 
ATOM     23  F   UNL     1       7.829   4.269  11.653  0.00  0.00    +0.000 F 
ENDBRANCH  17  20
ENDBRANCH   3  14
TORSDOF 4
ENDMDL
MODEL 2
REMARK VINA RESULT:      -7.2      0.077      1.326
REMARK  Name = 
REMARK  4 active torsions:
REMARK  status: ('A' for Active; 'I' for Inactive)
REMARK    1  A    between atoms: C_6  and  O_7
REMARK    2  A    between atoms: C_8  and  C_9
REMARK    3  A    between atoms: N_11  and  C_12
REMARK    4  A    between atoms: C_15  and  C_16
REMARK                            x       y       z     vdW  Elec       q    Type
REMARK                         _______ _______ _______ _____ _____    ______ ____
ROOT
ATOM      1  C   UNL     1       4.811   3.941  18.329  0.00  0.00    +0.000 C 
ATOM      2  O   UNL     1       5.964   4.093  18.721  0.00  0.00    +0.000 OA
ATOM      3  N   UNL     1       4.413   4.129  17.015  0.00  0.00    +0.000 N 
ATOM      4  H   UNL     1       3.409   4.184  16.841  0.00  0.00    +0.000 HD
ENDROOT
BRANCH   1  11
ATOM      5  O   UNL     1       2.150   5.176  18.399  0.00  0.00    +0.000 OA
ATOM      6  C   UNL     1       2.411   4.380  19.304  0.00  0.00    +0.000 C 
ATOM      7  C   UNL     1       1.379   4.083  20.373  0.00  0.00    +0.000 C 
ATOM      8  C   UNL     1       2.029   3.574  21.644  0.00  0.00    +0.000 C 
ATOM      9  C   UNL     1       2.893   2.363  21.336  0.00  0.00    +0.000 C 
ATOM     10  C   UNL     1       3.863   2.643  20.219  0.00  0.00    +0.000 C 
ATOM     11  C   UNL     1       3.705   3.630  19.304  0.00  0.00    +0.000 C 
BRANCH  10  12
ATOM     12  O   UNL     1       4.966   1.808  20.205  0.00  0.00    +0.000 OA
ATOM     13  H   UNL     1       4.757   0.949  20.608  0.00  0.00    +0.000 HD
ENDBRANCH  10  12
ENDBRANCH   1  11
BRANCH   3  14
ATOM     14  C   UNL     1       5.269   4.388  15.921  0.00  0.00    +0.000 A 
ATOM     15  C   UNL     1       5.245   3.635  14.744  0.00  0.00    +0.000 A 
ATOM     16  C   UNL     1       6.112   3.924  13.687  0.00  0.00    +0.000 A 
ATOM     17  C   UNL     1       7.021   4.982  13.780  0.00  0.00    +0.000 A 
ATOM     18  C   UNL     1       7.044   5.744  14.958  0.00  0.00    +0.000 A 
ATOM     19  C   UNL     1       6.167   5.457  16.014  0.00  0.00    +0.000 A 
BRANCH  17  20
ATOM     20  C   UNL     1       7.945   5.302  12.631  0.00  0.00    +0.000 C 
ATOM     21  F   UNL     1       9.248   5.450  13.003  0.00  0.00    +0.000 F 
ATOM     22  F   UNL     1       7.942   4.332  11.675  0.00  0.00    +0.000 F 
ATOM     23  F   UNL     1       7.609   6.456  11.991  0.00  0.00    +0.000 F 
ENDBRANCH  17  20
ENDBRANCH   3  14
TORSDOF 4
ENDMDL
MODEL 3
REMARK VINA RESULT:      -7.2      0.923      1.681
REMARK  Name = 
REMARK  4 active torsions:
REMARK  status: ('A' for Active; 'I' for Inactive)
REMARK    1  A    between atoms: C_6  and  O_7
REMARK    2  A    between atoms: C_8  and  C_9
REMARK    3  A    between atoms: N_11  and  C_12
REMARK    4  A    between atoms: C_15  and  C_16
REMARK                            x       y       z     vdW  Elec       q    Type
REMARK                         _______ _______ _______ _____ _____    ______ ____
ROOT
ATOM      1  C   UNL     1       3.811   4.282  17.653  0.00  0.00    +0.000 C 
ATOM      2  O   UNL     1       3.583   5.461  17.397  0.00  0.00    +0.000 OA
ATOM      3  N   UNL     1       4.643   3.476  16.894  0.00  0.00    +0.000 N 
ATOM      4  H   UNL     1       4.596   2.471  17.068  0.00  0.00    +0.000 HD
ENDROOT
BRANCH   1  11
ATOM      5  O   UNL     1       0.920   3.822  17.869  0.00  0.00    +0.000 OA
ATOM      6  C   UNL     1       1.605   3.484  18.838  0.00  0.00    +0.000 C 
ATOM      7  C   UNL     1       0.946   2.865  20.053  0.00  0.00    +0.000 C 
ATOM      8  C   UNL     1       1.795   3.041  21.295  0.00  0.00    +0.000 C 
ATOM      9  C   UNL     1       3.188   2.481  21.056  0.00  0.00    +0.000 C 
ATOM     10  C   UNL     1       3.804   3.044  19.803  0.00  0.00    +0.000 C 
ATOM     11  C   UNL     1       3.096   3.593  18.786  0.00  0.00    +0.000 C 
BRANCH  10  12
ATOM     12  O   UNL     1       5.186   2.975  19.773  0.00  0.00    +0.000 OA
ATOM     13  H   UNL     1       5.546   2.805  20.660  0.00  0.00    +0.000 HD
ENDBRANCH  10  12
ENDBRANCH   1  11
BRANCH   3  14
ATOM     14  C   UNL     1       5.445   3.902  15.811  0.00  0.00    +0.000 A 
ATOM     15  C   UNL     1       5.142   3.605  14.480  0.00  0.00    +0.000 A 
ATOM     16  C   UNL     1       5.965   4.043  13.439  0.00  0.00    +0.000 A 
ATOM     17  C   UNL     1       7.110   4.799  13.706  0.00  0.00    +0.000 A 
ATOM     18  C   UNL     1       7.414   5.105  15.042  0.00  0.00    +0.000 A 
ATOM     19  C   UNL     1       6.582   4.670  16.084  0.00  0.00    +0.000 A 
BRANCH  17  20
ATOM     20  C   UNL     1       7.988   5.286  12.580  0.00  0.00    +0.000 C 
ATOM     21  F   UNL     1       7.986   4.463  11.493  0.00  0.00    +0.000 F 
ATOM     22  F   UNL     1       7.608   6.509  12.117  0.00  0.00    +0.000 F 
ATOM     23  F   UNL     1       9.292   5.414  12.947  0.00  0.00    +0.000 F 
ENDBRANCH  17  20
ENDBRANCH   3  14
TORSDOF 4
ENDMDL
MODEL 4
REMARK VINA RESULT:      -7.2      1.326      1.772
REMARK  Name = 
REMARK  4 active torsions:
REMARK  status: ('A' for Active; 'I' for Inactive)
REMARK    1  A    between atoms: C_6  and  O_7
REMARK    2  A    between atoms: C_8  and  C_9
REMARK    3  A    between atoms: N_11  and  C_12
REMARK    4  A    between atoms: C_15  and  C_16
REMARK                            x       y       z     vdW  Elec       q    Type
REMARK                         _______ _______ _______ _____ _____    ______ ____
ROOT
ATOM      1  C   UNL     1       3.781   4.643  17.767  0.00  0.00    +0.000 C 
ATOM      2  O   UNL     1       3.479   5.765  17.372  0.00  0.00    +0.000 OA
ATOM      3  N   UNL     1       4.707   3.828  17.137  0.00  0.00    +0.000 N 
ATOM      4  H   UNL     1       4.727   2.848  17.420  0.00  0.00    +0.000 HD
ENDROOT
BRANCH   1  11
ATOM      5  O   UNL     1       2.861   1.865  17.986  0.00  0.00    +0.000 OA
ATOM      6  C   UNL     1       2.565   2.618  18.918  0.00  0.00    +0.000 C 
ATOM      7  C   UNL     1       1.770   2.090  20.094  0.00  0.00    +0.000 C 
ATOM      8  C   UNL     1       1.037   3.206  20.813  0.00  0.00    +0.000 C 
ATOM      9  C   UNL     1       2.020   4.287  21.229  0.00  0.00    +0.000 C 
ATOM     10  C   UNL     1       2.861   4.750  20.069  0.00  0.00    +0.000 C 
ATOM     11  C   UNL     1       3.067   4.027  18.942  0.00  0.00    +0.000 C 
BRANCH  10  12
ATOM     12  O   UNL     1       3.408   6.010  20.235  0.00  0.00    +0.000 OA
ATOM     13  H   UNL     1       3.947   6.260  19.466  0.00  0.00    +0.000 HD
ENDBRANCH  10  12
ENDBRANCH   1  11
BRANCH   3  14
ATOM     14  C   UNL     1       5.526   4.196  16.046  0.00  0.00    +0.000 A 
ATOM     15  C   UNL     1       6.722   4.903  16.199  0.00  0.00    +0.000 A 
ATOM     16  C   UNL     1       7.500   5.250  15.091  0.00  0.00    +0.000 A 
ATOM     17  C   UNL     1       7.102   4.891  13.800  0.00  0.00    +0.000 A 
ATOM     18  C   UNL     1       5.904   4.176  13.643  0.00  0.00    +0.000 A 
ATOM     19  C   UNL     1       5.130   3.822  14.758  0.00  0.00    +0.000 A 
BRANCH  17  20
ATOM     20  C   UNL     1       7.951   5.253  12.607  0.00  0.00    +0.000 C 
ATOM     21  F   UNL     1       7.640   6.463  12.062  0.00  0.00    +0.000 F 
ATOM     22  F   UNL     1       9.277   5.317  12.914  0.00  0.00    +0.000 F 
ATOM     23  F   UNL     1       7.846   4.351  11.593  0.00  0.00    +0.000 F 
ENDBRANCH  17  20
ENDBRANCH   3  14
TORSDOF 4
ENDMDL
MODEL 5
REMARK VINA RESULT:      -7.1      0.589      1.853
REMARK  Name = 
REMARK  4 active torsions:
REMARK  status: ('A' for Active; 'I' for Inactive)
REMARK    1  A    between atoms: C_6  and  O_7
REMARK    2  A    between atoms: C_8  and  C_9
REMARK    3  A    between atoms: N_11  and  C_12
REMARK    4  A    between atoms: C_15  and  C_16
REMARK                            x       y       z     vdW  Elec       q    Type
REMARK                         _______ _______ _______ _____ _____    ______ ____
ROOT
ATOM      1  C   UNL     1       4.992   4.279  18.643  0.00  0.00    +0.000 C 
ATOM      2  O   UNL     1       6.168   4.335  18.992  0.00  0.00    +0.000 OA
ATOM      3  N   UNL     1       4.562   4.506  17.346  0.00  0.00    +0.000 N 
ATOM      4  H   UNL     1       3.560   4.644  17.209  0.00  0.00    +0.000 HD
ENDROOT
BRANCH   1  11
ATOM      5  O   UNL     1       4.696   1.942  20.393  0.00  0.00    +0.000 OA
ATOM      6  C   UNL     1       3.796   2.785  20.443  0.00  0.00    +0.000 C 
ATOM      7  C   UNL     1       2.621   2.583  21.377  0.00  0.00    +0.000 C 
ATOM      8  C   UNL     1       1.405   3.361  20.914  0.00  0.00    +0.000 C 
ATOM      9  C   UNL     1       1.760   4.830  20.754  0.00  0.00    +0.000 C 
ATOM     10  C   UNL     1       2.977   5.016  19.887  0.00  0.00    +0.000 C 
ATOM     11  C   UNL     1       3.902   4.054  19.658  0.00  0.00    +0.000 C 
BRANCH  10  12
ATOM     12  O   UNL     1       3.074   6.271  19.312  0.00  0.00    +0.000 OA
ATOM     13  H   UNL     1       2.210   6.716  19.298  0.00  0.00    +0.000 HD
ENDBRANCH  10  12
ENDBRANCH   1  11
BRANCH   3  14
ATOM     14  C   UNL     1       5.395   4.701  16.221  0.00  0.00    +0.000 A 
ATOM     15  C   UNL     1       6.378   5.693  16.167  0.00  0.00    +0.000 A 
ATOM     16  C   UNL     1       7.177   5.854  15.033  0.00  0.00    +0.000 A 
ATOM     17  C   UNL     1       7.017   5.018  13.923  0.00  0.00    +0.000 A 
ATOM     18  C   UNL     1       6.035   4.017  13.976  0.00  0.00    +0.000 A 
ATOM     19  C   UNL     1       5.239   3.853  15.119  0.00  0.00    +0.000 A 
BRANCH  17  20
ATOM     20  C   UNL     1       7.892   5.183  12.706  0.00  0.00    +0.000 C 
ATOM     21  F   UNL     1       7.668   6.343  12.026  0.00  0.00    +0.000 F 
ATOM     22  F   UNL     1       9.218   5.188  13.016  0.00  0.00    +0.000 F 
ATOM     23  F   UNL     1       7.726   4.182  11.799  0.00  0.00    +0.000 F 
ENDBRANCH  17  20
ENDBRANCH   3  14
TORSDOF 4
ENDMDL
MODEL 6
REMARK VINA RESULT:      -7.1      0.542      2.272
REMARK  Name = 
REMARK  4 active torsions:
REMARK  status: ('A' for Active; 'I' for Inactive)
REMARK    1  A    between atoms: C_6  and  O_7
REMARK    2  A    between atoms: C_8  and  C_9
REMARK    3  A    between atoms: N_11  and  C_12
REMARK    4  A    between atoms: C_15  and  C_16
REMARK                            x       y       z     vdW  Elec       q    Type
REMARK                         _______ _______ _______ _____ _____    ______ ____
ROOT
ATOM      1  C   UNL     1       4.944   4.196  18.568  0.00  0.00    +0.000 C 
ATOM      2  O   UNL     1       6.126   4.220  18.898  0.00  0.00    +0.000 OA
ATOM      3  N   UNL     1       4.500   4.422  17.276  0.00  0.00    +0.000 N 
ATOM      4  H   UNL     1       3.501   4.588  17.153  0.00  0.00    +0.000 HD
ENDROOT
BRANCH   1  11
ATOM      5  O   UNL     1       4.659   1.929  20.410  0.00  0.00    +0.000 OA
ATOM      6  C   UNL     1       3.763   2.776  20.437  0.00  0.00    +0.000 C 
ATOM      7  C   UNL     1       2.596   2.614  21.390  0.00  0.00    +0.000 C 
ATOM      8  C   UNL     1       1.378   3.378  20.910  0.00  0.00    +0.000 C 
ATOM      9  C   UNL     1       1.735   4.839  20.690  0.00  0.00    +0.000 C 
ATOM     10  C   UNL     1       2.944   4.987  19.804  0.00  0.00    +0.000 C 
ATOM     11  C   UNL     1       3.864   4.013  19.603  0.00  0.00    +0.000 C 
BRANCH  10  12
ATOM     12  O   UNL     1       3.039   6.219  19.180  0.00  0.00    +0.000 OA
ATOM     13  H   UNL     1       2.313   6.345  18.546  0.00  0.00    +0.000 HD
ENDBRANCH  10  12
ENDBRANCH   1  11
BRANCH   3  14
ATOM     14  C   UNL     1       5.321   4.581  16.136  0.00  0.00    +0.000 A 
ATOM     15  C   UNL     1       5.285   3.706  15.047  0.00  0.00    +0.000 A 
ATOM     16  C   UNL     1       6.116   3.898  13.941  0.00  0.00    +0.000 A 
ATOM     17  C   UNL     1       7.001   4.980  13.894  0.00  0.00    +0.000 A 
ATOM     18  C   UNL     1       7.036   5.864  14.983  0.00  0.00    +0.000 A 
ATOM     19  C   UNL     1       6.194   5.673  16.089  0.00  0.00    +0.000 A 
BRANCH  17  20
ATOM     20  C   UNL     1       7.886   5.195  12.692  0.00  0.00    +0.000 C 
ATOM     21  F   UNL     1       7.754   4.231  11.737  0.00  0.00    +0.000 F 
ATOM     22  F   UNL     1       7.629   6.375  12.062  0.00  0.00    +0.000 F 
ATOM     23  F   UNL     1       9.209   5.223  13.010  0.00  0.00    +0.000 F 
ENDBRANCH  17  20
ENDBRANCH   3  14
TORSDOF 4
ENDMDL
MODEL 7
REMARK VINA RESULT:      -7.1      1.322      2.037
REMARK  Name = 
REMARK  4 active torsions:
REMARK  status: ('A' for Active; 'I' for Inactive)
REMARK    1  A    between atoms: C_6  and  O_7
REMARK    2  A    between atoms: C_8  and  C_9
REMARK    3  A    between atoms: N_11  and  C_12
REMARK    4  A    between atoms: C_15  and  C_16
REMARK                            x       y       z     vdW  Elec       q    Type
REMARK                         _______ _______ _______ _____ _____    ______ ____
ROOT
ATOM      1  C   UNL     1       3.753   4.603  17.735  0.00  0.00    +0.000 C 
ATOM      2  O   UNL     1       3.443   5.719  17.329  0.00  0.00    +0.000 OA
ATOM      3  N   UNL     1       4.656   3.773  17.091  0.00  0.00    +0.000 N 
ATOM      4  H   UNL     1       4.680   2.797  17.390  0.00  0.00    +0.000 HD
ENDROOT
BRANCH   1  11
ATOM      5  O   UNL     1       2.846   1.828  18.036  0.00  0.00    +0.000 OA
ATOM      6  C   UNL     1       2.573   2.599  18.960  0.00  0.00    +0.000 C 
ATOM      7  C   UNL     1       1.811   2.096  20.167  0.00  0.00    +0.000 C 
ATOM      8  C   UNL     1       1.095   3.224  20.882  0.00  0.00    +0.000 C 
ATOM      9  C   UNL     1       2.086   4.317  21.249  0.00  0.00    +0.000 C 
ATOM     10  C   UNL     1       2.894   4.756  20.057  0.00  0.00    +0.000 C 
ATOM     11  C   UNL     1       3.072   4.010  18.941  0.00  0.00    +0.000 C 
BRANCH  10  12
ATOM     12  O   UNL     1       3.442   6.021  20.182  0.00  0.00    +0.000 OA
ATOM     13  H   UNL     1       4.050   6.211  19.448  0.00  0.00    +0.000 HD
ENDBRANCH  10  12
ENDBRANCH   1  11
BRANCH   3  14
ATOM     14  C   UNL     1       5.443   4.118  15.969  0.00  0.00    +0.000 A 
ATOM     15  C   UNL     1       5.075   3.804  14.658  0.00  0.00    +0.000 A 
ATOM     16  C   UNL     1       5.885   4.162  13.578  0.00  0.00    +0.000 A 
ATOM     17  C   UNL     1       7.083   4.852  13.783  0.00  0.00    +0.000 A 
ATOM     18  C   UNL     1       7.453   5.175  15.098  0.00  0.00    +0.000 A 
ATOM     19  C   UNL     1       6.634   4.821  16.180  0.00  0.00    +0.000 A 
BRANCH  17  20
ATOM     20  C   UNL     1       7.948   5.252  12.614  0.00  0.00    +0.000 C 
ATOM     21  F   UNL     1       7.616   6.462  12.078  0.00  0.00    +0.000 F 
ATOM     22  F   UNL     1       9.265   5.346  12.949  0.00  0.00    +0.000 F 
ATOM     23  F   UNL     1       7.888   4.362  11.586  0.00  0.00    +0.000 F 
ENDBRANCH  17  20
ENDBRANCH   3  14
TORSDOF 4
ENDMDL
MODEL 8
REMARK VINA RESULT:      -7.1      0.963      1.388
REMARK  Name = 
REMARK  4 active torsions:
REMARK  status: ('A' for Active; 'I' for Inactive)
REMARK    1  A    between atoms: C_6  and  O_7
REMARK    2  A    between atoms: C_8  and  C_9
REMARK    3  A    between atoms: N_11  and  C_12
REMARK    4  A    between atoms: C_15  and  C_16
REMARK                            x       y       z     vdW  Elec       q    Type
REMARK                         _______ _______ _______ _____ _____    ______ ____
ROOT
ATOM      1  C   UNL     1       4.027   2.988  17.657  0.00  0.00    +0.000 C 
ATOM      2  O   UNL     1       4.388   1.913  17.187  0.00  0.00    +0.000 OA
ATOM      3  N   UNL     1       4.471   4.217  17.199  0.00  0.00    +0.000 N 
ATOM      4  H   UNL     1       4.278   5.027  17.789  0.00  0.00    +0.000 HD
ENDROOT
BRANCH   1  11
ATOM      5  O   UNL     1       1.221   3.847  17.713  0.00  0.00    +0.000 OA
ATOM      6  C   UNL     1       1.733   3.567  18.800  0.00  0.00    +0.000 C 
ATOM      7  C   UNL     1       0.916   3.673  20.071  0.00  0.00    +0.000 C 
ATOM      8  C   UNL     1       1.803   3.851  21.288  0.00  0.00    +0.000 C 
ATOM      9  C   UNL     1       2.820   2.724  21.357  0.00  0.00    +0.000 C 
ATOM     10  C   UNL     1       3.573   2.576  20.062  0.00  0.00    +0.000 C 
ATOM     11  C   UNL     1       3.128   3.032  18.866  0.00  0.00    +0.000 C 
BRANCH  10  12
ATOM     12  O   UNL     1       4.795   1.938  20.188  0.00  0.00    +0.000 OA
ATOM     13  H   UNL     1       4.933   1.628  21.099  0.00  0.00    +0.000 HD
ENDBRANCH  10  12
ENDBRANCH   1  11
BRANCH   3  14
ATOM     14  C   UNL     1       5.286   4.432  16.064  0.00  0.00    +0.000 A 
ATOM     15  C   UNL     1       4.902   4.059  14.773  0.00  0.00    +0.000 A 
ATOM     16  C   UNL     1       5.739   4.286  13.679  0.00  0.00    +0.000 A 
ATOM     17  C   UNL     1       6.983   4.902  13.849  0.00  0.00    +0.000 A 
ATOM     18  C   UNL     1       7.370   5.282  15.143  0.00  0.00    +0.000 A 
ATOM     19  C   UNL     1       6.523   5.060  16.239  0.00  0.00    +0.000 A 
BRANCH  17  20
ATOM     20  C   UNL     1       7.879   5.161  12.664  0.00  0.00    +0.000 C 
ATOM     21  F   UNL     1       7.623   6.343  12.035  0.00  0.00    +0.000 F 
ATOM     22  F   UNL     1       9.197   5.205  13.008  0.00  0.00    +0.000 F 
ATOM     23  F   UNL     1       7.776   4.200  11.705  0.00  0.00    +0.000 F 
ENDBRANCH  17  20
ENDBRANCH   3  14
TORSDOF 4
ENDMDL
MODEL 9
REMARK VINA RESULT:      -7.0      0.926      2.238
REMARK  Name = 
REMARK  4 active torsions:
REMARK  status: ('A' for Active; 'I' for Inactive)
REMARK    1  A    between atoms: C_6  and  O_7
REMARK    2  A    between atoms: C_8  and  C_9
REMARK    3  A    between atoms: N_11  and  C_12
REMARK    4  A    between atoms: C_15  and  C_16
REMARK                            x       y       z     vdW  Elec       q    Type
REMARK                         _______ _______ _______ _____ _____    ______ ____
ROOT
ATOM      1  C   UNL     1       3.935   3.185  17.800  0.00  0.00    +0.000 C 
ATOM      2  O   UNL     1       4.054   2.111  17.218  0.00  0.00    +0.000 OA
ATOM      3  N   UNL     1       4.580   4.348  17.412  0.00  0.00    +0.000 N 
ATOM      4  H   UNL     1       4.581   5.120  18.079  0.00  0.00    +0.000 HD
ENDROOT
BRANCH   1  11
ATOM      5  O   UNL     1       4.725   2.174  20.440  0.00  0.00    +0.000 OA
ATOM      6  C   UNL     1       3.594   2.658  20.352  0.00  0.00    +0.000 C 
ATOM      7  C   UNL     1       2.695   2.708  21.570  0.00  0.00    +0.000 C 
ATOM      8  C   UNL     1       1.233   2.786  21.178  0.00  0.00    +0.000 C 
ATOM      9  C   UNL     1       1.005   3.970  20.253  0.00  0.00    +0.000 C 
ATOM     10  C   UNL     1       1.956   3.952  19.085  0.00  0.00    +0.000 C 
ATOM     11  C   UNL     1       3.134   3.282  19.073  0.00  0.00    +0.000 C 
BRANCH  10  12
ATOM     12  O   UNL     1       1.519   4.677  17.990  0.00  0.00    +0.000 OA
ATOM     13  H   UNL     1       0.641   4.378  17.703  0.00  0.00    +0.000 HD
ENDBRANCH  10  12
ENDBRANCH   1  11
BRANCH   3  14
ATOM     14  C   UNL     1       5.352   4.513  16.240  0.00  0.00    +0.000 A 
ATOM     15  C   UNL     1       4.869   4.213  14.963  0.00  0.00    +0.000 A 
ATOM     16  C   UNL     1       5.668   4.387  13.831  0.00  0.00    +0.000 A 
ATOM     17  C   UNL     1       6.973   4.876  13.948  0.00  0.00    +0.000 A 
ATOM     18  C   UNL     1       7.460   5.184  15.227  0.00  0.00    +0.000 A 
ATOM     19  C   UNL     1       6.652   5.015  16.362  0.00  0.00    +0.000 A 
BRANCH  17  20
ATOM     20  C   UNL     1       7.828   5.079  12.722  0.00  0.00    +0.000 C 
ATOM     21  F   UNL     1       7.528   6.215  12.030  0.00  0.00    +0.000 F 
ATOM     22  F   UNL     1       9.154   5.170  13.023  0.00  0.00    +0.000 F 
ATOM     23  F   UNL     1       7.718   4.059  11.828  0.00  0.00    +0.000 F 
ENDBRANCH  17  20
ENDBRANCH   3  14
TORSDOF 4
ENDMDL
