MODEL 1
REMARK VINA RESULT:      -8.7      0.000      0.000
REMARK  Name = 
REMARK  4 active torsions:
REMARK  status: ('A' for Active; 'I' for Inactive)
REMARK    1  A    between atoms: C_1  and  N_2
REMARK    2  A    between atoms: N_2  and  C_3
REMARK    3  A    between atoms: C_12  and  C_13
REMARK    4  A    between atoms: C_13  and  C_14
REMARK                            x       y       z     vdW  Elec       q    Type
REMARK                         _______ _______ _______ _____ _____    ______ ____
ROOT
ATOM      1  C   UNL     1       5.646   6.860  17.739  0.00  0.00    +0.000 C 
ATOM      2  N   UNL     1       4.766   5.642  18.030  0.00  0.00    +0.000 N 
ATOM      3  C   UNL     1       5.606   4.698  18.920  0.00  0.00    +0.000 C 
ATOM      4  C   UNL     1       4.382   4.923  16.725  0.00  0.00    +0.000 C 
ATOM      5  C   UNL     1       3.569   3.647  16.973  0.00  0.00    +0.000 C 
ATOM      6  C   UNL     1       2.631   3.685  18.156  0.00  0.00    +0.000 A 
ATOM      7  C   UNL     1       1.857   2.548  18.434  0.00  0.00    +0.000 A 
ATOM      8  C   UNL     1       1.053   2.497  19.572  0.00  0.00    +0.000 A 
ATOM      9  C   UNL     1       1.025   3.571  20.454  0.00  0.00    +0.000 A 
ATOM     10  C   UNL     1       1.810   4.695  20.205  0.00  0.00    +0.000 A 
ATOM     11  C   UNL     1       2.605   4.776  19.047  0.00  0.00    +0.000 A 
ATOM     12  C   UNL     1       3.427   6.030  18.774  0.00  0.00    +0.000 C 
ENDROOT
BRANCH  12  13
ATOM     13  C   UNL     1       2.593   7.106  17.977  0.00  0.00    +0.000 C 
BRANCH  13  14
ATOM     14  C   UNL     1       1.967   8.175  18.858  0.00  0.00    +0.000 A 
ATOM     15  C   UNL     1       1.872   8.012  20.239  0.00  0.00    +0.000 A 
ATOM     16  C   UNL     1       1.127   8.923  21.008  0.00  0.00    +0.000 A 
ATOM     17  C   UNL     1       0.405   9.946  20.388  0.00  0.00    +0.000 A 
ATOM     18  C   UNL     1      -0.488  10.753  21.115  0.00  0.00    +0.000 A 
ATOM     19  C   UNL     1      -1.369  11.599  20.451  0.00  0.00    +0.000 A 
ATOM     20  C   UNL     1      -1.287  11.747  19.068  0.00  0.00    +0.000 A 
ATOM     21  C   UNL     1      -0.304  11.066  18.350  0.00  0.00    +0.000 A 
ATOM     22  C   UNL     1       0.518  10.130  18.992  0.00  0.00    +0.000 A 
ATOM     23  C   UNL     1       1.377   9.301  18.257  0.00  0.00    +0.000 A 
ENDBRANCH  13  14
ENDBRANCH  12  13
TORSDOF 2
ENDMDL
MODEL 2
REMARK VINA RESULT:      -8.6      0.778      1.800
REMARK  Name = 
REMARK  4 active torsions:
REMARK  status: ('A' for Active; 'I' for Inactive)
REMARK    1  A    between atoms: C_1  and  N_2
REMARK    2  A    between atoms: N_2  and  C_3
REMARK    3  A    between atoms: C_12  and  C_13
REMARK    4  A    between atoms: C_13  and  C_14
REMARK                            x       y       z     vdW  Elec       q    Type
REMARK                         _______ _______ _______ _____ _____    ______ ____
ROOT
ATOM      1  C   UNL     1       6.205   6.708  17.822  0.00  0.00    +0.000 C 
ATOM      2  N   UNL     1       5.188   5.577  17.996  0.00  0.00    +0.000 N 
ATOM      3  C   UNL     1       5.826   4.563  18.973  0.00  0.00    +0.000 C 
ATOM      4  C   UNL     1       4.900   4.892  16.649  0.00  0.00    +0.000 C 
ATOM      5  C   UNL     1       3.949   3.697  16.789  0.00  0.00    +0.000 C 
ATOM      6  C   UNL     1       2.884   3.825  17.851  0.00  0.00    +0.000 A 
ATOM      7  C   UNL     1       1.982   2.765  18.027  0.00  0.00    +0.000 A 
ATOM      8  C   UNL     1       1.046   2.791  19.061  0.00  0.00    +0.000 A 
ATOM      9  C   UNL     1       1.012   3.867  19.940  0.00  0.00    +0.000 A 
ATOM     10  C   UNL     1       1.920   4.913  19.795  0.00  0.00    +0.000 A 
ATOM     11  C   UNL     1       2.851   4.917  18.741  0.00  0.00    +0.000 A 
ATOM     12  C   UNL     1       3.812   6.089  18.578  0.00  0.00    +0.000 C 
ENDROOT
BRANCH  12  13
ATOM     13  C   UNL     1       3.181   7.234  17.695  0.00  0.00    +0.000 C 
BRANCH  13  14
ATOM     14  C   UNL     1       2.099   8.032  18.405  0.00  0.00    +0.000 A 
ATOM     15  C   UNL     1       1.415   9.060  17.760  0.00  0.00    +0.000 A 
ATOM     16  C   UNL     1       0.556   9.902  18.486  0.00  0.00    +0.000 A 
ATOM     17  C   UNL     1       0.448   9.774  19.874  0.00  0.00    +0.000 A 
ATOM     18  C   UNL     1      -0.259  10.716  20.641  0.00  0.00    +0.000 A 
ATOM     19  C   UNL     1      -0.159  10.710  22.028  0.00  0.00    +0.000 A 
ATOM     20  C   UNL     1       0.543   9.694  22.673  0.00  0.00    +0.000 A 
ATOM     21  C   UNL     1       1.123   8.666  21.930  0.00  0.00    +0.000 A 
ATOM     22  C   UNL     1       1.120   8.718  20.529  0.00  0.00    +0.000 A 
ATOM     23  C   UNL     1       1.860   7.800  19.772  0.00  0.00    +0.000 A 
ENDBRANCH  13  14
ENDBRANCH  12  13
TORSDOF 2
ENDMDL
MODEL 3
REMARK VINA RESULT:      -8.6      1.420      3.611
REMARK  Name = 
REMARK  4 active torsions:
REMARK  status: ('A' for Active; 'I' for Inactive)
REMARK    1  A    between atoms: C_1  and  N_2
REMARK    2  A    between atoms: N_2  and  C_3
REMARK    3  A    between atoms: C_12  and  C_13
REMARK    4  A    between atoms: C_13  and  C_14
REMARK                            x       y       z     vdW  Elec       q    Type
REMARK                         _______ _______ _______ _____ _____    ______ ____
ROOT
ATOM      1  C   UNL     1       0.937   3.915  19.951  0.00  0.00    +0.000 C 
ATOM      2  N   UNL     1       2.245   4.011  19.161  0.00  0.00    +0.000 N 
ATOM      3  C   UNL     1       2.021   3.226  17.848  0.00  0.00    +0.000 C 
ATOM      4  C   UNL     1       3.405   3.383  19.951  0.00  0.00    +0.000 C 
ATOM      5  C   UNL     1       4.721   3.380  19.163  0.00  0.00    +0.000 C 
ATOM      6  C   UNL     1       4.940   4.560  18.246  0.00  0.00    +0.000 A 
ATOM      7  C   UNL     1       6.127   4.617  17.499  0.00  0.00    +0.000 A 
ATOM      8  C   UNL     1       6.330   5.631  16.564  0.00  0.00    +0.000 A 
ATOM      9  C   UNL     1       5.345   6.590  16.352  0.00  0.00    +0.000 A 
ATOM     10  C   UNL     1       4.151   6.529  17.067  0.00  0.00    +0.000 A 
ATOM     11  C   UNL     1       3.940   5.530  18.034  0.00  0.00    +0.000 A 
ATOM     12  C   UNL     1       2.642   5.504  18.832  0.00  0.00    +0.000 C 
ENDROOT
BRANCH  12  13
ATOM     13  C   UNL     1       2.744   6.393  20.131  0.00  0.00    +0.000 C 
BRANCH  13  14
ATOM     14  C   UNL     1       1.769   7.559  20.155  0.00  0.00    +0.000 A 
ATOM     15  C   UNL     1       1.745   8.506  19.133  0.00  0.00    +0.000 A 
ATOM     16  C   UNL     1       0.970   9.671  19.266  0.00  0.00    +0.000 A 
ATOM     17  C   UNL     1       0.287   9.932  20.457  0.00  0.00    +0.000 A 
ATOM     18  C   UNL     1      -0.342  11.169  20.682  0.00  0.00    +0.000 A 
ATOM     19  C   UNL     1      -0.807  11.501  21.950  0.00  0.00    +0.000 A 
ATOM     20  C   UNL     1      -0.765  10.561  22.977  0.00  0.00    +0.000 A 
ATOM     21  C   UNL     1      -0.281   9.277  22.729  0.00  0.00    +0.000 A 
ATOM     22  C   UNL     1       0.288   8.964  21.487  0.00  0.00    +0.000 A 
ATOM     23  C   UNL     1       0.949   7.746  21.283  0.00  0.00    +0.000 A 
ENDBRANCH  13  14
ENDBRANCH  12  13
TORSDOF 2
ENDMDL
MODEL 4
REMARK VINA RESULT:      -8.3      2.360      7.474
REMARK  Name = 
REMARK  4 active torsions:
REMARK  status: ('A' for Active; 'I' for Inactive)
REMARK    1  A    between atoms: C_1  and  N_2
REMARK    2  A    between atoms: N_2  and  C_3
REMARK    3  A    between atoms: C_12  and  C_13
REMARK    4  A    between atoms: C_13  and  C_14
REMARK                            x       y       z     vdW  Elec       q    Type
REMARK                         _______ _______ _______ _____ _____    ______ ____
ROOT
ATOM      1  C   UNL     1       1.702  12.611  20.317  0.00  0.00    +0.000 C 
ATOM      2  N   UNL     1       0.317  12.439  19.690  0.00  0.00    +0.000 N 
ATOM      3  C   UNL     1       0.210  13.499  18.570  0.00  0.00    +0.000 C 
ATOM      4  C   UNL     1      -0.787  12.673  20.735  0.00  0.00    +0.000 C 
ATOM      5  C   UNL     1      -2.195  12.594  20.133  0.00  0.00    +0.000 C 
ATOM      6  C   UNL     1      -2.373  11.603  19.007  0.00  0.00    +0.000 A 
ATOM      7  C   UNL     1      -3.640  11.482  18.415  0.00  0.00    +0.000 A 
ATOM      8  C   UNL     1      -3.831  10.656  17.308  0.00  0.00    +0.000 A 
ATOM      9  C   UNL     1      -2.758   9.956  16.768  0.00  0.00    +0.000 A 
ATOM     10  C   UNL     1      -1.489  10.089  17.329  0.00  0.00    +0.000 A 
ATOM     11  C   UNL     1      -1.284  10.894  18.464  0.00  0.00    +0.000 A 
ATOM     12  C   UNL     1       0.105  10.995  19.084  0.00  0.00    +0.000 C 
ENDROOT
BRANCH  12  13
ATOM     13  C   UNL     1       0.345   9.860  20.152  0.00  0.00    +0.000 C 
BRANCH  13  14
ATOM     14  C   UNL     1       1.298   8.770  19.687  0.00  0.00    +0.000 A 
ATOM     15  C   UNL     1       1.884   8.810  18.424  0.00  0.00    +0.000 A 
ATOM     16  C   UNL     1       2.610   7.706  17.947  0.00  0.00    +0.000 A 
ATOM     17  C   UNL     1       2.677   6.528  18.695  0.00  0.00    +0.000 A 
ATOM     18  C   UNL     1       3.239   5.355  18.161  0.00  0.00    +0.000 A 
ATOM     19  C   UNL     1       3.085   4.139  18.819  0.00  0.00    +0.000 A 
ATOM     20  C   UNL     1       2.480   4.096  20.073  0.00  0.00    +0.000 A 
ATOM     21  C   UNL     1       2.053   5.276  20.683  0.00  0.00    +0.000 A 
ATOM     22  C   UNL     1       2.105   6.490  19.987  0.00  0.00    +0.000 A 
ATOM     23  C   UNL     1       1.507   7.646  20.506  0.00  0.00    +0.000 A 
ENDBRANCH  13  14
ENDBRANCH  12  13
TORSDOF 2
ENDMDL
MODEL 5
REMARK VINA RESULT:      -7.8      2.498      7.321
REMARK  Name = 
REMARK  4 active torsions:
REMARK  status: ('A' for Active; 'I' for Inactive)
REMARK    1  A    between atoms: C_1  and  N_2
REMARK    2  A    between atoms: N_2  and  C_3
REMARK    3  A    between atoms: C_12  and  C_13
REMARK    4  A    between atoms: C_13  and  C_14
REMARK                            x       y       z     vdW  Elec       q    Type
REMARK                         _______ _______ _______ _____ _____    ______ ____
ROOT
ATOM      1  C   UNL     1       1.893  12.862  20.283  0.00  0.00    +0.000 C 
ATOM      2  N   UNL     1       0.489  12.654  19.710  0.00  0.00    +0.000 N 
ATOM      3  C   UNL     1       0.385  13.566  18.466  0.00  0.00    +0.000 C 
ATOM      4  C   UNL     1      -0.583  13.052  20.739  0.00  0.00    +0.000 C 
ATOM      5  C   UNL     1      -2.007  12.941  20.179  0.00  0.00    +0.000 C 
ATOM      6  C   UNL     1      -2.239  11.821  19.193  0.00  0.00    +0.000 A 
ATOM      7  C   UNL     1      -3.522  11.665  18.646  0.00  0.00    +0.000 A 
ATOM      8  C   UNL     1      -3.762  10.712  17.657  0.00  0.00    +0.000 A 
ATOM      9  C   UNL     1      -2.722   9.916  17.190  0.00  0.00    +0.000 A 
ATOM     10  C   UNL     1      -1.437  10.080  17.704  0.00  0.00    +0.000 A 
ATOM     11  C   UNL     1      -1.183  11.016  18.723  0.00  0.00    +0.000 A 
ATOM     12  C   UNL     1       0.222  11.153  19.298  0.00  0.00    +0.000 C 
ENDROOT
BRANCH  12  13
ATOM     13  C   UNL     1       0.455  10.155  20.497  0.00  0.00    +0.000 C 
BRANCH  13  14
ATOM     14  C   UNL     1       1.086   8.835  20.084  0.00  0.00    +0.000 A 
ATOM     15  C   UNL     1       1.183   7.768  20.975  0.00  0.00    +0.000 A 
ATOM     16  C   UNL     1       1.932   6.629  20.634  0.00  0.00    +0.000 A 
ATOM     17  C   UNL     1       2.657   6.591  19.441  0.00  0.00    +0.000 A 
ATOM     18  C   UNL     1       3.555   5.545  19.164  0.00  0.00    +0.000 A 
ATOM     19  C   UNL     1       4.438   5.641  18.094  0.00  0.00    +0.000 A 
ATOM     20  C   UNL     1       4.354   6.719  17.215  0.00  0.00    +0.000 A 
ATOM     21  C   UNL     1       3.367   7.688  17.390  0.00  0.00    +0.000 A 
ATOM     22  C   UNL     1       2.543   7.660  18.523  0.00  0.00    +0.000 A 
ATOM     23  C   UNL     1       1.680   8.725  18.814  0.00  0.00    +0.000 A 
ENDBRANCH  13  14
ENDBRANCH  12  13
TORSDOF 2
ENDMDL
MODEL 6
REMARK VINA RESULT:      -7.8      1.338      3.242
REMARK  Name = 
REMARK  4 active torsions:
REMARK  status: ('A' for Active; 'I' for Inactive)
REMARK    1  A    between atoms: C_1  and  N_2
REMARK    2  A    between atoms: N_2  and  C_3
REMARK    3  A    between atoms: C_12  and  C_13
REMARK    4  A    between atoms: C_13  and  C_14
REMARK                            x       y       z     vdW  Elec       q    Type
REMARK                         _______ _______ _______ _____ _____    ______ ____
ROOT
ATOM      1  C   UNL     1       0.824   4.033  20.087  0.00  0.00    +0.000 C 
ATOM      2  N   UNL     1       2.079   4.112  19.213  0.00  0.00    +0.000 N 
ATOM      3  C   UNL     1       1.733   3.401  17.886  0.00  0.00    +0.000 C 
ATOM      4  C   UNL     1       3.261   3.401  19.893  0.00  0.00    +0.000 C 
ATOM      5  C   UNL     1       4.519   3.381  19.017  0.00  0.00    +0.000 C 
ATOM      6  C   UNL     1       4.728   4.593  18.141  0.00  0.00    +0.000 A 
ATOM      7  C   UNL     1       5.863   4.637  17.317  0.00  0.00    +0.000 A 
ATOM      8  C   UNL     1       6.048   5.686  16.416  0.00  0.00    +0.000 A 
ATOM      9  C   UNL     1       5.095   6.692  16.316  0.00  0.00    +0.000 A 
ATOM     10  C   UNL     1       3.949   6.647  17.107  0.00  0.00    +0.000 A 
ATOM     11  C   UNL     1       3.760   5.613  18.042  0.00  0.00    +0.000 A 
ATOM     12  C   UNL     1       2.518   5.602  18.925  0.00  0.00    +0.000 C 
ENDROOT
BRANCH  12  13
ATOM     13  C   UNL     1       2.746   6.424  20.252  0.00  0.00    +0.000 C 
BRANCH  13  14
ATOM     14  C   UNL     1       1.954   7.720  20.316  0.00  0.00    +0.000 A 
ATOM     15  C   UNL     1       1.457   8.207  21.523  0.00  0.00    +0.000 A 
ATOM     16  C   UNL     1       0.575   9.301  21.534  0.00  0.00    +0.000 A 
ATOM     17  C   UNL     1       0.120   9.853  20.334  0.00  0.00    +0.000 A 
ATOM     18  C   UNL     1      -0.898  10.823  20.317  0.00  0.00    +0.000 A 
ATOM     19  C   UNL     1      -1.502  11.185  19.117  0.00  0.00    +0.000 A 
ATOM     20  C   UNL     1      -1.018  10.682  17.912  0.00  0.00    +0.000 A 
ATOM     21  C   UNL     1       0.090   9.836  17.903  0.00  0.00    +0.000 A 
ATOM     22  C   UNL     1       0.640   9.379  19.109  0.00  0.00    +0.000 A 
ATOM     23  C   UNL     1       1.625   8.384  19.120  0.00  0.00    +0.000 A 
ENDBRANCH  13  14
ENDBRANCH  12  13
TORSDOF 2
ENDMDL
MODEL 7
REMARK VINA RESULT:      -7.6      1.421      3.860
REMARK  Name = 
REMARK  4 active torsions:
REMARK  status: ('A' for Active; 'I' for Inactive)
REMARK    1  A    between atoms: C_1  and  N_2
REMARK    2  A    between atoms: N_2  and  C_3
REMARK    3  A    between atoms: C_12  and  C_13
REMARK    4  A    between atoms: C_13  and  C_14
REMARK                            x       y       z     vdW  Elec       q    Type
REMARK                         _______ _______ _______ _____ _____    ______ ____
ROOT
ATOM      1  C   UNL     1       2.313   3.677  17.696  0.00  0.00    +0.000 C 
ATOM      2  N   UNL     1       3.753   4.191  17.766  0.00  0.00    +0.000 N 
ATOM      3  C   UNL     1       4.413   3.826  16.416  0.00  0.00    +0.000 C 
ATOM      4  C   UNL     1       4.517   3.517  18.918  0.00  0.00    +0.000 C 
ATOM      5  C   UNL     1       5.990   3.939  18.974  0.00  0.00    +0.000 C 
ATOM      6  C   UNL     1       6.282   5.362  18.563  0.00  0.00    +0.000 A 
ATOM      7  C   UNL     1       7.612   5.810  18.594  0.00  0.00    +0.000 A 
ATOM      8  C   UNL     1       7.945   7.080  18.128  0.00  0.00    +0.000 A 
ATOM      9  C   UNL     1       6.960   7.912  17.609  0.00  0.00    +0.000 A 
ATOM     10  C   UNL     1       5.640   7.470  17.545  0.00  0.00    +0.000 A 
ATOM     11  C   UNL     1       5.280   6.202  18.038  0.00  0.00    +0.000 A 
ATOM     12  C   UNL     1       3.825   5.753  17.993  0.00  0.00    +0.000 C 
ENDROOT
BRANCH  12  13
ATOM     13  C   UNL     1       3.041   6.203  19.285  0.00  0.00    +0.000 C 
BRANCH  13  14
ATOM     14  C   UNL     1       2.203   7.457  19.090  0.00  0.00    +0.000 A 
ATOM     15  C   UNL     1       2.082   8.061  17.840  0.00  0.00    +0.000 A 
ATOM     16  C   UNL     1       1.460   9.315  17.719  0.00  0.00    +0.000 A 
ATOM     17  C   UNL     1       1.037  10.007  18.857  0.00  0.00    +0.000 A 
ATOM     18  C   UNL     1       0.581  11.335  18.776  0.00  0.00    +0.000 A 
ATOM     19  C   UNL     1       0.392  12.083  19.933  0.00  0.00    +0.000 A 
ATOM     20  C   UNL     1       0.534  11.485  21.183  0.00  0.00    +0.000 A 
ATOM     21  C   UNL     1       0.838  10.127  21.277  0.00  0.00    +0.000 A 
ATOM     22  C   UNL     1       1.136   9.389  20.124  0.00  0.00    +0.000 A 
ATOM     23  C   UNL     1       1.628   8.080  20.212  0.00  0.00    +0.000 A 
ENDBRANCH  13  14
ENDBRANCH  12  13
TORSDOF 2
ENDMDL
MODEL 8
REMARK VINA RESULT:      -7.6      1.009      1.069
REMARK  Name = 
REMARK  4 active torsions:
REMARK  status: ('A' for Active; 'I' for Inactive)
REMARK    1  A    between atoms: C_1  and  N_2
REMARK    2  A    between atoms: N_2  and  C_3
REMARK    3  A    between atoms: C_12  and  C_13
REMARK    4  A    between atoms: C_13  and  C_14
REMARK                            x       y       z     vdW  Elec       q    Type
REMARK                         _______ _______ _______ _____ _____    ______ ____
ROOT
ATOM      1  C   UNL     1       5.284   7.074  17.406  0.00  0.00    +0.000 C 
ATOM      2  N   UNL     1       4.592   5.803  17.906  0.00  0.00    +0.000 N 
ATOM      3  C   UNL     1       5.645   5.028  18.731  0.00  0.00    +0.000 C 
ATOM      4  C   UNL     1       4.119   4.940  16.724  0.00  0.00    +0.000 C 
ATOM      5  C   UNL     1       3.494   3.614  17.176  0.00  0.00    +0.000 C 
ATOM      6  C   UNL     1       2.726   3.659  18.475  0.00  0.00    +0.000 A 
ATOM      7  C   UNL     1       2.128   2.478  18.942  0.00  0.00    +0.000 A 
ATOM      8  C   UNL     1       1.496   2.444  20.184  0.00  0.00    +0.000 A 
ATOM      9  C   UNL     1       1.468   3.582  20.982  0.00  0.00    +0.000 A 
ATOM     10  C   UNL     1       2.082   4.754  20.544  0.00  0.00    +0.000 A 
ATOM     11  C   UNL     1       2.699   4.815  19.281  0.00  0.00    +0.000 A 
ATOM     12  C   UNL     1       3.331   6.117  18.805  0.00  0.00    +0.000 C 
ENDROOT
BRANCH  12  13
ATOM     13  C   UNL     1       2.283   7.031  18.062  0.00  0.00    +0.000 C 
BRANCH  13  14
ATOM     14  C   UNL     1       1.939   8.308  18.812  0.00  0.00    +0.000 A 
ATOM     15  C   UNL     1       1.256   8.273  20.027  0.00  0.00    +0.000 A 
ATOM     16  C   UNL     1       0.787   9.464  20.607  0.00  0.00    +0.000 A 
ATOM     17  C   UNL     1       0.923  10.680  19.932  0.00  0.00    +0.000 A 
ATOM     18  C   UNL     1       0.303  11.850  20.405  0.00  0.00    +0.000 A 
ATOM     19  C   UNL     1       0.247  12.987  19.606  0.00  0.00    +0.000 A 
ATOM     20  C   UNL     1       0.912  13.014  18.383  0.00  0.00    +0.000 A 
ATOM     21  C   UNL     1       1.659  11.911  17.969  0.00  0.00    +0.000 A 
ATOM     22  C   UNL     1       1.635  10.724  18.713  0.00  0.00    +0.000 A 
ATOM     23  C   UNL     1       2.220   9.551  18.217  0.00  0.00    +0.000 A 
ENDBRANCH  13  14
ENDBRANCH  12  13
TORSDOF 2
ENDMDL
MODEL 9
REMARK VINA RESULT:      -7.5      2.811      6.996
REMARK  Name = 
REMARK  4 active torsions:
REMARK  status: ('A' for Active; 'I' for Inactive)
REMARK    1  A    between atoms: C_1  and  N_2
REMARK    2  A    between atoms: N_2  and  C_3
REMARK    3  A    between atoms: C_12  and  C_13
REMARK    4  A    between atoms: C_13  and  C_14
REMARK                            x       y       z     vdW  Elec       q    Type
REMARK                         _______ _______ _______ _____ _____    ______ ____
ROOT
ATOM      1  C   UNL     1       3.699   7.864  17.469  0.00  0.00    +0.000 C 
ATOM      2  N   UNL     1       2.814   6.814  18.147  0.00  0.00    +0.000 N 
ATOM      3  C   UNL     1       1.375   7.064  17.641  0.00  0.00    +0.000 C 
ATOM      4  C   UNL     1       2.863   6.968  19.677  0.00  0.00    +0.000 C 
ATOM      5  C   UNL     1       1.925   5.992  20.397  0.00  0.00    +0.000 C 
ATOM      6  C   UNL     1       1.760   4.639  19.746  0.00  0.00    +0.000 A 
ATOM      7  C   UNL     1       0.916   3.699  20.358  0.00  0.00    +0.000 A 
ATOM      8  C   UNL     1       0.652   2.475  19.744  0.00  0.00    +0.000 A 
ATOM      9  C   UNL     1       1.213   2.182  18.507  0.00  0.00    +0.000 A 
ATOM     10  C   UNL     1       2.030   3.117  17.875  0.00  0.00    +0.000 A 
ATOM     11  C   UNL     1       2.331   4.345  18.492  0.00  0.00    +0.000 A 
ATOM     12  C   UNL     1       3.257   5.338  17.801  0.00  0.00    +0.000 C 
ENDROOT
BRANCH  12  13
ATOM     13  C   UNL     1       4.768   5.068  18.164  0.00  0.00    +0.000 C 
BRANCH  13  14
ATOM     14  C   UNL     1       5.664   4.862  16.953  0.00  0.00    +0.000 A 
ATOM     15  C   UNL     1       6.850   5.576  16.798  0.00  0.00    +0.000 A 
ATOM     16  C   UNL     1       7.564   5.507  15.590  0.00  0.00    +0.000 A 
ATOM     17  C   UNL     1       7.048   4.794  14.505  0.00  0.00    +0.000 A 
ATOM     18  C   UNL     1       7.650   4.861  13.235  0.00  0.00    +0.000 A 
ATOM     19  C   UNL     1       6.997   4.345  12.121  0.00  0.00    +0.000 A 
ATOM     20  C   UNL     1       5.801   3.648  12.273  0.00  0.00    +0.000 A 
ATOM     21  C   UNL     1       5.269   3.443  13.546  0.00  0.00    +0.000 A 
ATOM     22  C   UNL     1       5.859   4.048  14.664  0.00  0.00    +0.000 A 
ATOM     23  C   UNL     1       5.233   4.013  15.917  0.00  0.00    +0.000 A 
ENDBRANCH  13  14
ENDBRANCH  12  13
TORSDOF 2
ENDMDL
