MODEL 1
REMARK VINA RESULT:      -7.7      0.000      0.000
REMARK  Name = 
REMARK  6 active torsions:
REMARK  status: ('A' for Active; 'I' for Inactive)
REMARK    1  A    between atoms: C_1  and  C_2
REMARK    2  A    between atoms: C_2  and  C_3
REMARK    3  A    between atoms: C_5  and  N_6
REMARK    4  A    between atoms: N_6  and  C_7
REMARK    5  A    between atoms: C_7  and  C_8
REMARK    6  A    between atoms: C_8  and  C_9
REMARK                            x       y       z     vdW  Elec       q    Type
REMARK                         _______ _______ _______ _____ _____    ______ ____
ROOT
ATOM      1  C   UNL     1       6.675   4.772  15.467  0.00  0.00    +0.000 A 
ATOM      2  C   UNL     1       5.430   4.051  15.853  0.00  0.00    +0.000 A 
ATOM      3  C   UNL     1       5.100   3.953  17.151  0.00  0.00    +0.000 A 
ATOM      4  C   UNL     1       5.971   4.587  18.085  0.00  0.00    +0.000 A 
ATOM      5  N   UNL     1       5.959   4.666  19.401  0.00  0.00    +0.000 NA
ATOM      6  N   UNL     1       7.074   5.381  19.790  0.00  0.00    +0.000 NA
ATOM      7  C   UNL     1       7.728   5.716  18.701  0.00  0.00    +0.000 A 
ATOM      8  N   UNL     1       7.082   5.239  17.596  0.00  0.00    +0.000 N 
ATOM      9  N   UNL     1       7.483   5.362  16.298  0.00  0.00    +0.000 NA
ENDROOT
BRANCH   1  11
ATOM     10  C   UNL     1       6.243   3.737  13.234  0.00  0.00    +0.000 C 
ATOM     11  C   UNL     1       7.007   4.809  13.987  0.00  0.00    +0.000 C 
ENDBRANCH   1  11
BRANCH   3  12
ATOM     12  N   UNL     1       3.958   3.279  17.588  0.00  0.00    +0.000 N 
ATOM     13  H   UNL     1       4.154   2.270  17.601  0.00  0.00    +0.000 HD
BRANCH  12  14
ATOM     14  C   UNL     1       2.653   3.528  16.961  0.00  0.00    +0.000 C 
BRANCH  14  15
ATOM     15  C   UNL     1       1.735   4.374  17.850  0.00  0.00    +0.000 C 
BRANCH  15  16
ATOM     16  C   UNL     1       1.783   3.971  19.297  0.00  0.00    +0.000 A 
ATOM     17  C   UNL     1       2.345   4.654  20.358  0.00  0.00    +0.000 A 
ATOM     18  C   UNL     1       2.195   3.954  21.591  0.00  0.00    +0.000 A 
ATOM     19  C   UNL     1       1.524   2.763  21.429  0.00  0.00    +0.000 A 
ATOM     20  S   UNL     1       1.091   2.487  19.800  0.00  0.00    +0.000 S 
ENDBRANCH  15  16
ENDBRANCH  14  15
ENDBRANCH  12  14
ENDBRANCH   3  12
TORSDOF 5
ENDMDL
MODEL 2
REMARK VINA RESULT:      -7.3      1.007      1.151
REMARK  Name = 
REMARK  6 active torsions:
REMARK  status: ('A' for Active; 'I' for Inactive)
REMARK    1  A    between atoms: C_1  and  C_2
REMARK    2  A    between atoms: C_2  and  C_3
REMARK    3  A    between atoms: C_5  and  N_6
REMARK    4  A    between atoms: N_6  and  C_7
REMARK    5  A    between atoms: C_7  and  C_8
REMARK    6  A    between atoms: C_8  and  C_9
REMARK                            x       y       z     vdW  Elec       q    Type
REMARK                         _______ _______ _______ _____ _____    ______ ____
ROOT
ATOM      1  C   UNL     1       6.707   4.744  15.336  0.00  0.00    +0.000 A 
ATOM      2  C   UNL     1       5.343   4.229  15.643  0.00  0.00    +0.000 A 
ATOM      3  C   UNL     1       4.935   4.165  16.921  0.00  0.00    +0.000 A 
ATOM      4  C   UNL     1       5.847   4.634  17.911  0.00  0.00    +0.000 A 
ATOM      5  N   UNL     1       5.779   4.693  19.226  0.00  0.00    +0.000 NA
ATOM      6  N   UNL     1       6.974   5.211  19.686  0.00  0.00    +0.000 NA
ATOM      7  C   UNL     1       7.729   5.452  18.639  0.00  0.00    +0.000 A 
ATOM      8  N   UNL     1       7.073   5.104  17.492  0.00  0.00    +0.000 N 
ATOM      9  N   UNL     1       7.555   5.181  16.218  0.00  0.00    +0.000 NA
ENDROOT
BRANCH   1  11
ATOM     10  C   UNL     1       6.288   3.761  13.076  0.00  0.00    +0.000 C 
ATOM     11  C   UNL     1       7.117   4.750  13.875  0.00  0.00    +0.000 C 
ENDBRANCH   1  11
BRANCH   3  12
ATOM     12  N   UNL     1       3.678   3.679  17.285  0.00  0.00    +0.000 N 
ATOM     13  H   UNL     1       3.436   4.047  18.214  0.00  0.00    +0.000 HD
BRANCH  12  14
ATOM     14  C   UNL     1       3.382   2.241  17.225  0.00  0.00    +0.000 C 
BRANCH  14  15
ATOM     15  C   UNL     1       3.477   1.572  18.600  0.00  0.00    +0.000 C 
BRANCH  15  16
ATOM     16  C   UNL     1       2.711   2.304  19.665  0.00  0.00    +0.000 A 
ATOM     17  C   UNL     1       3.126   2.647  20.937  0.00  0.00    +0.000 A 
ATOM     18  C   UNL     1       2.117   3.340  21.667  0.00  0.00    +0.000 A 
ATOM     19  C   UNL     1       0.967   3.502  20.928  0.00  0.00    +0.000 A 
ATOM     20  S   UNL     1       1.101   2.811  19.371  0.00  0.00    +0.000 S 
ENDBRANCH  15  16
ENDBRANCH  14  15
ENDBRANCH  12  14
ENDBRANCH   3  12
TORSDOF 5
ENDMDL
MODEL 3
REMARK VINA RESULT:      -7.3      1.416      1.820
REMARK  Name = 
REMARK  6 active torsions:
REMARK  status: ('A' for Active; 'I' for Inactive)
REMARK    1  A    between atoms: C_1  and  C_2
REMARK    2  A    between atoms: C_2  and  C_3
REMARK    3  A    between atoms: C_5  and  N_6
REMARK    4  A    between atoms: N_6  and  C_7
REMARK    5  A    between atoms: C_7  and  C_8
REMARK    6  A    between atoms: C_8  and  C_9
REMARK                            x       y       z     vdW  Elec       q    Type
REMARK                         _______ _______ _______ _____ _____    ______ ____
ROOT
ATOM      1  C   UNL     1       6.755   4.779  15.355  0.00  0.00    +0.000 A 
ATOM      2  C   UNL     1       5.633   3.881  15.750  0.00  0.00    +0.000 A 
ATOM      3  C   UNL     1       5.327   3.741  17.050  0.00  0.00    +0.000 A 
ATOM      4  C   UNL     1       6.097   4.502  17.977  0.00  0.00    +0.000 A 
ATOM      5  N   UNL     1       6.079   4.583  19.293  0.00  0.00    +0.000 NA
ATOM      6  N   UNL     1       7.077   5.459  19.674  0.00  0.00    +0.000 NA
ATOM      7  C   UNL     1       7.669   5.883  18.581  0.00  0.00    +0.000 A 
ATOM      8  N   UNL     1       7.097   5.310  17.481  0.00  0.00    +0.000 N 
ATOM      9  N   UNL     1       7.469   5.486  16.180  0.00  0.00    +0.000 NA
ENDROOT
BRANCH   1  11
ATOM     10  C   UNL     1       6.252   3.850  13.090  0.00  0.00    +0.000 C 
ATOM     11  C   UNL     1       7.072   4.858  13.874  0.00  0.00    +0.000 C 
ENDBRANCH   1  11
BRANCH   3  12
ATOM     12  N   UNL     1       4.301   2.905  17.495  0.00  0.00    +0.000 N 
ATOM     13  H   UNL     1       4.302   2.049  16.928  0.00  0.00    +0.000 HD
BRANCH  12  14
ATOM     14  C   UNL     1       2.929   3.411  17.635  0.00  0.00    +0.000 C 
BRANCH  14  15
ATOM     15  C   UNL     1       2.528   3.598  19.103  0.00  0.00    +0.000 C 
BRANCH  15  16
ATOM     16  C   UNL     1       2.299   5.036  19.472  0.00  0.00    +0.000 A 
ATOM     17  C   UNL     1       1.736   5.545  20.626  0.00  0.00    +0.000 A 
ATOM     18  C   UNL     1       1.683   6.970  20.618  0.00  0.00    +0.000 A 
ATOM     19  C   UNL     1       2.208   7.499  19.461  0.00  0.00    +0.000 A 
ATOM     20  S   UNL     1       2.747   6.284  18.387  0.00  0.00    +0.000 S 
ENDBRANCH  15  16
ENDBRANCH  14  15
ENDBRANCH  12  14
ENDBRANCH   3  12
TORSDOF 5
ENDMDL
MODEL 4
REMARK VINA RESULT:      -7.0      0.857      1.155
REMARK  Name = 
REMARK  6 active torsions:
REMARK  status: ('A' for Active; 'I' for Inactive)
REMARK    1  A    between atoms: C_1  and  C_2
REMARK    2  A    between atoms: C_2  and  C_3
REMARK    3  A    between atoms: C_5  and  N_6
REMARK    4  A    between atoms: N_6  and  C_7
REMARK    5  A    between atoms: C_7  and  C_8
REMARK    6  A    between atoms: C_8  and  C_9
REMARK                            x       y       z     vdW  Elec       q    Type
REMARK                         _______ _______ _______ _____ _____    ______ ____
ROOT
ATOM      1  C   UNL     1       6.553   4.447  15.348  0.00  0.00    +0.000 A 
ATOM      2  C   UNL     1       5.214   3.959  15.781  0.00  0.00    +0.000 A 
ATOM      3  C   UNL     1       4.888   3.998  17.084  0.00  0.00    +0.000 A 
ATOM      4  C   UNL     1       5.859   4.543  17.973  0.00  0.00    +0.000 A 
ATOM      5  N   UNL     1       5.874   4.706  19.281  0.00  0.00    +0.000 NA
ATOM      6  N   UNL     1       7.093   5.258  19.622  0.00  0.00    +0.000 NA
ATOM      7  C   UNL     1       7.780   5.415  18.513  0.00  0.00    +0.000 A 
ATOM      8  N   UNL     1       7.053   4.977  17.442  0.00  0.00    +0.000 N 
ATOM      9  N   UNL     1       7.454   4.952  16.138  0.00  0.00    +0.000 NA
ENDROOT
BRANCH   1  11
ATOM     10  C   UNL     1       7.871   5.395  13.448  0.00  0.00    +0.000 C 
ATOM     11  C   UNL     1       6.870   4.336  13.869  0.00  0.00    +0.000 C 
ENDBRANCH   1  11
BRANCH   3  12
ATOM     12  N   UNL     1       3.658   3.543  17.565  0.00  0.00    +0.000 N 
ATOM     13  H   UNL     1       3.545   2.556  17.303  0.00  0.00    +0.000 HD
BRANCH  12  14
ATOM     14  C   UNL     1       2.421   4.282  17.281  0.00  0.00    +0.000 C 
BRANCH  14  15
ATOM     15  C   UNL     1       1.235   3.762  18.100  0.00  0.00    +0.000 C 
BRANCH  15  16
ATOM     16  C   UNL     1       1.573   3.535  19.547  0.00  0.00    +0.000 A 
ATOM     17  C   UNL     1       1.541   2.351  20.258  0.00  0.00    +0.000 A 
ATOM     18  C   UNL     1       1.929   2.529  21.618  0.00  0.00    +0.000 A 
ATOM     19  C   UNL     1       2.244   3.839  21.898  0.00  0.00    +0.000 A 
ATOM     20  S   UNL     1       2.060   4.849  20.532  0.00  0.00    +0.000 S 
ENDBRANCH  15  16
ENDBRANCH  14  15
ENDBRANCH  12  14
ENDBRANCH   3  12
TORSDOF 5
ENDMDL
MODEL 5
REMARK VINA RESULT:      -6.9      1.996      3.639
REMARK  Name = 
REMARK  6 active torsions:
REMARK  status: ('A' for Active; 'I' for Inactive)
REMARK    1  A    between atoms: C_1  and  C_2
REMARK    2  A    between atoms: C_2  and  C_3
REMARK    3  A    between atoms: C_5  and  N_6
REMARK    4  A    between atoms: N_6  and  C_7
REMARK    5  A    between atoms: C_7  and  C_8
REMARK    6  A    between atoms: C_8  and  C_9
REMARK                            x       y       z     vdW  Elec       q    Type
REMARK                         _______ _______ _______ _____ _____    ______ ____
ROOT
ATOM      1  C   UNL     1       7.206   6.008  17.367  0.00  0.00    +0.000 A 
ATOM      2  C   UNL     1       6.198   5.051  17.904  0.00  0.00    +0.000 A 
ATOM      3  C   UNL     1       5.613   4.174  17.072  0.00  0.00    +0.000 A 
ATOM      4  C   UNL     1       6.031   4.203  15.710  0.00  0.00    +0.000 A 
ATOM      5  N   UNL     1       5.657   3.515  14.650  0.00  0.00    +0.000 NA
ATOM      6  N   UNL     1       6.375   3.985  13.568  0.00  0.00    +0.000 NA
ATOM      7  C   UNL     1       7.164   4.942  14.003  0.00  0.00    +0.000 A 
ATOM      8  N   UNL     1       6.986   5.127  15.345  0.00  0.00    +0.000 N 
ATOM      9  N   UNL     1       7.607   6.052  16.132  0.00  0.00    +0.000 NA
ENDROOT
BRANCH   1  11
ATOM     10  C   UNL     1       7.967   8.363  17.717  0.00  0.00    +0.000 C 
ATOM     11  C   UNL     1       7.796   6.997  18.355  0.00  0.00    +0.000 C 
ENDBRANCH   1  11
BRANCH   3  12
ATOM     12  N   UNL     1       4.648   3.260  17.501  0.00  0.00    +0.000 N 
ATOM     13  H   UNL     1       4.893   2.328  17.144  0.00  0.00    +0.000 HD
BRANCH  12  14
ATOM     14  C   UNL     1       3.219   3.519  17.283  0.00  0.00    +0.000 C 
BRANCH  14  15
ATOM     15  C   UNL     1       2.479   3.821  18.592  0.00  0.00    +0.000 C 
BRANCH  15  16
ATOM     16  C   UNL     1       2.380   5.292  18.886  0.00  0.00    +0.000 A 
ATOM     17  C   UNL     1       2.631   6.353  18.038  0.00  0.00    +0.000 A 
ATOM     18  C   UNL     1       2.429   7.612  18.676  0.00  0.00    +0.000 A 
ATOM     19  C   UNL     1       2.032   7.468  19.986  0.00  0.00    +0.000 A 
ATOM     20  S   UNL     1       1.916   5.827  20.445  0.00  0.00    +0.000 S 
ENDBRANCH  15  16
ENDBRANCH  14  15
ENDBRANCH  12  14
ENDBRANCH   3  12
TORSDOF 5
ENDMDL
MODEL 6
REMARK VINA RESULT:      -6.8      2.707      3.132
REMARK  Name = 
REMARK  6 active torsions:
REMARK  status: ('A' for Active; 'I' for Inactive)
REMARK    1  A    between atoms: C_1  and  C_2
REMARK    2  A    between atoms: C_2  and  C_3
REMARK    3  A    between atoms: C_5  and  N_6
REMARK    4  A    between atoms: N_6  and  C_7
REMARK    5  A    between atoms: C_7  and  C_8
REMARK    6  A    between atoms: C_8  and  C_9
REMARK                            x       y       z     vdW  Elec       q    Type
REMARK                         _______ _______ _______ _____ _____    ______ ____
ROOT
ATOM      1  C   UNL     1       6.532   4.924  15.675  0.00  0.00    +0.000 A 
ATOM      2  C   UNL     1       5.134   4.685  16.135  0.00  0.00    +0.000 A 
ATOM      3  C   UNL     1       4.859   4.714  17.449  0.00  0.00    +0.000 A 
ATOM      4  C   UNL     1       5.943   5.007  18.327  0.00  0.00    +0.000 A 
ATOM      5  N   UNL     1       6.027   5.090  19.639  0.00  0.00    +0.000 NA
ATOM      6  N   UNL     1       7.340   5.372  19.960  0.00  0.00    +0.000 NA
ATOM      7  C   UNL     1       8.014   5.453  18.835  0.00  0.00    +0.000 A 
ATOM      8  N   UNL     1       7.185   5.227  17.772  0.00  0.00    +0.000 N 
ATOM      9  N   UNL     1       7.536   5.197  16.454  0.00  0.00    +0.000 NA
ENDROOT
BRANCH   1  11
ATOM     10  C   UNL     1       5.943   3.734  13.557  0.00  0.00    +0.000 C 
ATOM     11  C   UNL     1       6.779   4.836  14.181  0.00  0.00    +0.000 C 
ENDBRANCH   1  11
BRANCH   3  12
ATOM     12  N   UNL     1       3.578   4.483  17.953  0.00  0.00    +0.000 N 
ATOM     13  H   UNL     1       3.183   3.656  17.490  0.00  0.00    +0.000 HD
BRANCH  12  14
ATOM     14  C   UNL     1       2.579   5.560  17.988  0.00  0.00    +0.000 C 
BRANCH  14  15
ATOM     15  C   UNL     1       3.222   6.940  18.165  0.00  0.00    +0.000 C 
BRANCH  15  16
ATOM     16  C   UNL     1       2.239   7.999  18.577  0.00  0.00    +0.000 A 
ATOM     17  C   UNL     1       1.653   8.976  17.795  0.00  0.00    +0.000 A 
ATOM     18  C   UNL     1       0.768   9.806  18.542  0.00  0.00    +0.000 A 
ATOM     19  C   UNL     1       0.708   9.436  19.867  0.00  0.00    +0.000 A 
ATOM     20  S   UNL     1       1.723   8.105  20.207  0.00  0.00    +0.000 S 
ENDBRANCH  15  16
ENDBRANCH  14  15
ENDBRANCH  12  14
ENDBRANCH   3  12
TORSDOF 5
ENDMDL
MODEL 7
REMARK VINA RESULT:      -6.7      1.358      1.468
REMARK  Name = 
REMARK  6 active torsions:
REMARK  status: ('A' for Active; 'I' for Inactive)
REMARK    1  A    between atoms: C_1  and  C_2
REMARK    2  A    between atoms: C_2  and  C_3
REMARK    3  A    between atoms: C_5  and  N_6
REMARK    4  A    between atoms: N_6  and  C_7
REMARK    5  A    between atoms: C_7  and  C_8
REMARK    6  A    between atoms: C_8  and  C_9
REMARK                            x       y       z     vdW  Elec       q    Type
REMARK                         _______ _______ _______ _____ _____    ______ ____
ROOT
ATOM      1  C   UNL     1       6.671   4.824  15.222  0.00  0.00    +0.000 A 
ATOM      2  C   UNL     1       5.469   5.649  15.533  0.00  0.00    +0.000 A 
ATOM      3  C   UNL     1       5.244   6.033  16.801  0.00  0.00    +0.000 A 
ATOM      4  C   UNL     1       6.209   5.641  17.773  0.00  0.00    +0.000 A 
ATOM      5  N   UNL     1       6.284   5.824  19.076  0.00  0.00    +0.000 NA
ATOM      6  N   UNL     1       7.428   5.194  19.524  0.00  0.00    +0.000 NA
ATOM      7  C   UNL     1       8.014   4.649  18.482  0.00  0.00    +0.000 A 
ATOM      8  N   UNL     1       7.287   4.894  17.351  0.00  0.00    +0.000 N 
ATOM      9  N   UNL     1       7.567   4.457  16.089  0.00  0.00    +0.000 NA
ENDROOT
BRANCH   1  11
ATOM     10  C   UNL     1       5.621   3.632  13.293  0.00  0.00    +0.000 C 
ATOM     11  C   UNL     1       6.841   4.391  13.778  0.00  0.00    +0.000 C 
ENDBRANCH   1  11
BRANCH   3  12
ATOM     12  N   UNL     1       4.131   6.792  17.169  0.00  0.00    +0.000 N 
ATOM     13  H   UNL     1       4.437   7.749  17.381  0.00  0.00    +0.000 HD
BRANCH  12  14
ATOM     14  C   UNL     1       3.211   6.318  18.212  0.00  0.00    +0.000 C 
BRANCH  14  15
ATOM     15  C   UNL     1       2.547   4.988  17.838  0.00  0.00    +0.000 C 
BRANCH  15  16
ATOM     16  C   UNL     1       2.125   4.184  19.035  0.00  0.00    +0.000 A 
ATOM     17  C   UNL     1       1.670   4.641  20.257  0.00  0.00    +0.000 A 
ATOM     18  C   UNL     1       1.365   3.574  21.152  0.00  0.00    +0.000 A 
ATOM     19  C   UNL     1       1.596   2.342  20.584  0.00  0.00    +0.000 A 
ATOM     20  S   UNL     1       2.190   2.473  18.987  0.00  0.00    +0.000 S 
ENDBRANCH  15  16
ENDBRANCH  14  15
ENDBRANCH  12  14
ENDBRANCH   3  12
TORSDOF 5
ENDMDL
MODEL 8
REMARK VINA RESULT:      -6.7      1.657      3.359
REMARK  Name = 
REMARK  6 active torsions:
REMARK  status: ('A' for Active; 'I' for Inactive)
REMARK    1  A    between atoms: C_1  and  C_2
REMARK    2  A    between atoms: C_2  and  C_3
REMARK    3  A    between atoms: C_5  and  N_6
REMARK    4  A    between atoms: N_6  and  C_7
REMARK    5  A    between atoms: C_7  and  C_8
REMARK    6  A    between atoms: C_8  and  C_9
REMARK                            x       y       z     vdW  Elec       q    Type
REMARK                         _______ _______ _______ _____ _____    ______ ____
ROOT
ATOM      1  C   UNL     1       7.010   5.945  17.043  0.00  0.00    +0.000 A 
ATOM      2  C   UNL     1       5.743   5.263  17.430  0.00  0.00    +0.000 A 
ATOM      3  C   UNL     1       5.098   4.509  16.526  0.00  0.00    +0.000 A 
ATOM      4  C   UNL     1       5.702   4.388  15.241  0.00  0.00    +0.000 A 
ATOM      5  N   UNL     1       5.336   3.760  14.141  0.00  0.00    +0.000 NA
ATOM      6  N   UNL     1       6.290   4.011  13.175  0.00  0.00    +0.000 NA
ATOM      7  C   UNL     1       7.207   4.781  13.716  0.00  0.00    +0.000 A 
ATOM      8  N   UNL     1       6.886   5.056  15.016  0.00  0.00    +0.000 N 
ATOM      9  N   UNL     1       7.583   5.848  15.880  0.00  0.00    +0.000 NA
ENDROOT
BRANCH   1  11
ATOM     10  C   UNL     1       7.978   6.007  19.346  0.00  0.00    +0.000 C 
ATOM     11  C   UNL     1       7.664   6.814  18.101  0.00  0.00    +0.000 C 
ENDBRANCH   1  11
BRANCH   3  12
ATOM     12  N   UNL     1       3.898   3.854  16.812  0.00  0.00    +0.000 N 
ATOM     13  H   UNL     1       3.319   4.466  17.400  0.00  0.00    +0.000 HD
BRANCH  12  14
ATOM     14  C   UNL     1       3.898   2.490  17.357  0.00  0.00    +0.000 C 
BRANCH  14  15
ATOM     15  C   UNL     1       2.538   2.102  17.947  0.00  0.00    +0.000 C 
BRANCH  15  16
ATOM     16  C   UNL     1       2.178   2.897  19.170  0.00  0.00    +0.000 A 
ATOM     17  C   UNL     1       1.185   3.848  19.312  0.00  0.00    +0.000 A 
ATOM     18  C   UNL     1       1.144   4.393  20.628  0.00  0.00    +0.000 A 
ATOM     19  C   UNL     1       2.105   3.841  21.445  0.00  0.00    +0.000 A 
ATOM     20  S   UNL     1       3.057   2.684  20.624  0.00  0.00    +0.000 S 
ENDBRANCH  15  16
ENDBRANCH  14  15
ENDBRANCH  12  14
ENDBRANCH   3  12
TORSDOF 5
ENDMDL
MODEL 9
REMARK VINA RESULT:      -6.7      1.675      2.037
REMARK  Name = 
REMARK  6 active torsions:
REMARK  status: ('A' for Active; 'I' for Inactive)
REMARK    1  A    between atoms: C_1  and  C_2
REMARK    2  A    between atoms: C_2  and  C_3
REMARK    3  A    between atoms: C_5  and  N_6
REMARK    4  A    between atoms: N_6  and  C_7
REMARK    5  A    between atoms: C_7  and  C_8
REMARK    6  A    between atoms: C_8  and  C_9
REMARK                            x       y       z     vdW  Elec       q    Type
REMARK                         _______ _______ _______ _____ _____    ______ ____
ROOT
ATOM      1  C   UNL     1       6.681   5.166  15.491  0.00  0.00    +0.000 A 
ATOM      2  C   UNL     1       5.474   5.965  15.842  0.00  0.00    +0.000 A 
ATOM      3  C   UNL     1       5.229   6.258  17.130  0.00  0.00    +0.000 A 
ATOM      4  C   UNL     1       6.180   5.797  18.086  0.00  0.00    +0.000 A 
ATOM      5  N   UNL     1       6.236   5.886  19.400  0.00  0.00    +0.000 NA
ATOM      6  N   UNL     1       7.374   5.226  19.819  0.00  0.00    +0.000 NA
ATOM      7  C   UNL     1       7.975   4.757  18.749  0.00  0.00    +0.000 A 
ATOM      8  N   UNL     1       7.266   5.082  17.628  0.00  0.00    +0.000 N 
ATOM      9  N   UNL     1       7.565   4.737  16.342  0.00  0.00    +0.000 NA
ENDROOT
BRANCH   1  11
ATOM     10  C   UNL     1       5.932   3.730  13.587  0.00  0.00    +0.000 C 
ATOM     11  C   UNL     1       6.874   4.837  14.022  0.00  0.00    +0.000 C 
ENDBRANCH   1  11
BRANCH   3  12
ATOM     12  N   UNL     1       4.109   6.987  17.535  0.00  0.00    +0.000 N 
ATOM     13  H   UNL     1       4.410   7.931  17.809  0.00  0.00    +0.000 HD
BRANCH  12  14
ATOM     14  C   UNL     1       3.183   6.446  18.538  0.00  0.00    +0.000 C 
BRANCH  14  15
ATOM     15  C   UNL     1       2.049   5.634  17.902  0.00  0.00    +0.000 C 
BRANCH  15  16
ATOM     16  C   UNL     1       2.182   4.156  18.133  0.00  0.00    +0.000 A 
ATOM     17  C   UNL     1       2.954   3.245  17.438  0.00  0.00    +0.000 A 
ATOM     18  C   UNL     1       2.820   1.922  17.949  0.00  0.00    +0.000 A 
ATOM     19  C   UNL     1       1.952   1.867  19.016  0.00  0.00    +0.000 A 
ATOM     20  S   UNL     1       1.295   3.400  19.389  0.00  0.00    +0.000 S 
ENDBRANCH  15  16
ENDBRANCH  14  15
ENDBRANCH  12  14
ENDBRANCH   3  12
TORSDOF 5
ENDMDL
