MODEL 1
REMARK VINA RESULT:      -8.3      0.000      0.000
REMARK  Name = 
REMARK  8 active torsions:
REMARK  status: ('A' for Active; 'I' for Inactive)
REMARK    1  A    between atoms: C_4  and  C_5
REMARK    2  A    between atoms: C_5  and  C_6
REMARK    3  A    between atoms: C_6  and  C_7
REMARK    4  A    between atoms: C_6  and  C_8
REMARK    5  A    between atoms: C_13  and  C_14
REMARK    6  A    between atoms: C_17  and  O_18
REMARK    7  A    between atoms: C_21  and  O_22
REMARK    8  A    between atoms: C_27  and  C_28
REMARK                            x       y       z     vdW  Elec       q    Type
REMARK                         _______ _______ _______ _____ _____    ______ ____
ROOT
ATOM      1  C   UNL     1       4.207   5.672  17.984  0.00  0.00    +0.000 C 
ATOM      2  C   UNL     1       4.564   6.620  16.816  0.00  0.00    +0.000 C 
ATOM      3  C   UNL     1       3.614   7.823  16.936  0.00  0.00    +0.000 C 
ATOM      4  C   UNL     1       3.108   7.747  18.379  0.00  0.00    +0.000 C 
ATOM      5  C   UNL     1       1.901   8.522  18.855  0.00  0.00    +0.000 C 
ATOM      6  C   UNL     1       1.194   9.307  18.025  0.00  0.00    +0.000 C 
ATOM      7  C   UNL     1       1.557   8.239  20.311  0.00  0.00    +0.000 C 
ATOM      8  C   UNL     1       1.539   6.740  20.662  0.00  0.00    +0.000 C 
ATOM      9  C   UNL     1       2.735   5.972  20.088  0.00  0.00    +0.000 C 
ATOM     10  C   UNL     1       2.881   6.228  18.573  0.00  0.00    +0.000 C 
ATOM     11  C   UNL     1       1.620   5.736  17.824  0.00  0.00    +0.000 C 
ENDROOT
BRANCH   6  12
ATOM     12  C   UNL     1       0.032  10.072  18.385  0.00  0.00    +0.000 C 
ATOM     13  C   UNL     1       0.059  11.250  19.033  0.00  0.00    +0.000 C 
ATOM     14  C   UNL     1      -1.235  11.922  19.451  0.00  0.00    +0.000 C 
ATOM     15  C   UNL     1      -1.208  12.315  20.940  0.00  0.00    +0.000 C 
ATOM     16  C   UNL     1       0.030  13.133  21.263  0.00  0.00    +0.000 C 
ATOM     17  C   UNL     1      -0.069  14.364  21.792  0.00  0.00    +0.000 C 
ATOM     18  C   UNL     1       1.334  12.459  20.872  0.00  0.00    +0.000 C 
ATOM     19  C   UNL     1       1.309  12.030  19.397  0.00  0.00    +0.000 C 
BRANCH  15  20
ATOM     20  O   UNL     1      -1.240  11.159  21.774  0.00  0.00    +0.000 OA
ATOM     21  H   UNL     1      -0.340  10.785  21.812  0.00  0.00    +0.000 HD
ENDBRANCH  15  20
BRANCH  18  22
ATOM     22  O   UNL     1       2.452  13.318  21.088  0.00  0.00    +0.000 OA
ATOM     23  H   UNL     1       2.452  13.980  20.375  0.00  0.00    +0.000 HD
ENDBRANCH  18  22
ENDBRANCH   6  12
BRANCH   1  24
ATOM     24  C   UNL     1       4.329   4.145  17.729  0.00  0.00    +0.000 C 
ATOM     25  C   UNL     1       5.171   3.688  16.531  0.00  0.00    +0.000 C 
BRANCH  24  26
ATOM     26  C   UNL     1       4.857   3.392  18.980  0.00  0.00    +0.000 C 
BRANCH  26  30
ATOM     27  C   UNL     1       1.145   3.055  21.254  0.00  0.00    +0.000 C 
ATOM     28  C   UNL     1       2.049   2.516  20.433  0.00  0.00    +0.000 C 
ATOM     29  C   UNL     1       3.451   2.161  20.735  0.00  0.00    +0.000 C 
ATOM     30  C   UNL     1       4.072   2.126  19.350  0.00  0.00    +0.000 C 
ATOM     31  O   UNL     1       2.986   1.950  18.418  0.00  0.00    +0.000 OA
ATOM     32  C   UNL     1       1.794   2.237  19.006  0.00  0.00    +0.000 C 
ATOM     33  O   UNL     1       0.712   2.249  18.443  0.00  0.00    +0.000 OA
ENDBRANCH  26  30
ENDBRANCH  24  26
ENDBRANCH   1  24
TORSDOF 6
ENDMDL
MODEL 2
REMARK VINA RESULT:      -8.0      1.926      2.805
REMARK  Name = 
REMARK  8 active torsions:
REMARK  status: ('A' for Active; 'I' for Inactive)
REMARK    1  A    between atoms: C_4  and  C_5
REMARK    2  A    between atoms: C_5  and  C_6
REMARK    3  A    between atoms: C_6  and  C_7
REMARK    4  A    between atoms: C_6  and  C_8
REMARK    5  A    between atoms: C_13  and  C_14
REMARK    6  A    between atoms: C_17  and  O_18
REMARK    7  A    between atoms: C_21  and  O_22
REMARK    8  A    between atoms: C_27  and  C_28
REMARK                            x       y       z     vdW  Elec       q    Type
REMARK                         _______ _______ _______ _____ _____    ______ ____
ROOT
ATOM      1  C   UNL     1       4.052   5.568  17.685  0.00  0.00    +0.000 C 
ATOM      2  C   UNL     1       4.404   6.715  16.710  0.00  0.00    +0.000 C 
ATOM      3  C   UNL     1       3.556   7.921  17.146  0.00  0.00    +0.000 C 
ATOM      4  C   UNL     1       3.138   7.577  18.578  0.00  0.00    +0.000 C 
ATOM      5  C   UNL     1       2.024   8.307  19.294  0.00  0.00    +0.000 C 
ATOM      6  C   UNL     1       1.326   9.288  18.698  0.00  0.00    +0.000 C 
ATOM      7  C   UNL     1       1.752   7.747  20.684  0.00  0.00    +0.000 C 
ATOM      8  C   UNL     1       1.645   6.212  20.722  0.00  0.00    +0.000 C 
ATOM      9  C   UNL     1       2.742   5.511  19.913  0.00  0.00    +0.000 C 
ATOM     10  C   UNL     1       2.810   6.067  18.475  0.00  0.00    +0.000 C 
ATOM     11  C   UNL     1       1.472   5.818  17.741  0.00  0.00    +0.000 C 
ENDROOT
BRANCH   6  12
ATOM     12  C   UNL     1       0.249  10.029  19.295  0.00  0.00    +0.000 C 
ATOM     13  C   UNL     1      -0.970  10.185  18.749  0.00  0.00    +0.000 C 
ATOM     14  C   UNL     1      -2.000  11.073  19.422  0.00  0.00    +0.000 C 
ATOM     15  C   UNL     1      -2.598  12.089  18.431  0.00  0.00    +0.000 C 
ATOM     16  C   UNL     1      -3.120  11.391  17.188  0.00  0.00    +0.000 C 
ATOM     17  C   UNL     1      -4.404  11.515  16.808  0.00  0.00    +0.000 C 
ATOM     18  C   UNL     1      -2.091  10.519  16.491  0.00  0.00    +0.000 C 
ATOM     19  C   UNL     1      -1.460   9.522  17.475  0.00  0.00    +0.000 C 
BRANCH  15  20
ATOM     20  O   UNL     1      -1.629  13.064  18.051  0.00  0.00    +0.000 OA
ATOM     21  H   UNL     1      -1.635  13.777  18.717  0.00  0.00    +0.000 HD
ENDBRANCH  15  20
BRANCH  18  22
ATOM     22  O   UNL     1      -2.667   9.798  15.403  0.00  0.00    +0.000 OA
ATOM     23  H   UNL     1      -3.632   9.814  15.523  0.00  0.00    +0.000 HD
ENDBRANCH  18  22
ENDBRANCH   6  12
BRANCH   1  24
ATOM     24  C   UNL     1       4.044   4.123  17.116  0.00  0.00    +0.000 C 
ATOM     25  C   UNL     1       4.820   3.864  15.819  0.00  0.00    +0.000 C 
BRANCH  24  26
ATOM     26  C   UNL     1       4.535   3.088  18.164  0.00  0.00    +0.000 C 
BRANCH  26  30
ATOM     27  C   UNL     1       1.371   2.516  21.116  0.00  0.00    +0.000 C 
ATOM     28  C   UNL     1       1.967   2.153  19.978  0.00  0.00    +0.000 C 
ATOM     29  C   UNL     1       3.306   1.552  19.807  0.00  0.00    +0.000 C 
ATOM     30  C   UNL     1       3.613   1.876  18.356  0.00  0.00    +0.000 C 
ATOM     31  O   UNL     1       2.347   2.136  17.717  0.00  0.00    +0.000 OA
ATOM     32  C   UNL     1       1.378   2.369  18.642  0.00  0.00    +0.000 C 
ATOM     33  O   UNL     1       0.227   2.690  18.395  0.00  0.00    +0.000 OA
ENDBRANCH  26  30
ENDBRANCH  24  26
ENDBRANCH   1  24
TORSDOF 6
ENDMDL
MODEL 3
REMARK VINA RESULT:      -7.6      2.738      9.496
REMARK  Name = 
REMARK  8 active torsions:
REMARK  status: ('A' for Active; 'I' for Inactive)
REMARK    1  A    between atoms: C_4  and  C_5
REMARK    2  A    between atoms: C_5  and  C_6
REMARK    3  A    between atoms: C_6  and  C_7
REMARK    4  A    between atoms: C_6  and  C_8
REMARK    5  A    between atoms: C_13  and  C_14
REMARK    6  A    between atoms: C_17  and  O_18
REMARK    7  A    between atoms: C_21  and  O_22
REMARK    8  A    between atoms: C_27  and  C_28
REMARK                            x       y       z     vdW  Elec       q    Type
REMARK                         _______ _______ _______ _____ _____    ______ ____
ROOT
ATOM      1  C   UNL     1      -1.441  11.395  20.379  0.00  0.00    +0.000 C 
ATOM      2  C   UNL     1      -1.781  11.363  18.872  0.00  0.00    +0.000 C 
ATOM      3  C   UNL     1      -0.740  10.441  18.217  0.00  0.00    +0.000 C 
ATOM      4  C   UNL     1      -0.172   9.639  19.391  0.00  0.00    +0.000 C 
ATOM      5  C   UNL     1       1.111   8.847  19.285  0.00  0.00    +0.000 C 
ATOM      6  C   UNL     1       1.835   8.824  18.153  0.00  0.00    +0.000 C 
ATOM      7  C   UNL     1       1.503   8.183  20.598  0.00  0.00    +0.000 C 
ATOM      8  C   UNL     1       1.425   9.123  21.815  0.00  0.00    +0.000 C 
ATOM      9  C   UNL     1       0.149   9.972  21.839  0.00  0.00    +0.000 C 
ATOM     10  C   UNL     1      -0.050  10.713  20.500  0.00  0.00    +0.000 C 
ATOM     11  C   UNL     1       1.133  11.674  20.240  0.00  0.00    +0.000 C 
ENDROOT
BRANCH   6  12
ATOM     12  C   UNL     1       3.067   8.109  17.963  0.00  0.00    +0.000 C 
ATOM     13  C   UNL     1       3.164   6.776  17.811  0.00  0.00    +0.000 C 
ATOM     14  C   UNL     1       4.528   6.116  17.717  0.00  0.00    +0.000 C 
ATOM     15  C   UNL     1       4.652   4.942  18.705  0.00  0.00    +0.000 C 
ATOM     16  C   UNL     1       3.497   3.970  18.541  0.00  0.00    +0.000 C 
ATOM     17  C   UNL     1       3.713   2.674  18.258  0.00  0.00    +0.000 C 
ATOM     18  C   UNL     1       2.127   4.615  18.658  0.00  0.00    +0.000 C 
ATOM     19  C   UNL     1       2.000   5.810  17.703  0.00  0.00    +0.000 C 
BRANCH  15  20
ATOM     20  O   UNL     1       4.687   5.408  20.052  0.00  0.00    +0.000 OA
ATOM     21  H   UNL     1       5.585   5.739  20.239  0.00  0.00    +0.000 HD
ENDBRANCH  15  20
BRANCH  18  22
ATOM     22  O   UNL     1       1.085   3.682  18.378  0.00  0.00    +0.000 OA
ATOM     23  H   UNL     1       0.323   4.188  18.047  0.00  0.00    +0.000 HD
ENDBRANCH  18  22
ENDBRANCH   6  12
BRANCH   1  24
ATOM     24  C   UNL     1      -1.690  12.725  21.141  0.00  0.00    +0.000 C 
ATOM     25  C   UNL     1      -1.617  14.030  20.339  0.00  0.00    +0.000 C 
BRANCH  24  26
ATOM     26  C   UNL     1      -3.051  12.716  21.888  0.00  0.00    +0.000 C 
BRANCH  26  30
ATOM     27  C   UNL     1      -6.996  11.291  20.679  0.00  0.00    +0.000 C 
ATOM     28  C   UNL     1      -6.158  12.301  20.923  0.00  0.00    +0.000 C 
ATOM     29  C   UNL     1      -4.948  12.679  20.164  0.00  0.00    +0.000 C 
ATOM     30  C   UNL     1      -4.176  13.491  21.189  0.00  0.00    +0.000 C 
ATOM     31  O   UNL     1      -5.135  13.928  22.172  0.00  0.00    +0.000 OA
ATOM     32  C   UNL     1      -6.281  13.203  22.084  0.00  0.00    +0.000 C 
ATOM     33  O   UNL     1      -7.238  13.298  22.835  0.00  0.00    +0.000 OA
ENDBRANCH  26  30
ENDBRANCH  24  26
ENDBRANCH   1  24
TORSDOF 6
ENDMDL
MODEL 4
REMARK VINA RESULT:      -7.6      2.132      4.133
REMARK  Name = 
REMARK  8 active torsions:
REMARK  status: ('A' for Active; 'I' for Inactive)
REMARK    1  A    between atoms: C_4  and  C_5
REMARK    2  A    between atoms: C_5  and  C_6
REMARK    3  A    between atoms: C_6  and  C_7
REMARK    4  A    between atoms: C_6  and  C_8
REMARK    5  A    between atoms: C_13  and  C_14
REMARK    6  A    between atoms: C_17  and  O_18
REMARK    7  A    between atoms: C_21  and  O_22
REMARK    8  A    between atoms: C_27  and  C_28
REMARK                            x       y       z     vdW  Elec       q    Type
REMARK                         _______ _______ _______ _____ _____    ______ ____
ROOT
ATOM      1  C   UNL     1       2.985   4.208  18.209  0.00  0.00    +0.000 C 
ATOM      2  C   UNL     1       2.063   3.598  19.290  0.00  0.00    +0.000 C 
ATOM      3  C   UNL     1       1.512   4.784  20.099  0.00  0.00    +0.000 C 
ATOM      4  C   UNL     1       1.747   5.991  19.186  0.00  0.00    +0.000 C 
ATOM      5  C   UNL     1       1.672   7.414  19.691  0.00  0.00    +0.000 C 
ATOM      6  C   UNL     1       1.415   7.693  20.979  0.00  0.00    +0.000 C 
ATOM      7  C   UNL     1       2.001   8.438  18.613  0.00  0.00    +0.000 C 
ATOM      8  C   UNL     1       3.272   8.105  17.810  0.00  0.00    +0.000 C 
ATOM      9  C   UNL     1       3.352   6.632  17.392  0.00  0.00    +0.000 C 
ATOM     10  C   UNL     1       3.153   5.700  18.606  0.00  0.00    +0.000 C 
ATOM     11  C   UNL     1       4.266   5.938  19.651  0.00  0.00    +0.000 C 
ENDROOT
BRANCH   6  12
ATOM     12  C   UNL     1       1.333   9.010  21.549  0.00  0.00    +0.000 C 
ATOM     13  C   UNL     1       0.403   9.927  21.230  0.00  0.00    +0.000 C 
ATOM     14  C   UNL     1       0.473  11.323  21.822  0.00  0.00    +0.000 C 
ATOM     15  C   UNL     1       0.378  12.402  20.728  0.00  0.00    +0.000 C 
ATOM     16  C   UNL     1      -0.840  12.177  19.849  0.00  0.00    +0.000 C 
ATOM     17  C   UNL     1      -1.780  13.127  19.707  0.00  0.00    +0.000 C 
ATOM     18  C   UNL     1      -0.907  10.792  19.230  0.00  0.00    +0.000 C 
ATOM     19  C   UNL     1      -0.779   9.704  20.306  0.00  0.00    +0.000 C 
BRANCH  15  20
ATOM     20  O   UNL     1       1.550  12.411  19.915  0.00  0.00    +0.000 OA
ATOM     21  H   UNL     1       1.509  13.188  19.328  0.00  0.00    +0.000 HD
ENDBRANCH  15  20
BRANCH  18  22
ATOM     22  O   UNL     1      -2.126  10.598  18.514  0.00  0.00    +0.000 OA
ATOM     23  H   UNL     1      -2.724  10.092  19.091  0.00  0.00    +0.000 HD
ENDBRANCH  18  22
ENDBRANCH   6  12
BRANCH   1  24
ATOM     24  C   UNL     1       4.246   3.395  17.804  0.00  0.00    +0.000 C 
ATOM     25  C   UNL     1       4.090   1.881  17.624  0.00  0.00    +0.000 C 
BRANCH  24  26
ATOM     26  C   UNL     1       4.899   3.952  16.509  0.00  0.00    +0.000 C 
BRANCH  26  30
ATOM     27  C   UNL     1       7.291   7.490  17.412  0.00  0.00    +0.000 C 
ATOM     28  C   UNL     1       7.197   6.166  17.268  0.00  0.00    +0.000 C 
ATOM     29  C   UNL     1       6.955   5.404  16.026  0.00  0.00    +0.000 C 
ATOM     30  C   UNL     1       6.427   4.086  16.563  0.00  0.00    +0.000 C 
ATOM     31  O   UNL     1       6.864   3.998  17.934  0.00  0.00    +0.000 OA
ATOM     32  C   UNL     1       7.257   5.215  18.395  0.00  0.00    +0.000 C 
ATOM     33  O   UNL     1       7.605   5.461  19.538  0.00  0.00    +0.000 OA
ENDBRANCH  26  30
ENDBRANCH  24  26
ENDBRANCH   1  24
TORSDOF 6
ENDMDL
MODEL 5
REMARK VINA RESULT:      -7.6      2.713      9.610
REMARK  Name = 
REMARK  8 active torsions:
REMARK  status: ('A' for Active; 'I' for Inactive)
REMARK    1  A    between atoms: C_4  and  C_5
REMARK    2  A    between atoms: C_5  and  C_6
REMARK    3  A    between atoms: C_6  and  C_7
REMARK    4  A    between atoms: C_6  and  C_8
REMARK    5  A    between atoms: C_13  and  C_14
REMARK    6  A    between atoms: C_17  and  O_18
REMARK    7  A    between atoms: C_21  and  O_22
REMARK    8  A    between atoms: C_27  and  C_28
REMARK                            x       y       z     vdW  Elec       q    Type
REMARK                         _______ _______ _______ _____ _____    ______ ____
ROOT
ATOM      1  C   UNL     1      -1.399  11.459  20.458  0.00  0.00    +0.000 C 
ATOM      2  C   UNL     1      -1.782  11.401  18.961  0.00  0.00    +0.000 C 
ATOM      3  C   UNL     1      -0.760  10.465  18.295  0.00  0.00    +0.000 C 
ATOM      4  C   UNL     1      -0.162   9.682  19.467  0.00  0.00    +0.000 C 
ATOM      5  C   UNL     1       1.116   8.886  19.340  0.00  0.00    +0.000 C 
ATOM      6  C   UNL     1       1.808   8.840  18.189  0.00  0.00    +0.000 C 
ATOM      7  C   UNL     1       1.543   8.244  20.654  0.00  0.00    +0.000 C 
ATOM      8  C   UNL     1       1.500   9.207  21.854  0.00  0.00    +0.000 C 
ATOM      9  C   UNL     1       0.227  10.059  21.899  0.00  0.00    +0.000 C 
ATOM     10  C   UNL     1      -0.007  10.776  20.553  0.00  0.00    +0.000 C 
ATOM     11  C   UNL     1       1.170  11.730  20.243  0.00  0.00    +0.000 C 
ENDROOT
BRANCH   6  12
ATOM     12  C   UNL     1       3.034   8.119  17.978  0.00  0.00    +0.000 C 
ATOM     13  C   UNL     1       3.122   6.786  17.826  0.00  0.00    +0.000 C 
ATOM     14  C   UNL     1       4.480   6.120  17.709  0.00  0.00    +0.000 C 
ATOM     15  C   UNL     1       4.616   4.945  18.695  0.00  0.00    +0.000 C 
ATOM     16  C   UNL     1       3.453   3.979  18.552  0.00  0.00    +0.000 C 
ATOM     17  C   UNL     1       3.659   2.682  18.266  0.00  0.00    +0.000 C 
ATOM     18  C   UNL     1       2.089   4.631  18.692  0.00  0.00    +0.000 C 
ATOM     19  C   UNL     1       1.951   5.826  17.738  0.00  0.00    +0.000 C 
BRANCH  15  20
ATOM     20  O   UNL     1       4.676   5.412  20.041  0.00  0.00    +0.000 OA
ATOM     21  H   UNL     1       4.833   6.375  20.024  0.00  0.00    +0.000 HD
ENDBRANCH  15  20
BRANCH  18  22
ATOM     22  O   UNL     1       1.037   3.702  18.431  0.00  0.00    +0.000 OA
ATOM     23  H   UNL     1       0.970   3.115  19.204  0.00  0.00    +0.000 HD
ENDBRANCH  18  22
ENDBRANCH   6  12
BRANCH   1  24
ATOM     24  C   UNL     1      -1.625  12.803  21.202  0.00  0.00    +0.000 C 
ATOM     25  C   UNL     1      -1.213  14.094  20.483  0.00  0.00    +0.000 C 
BRANCH  24  26
ATOM     26  C   UNL     1      -3.102  12.974  21.650  0.00  0.00    +0.000 C 
BRANCH  26  30
ATOM     27  C   UNL     1      -6.258  15.117  23.772  0.00  0.00    +0.000 C 
ATOM     28  C   UNL     1      -5.257  14.233  23.778  0.00  0.00    +0.000 C 
ATOM     29  C   UNL     1      -3.816  14.493  23.587  0.00  0.00    +0.000 C 
ATOM     30  C   UNL     1      -3.303  13.128  23.164  0.00  0.00    +0.000 C 
ATOM     31  O   UNL     1      -4.278  12.166  23.614  0.00  0.00    +0.000 OA
ATOM     32  C   UNL     1      -5.454  12.777  23.917  0.00  0.00    +0.000 C 
ATOM     33  O   UNL     1      -6.481  12.209  24.251  0.00  0.00    +0.000 OA
ENDBRANCH  26  30
ENDBRANCH  24  26
ENDBRANCH   1  24
TORSDOF 6
ENDMDL
MODEL 6
REMARK VINA RESULT:      -7.6      3.114      5.092
REMARK  Name = 
REMARK  8 active torsions:
REMARK  status: ('A' for Active; 'I' for Inactive)
REMARK    1  A    between atoms: C_4  and  C_5
REMARK    2  A    between atoms: C_5  and  C_6
REMARK    3  A    between atoms: C_6  and  C_7
REMARK    4  A    between atoms: C_6  and  C_8
REMARK    5  A    between atoms: C_13  and  C_14
REMARK    6  A    between atoms: C_17  and  O_18
REMARK    7  A    between atoms: C_21  and  O_22
REMARK    8  A    between atoms: C_27  and  C_28
REMARK                            x       y       z     vdW  Elec       q    Type
REMARK                         _______ _______ _______ _____ _____    ______ ____
ROOT
ATOM      1  C   UNL     1       5.522   4.525  17.042  0.00  0.00    +0.000 C 
ATOM      2  C   UNL     1       6.411   4.926  18.241  0.00  0.00    +0.000 C 
ATOM      3  C   UNL     1       5.450   5.338  19.368  0.00  0.00    +0.000 C 
ATOM      4  C   UNL     1       4.111   4.723  18.950  0.00  0.00    +0.000 C 
ATOM      5  C   UNL     1       2.799   5.141  19.574  0.00  0.00    +0.000 C 
ATOM      6  C   UNL     1       2.738   6.094  20.519  0.00  0.00    +0.000 C 
ATOM      7  C   UNL     1       1.602   4.433  18.954  0.00  0.00    +0.000 C 
ATOM      8  C   UNL     1       1.612   4.433  17.414  0.00  0.00    +0.000 C 
ATOM      9  C   UNL     1       2.983   4.090  16.821  0.00  0.00    +0.000 C 
ATOM     10  C   UNL     1       4.087   4.984  17.424  0.00  0.00    +0.000 C 
ATOM     11  C   UNL     1       3.809   6.470  17.100  0.00  0.00    +0.000 C 
ENDROOT
BRANCH   6  12
ATOM     12  C   UNL     1       1.540   6.560  21.160  0.00  0.00    +0.000 C 
ATOM     13  C   UNL     1       0.893   7.697  20.845  0.00  0.00    +0.000 C 
ATOM     14  C   UNL     1      -0.309   8.141  21.658  0.00  0.00    +0.000 C 
ATOM     15  C   UNL     1      -0.167   9.605  22.114  0.00  0.00    +0.000 C 
ATOM     16  C   UNL     1       0.138  10.514  20.937  0.00  0.00    +0.000 C 
ATOM     17  C   UNL     1      -0.660  11.553  20.635  0.00  0.00    +0.000 C 
ATOM     18  C   UNL     1       1.355  10.093  20.131  0.00  0.00    +0.000 C 
ATOM     19  C   UNL     1       1.243   8.624  19.697  0.00  0.00    +0.000 C 
BRANCH  15  20
ATOM     20  O   UNL     1       0.864   9.738  23.091  0.00  0.00    +0.000 OA
ATOM     21  H   UNL     1       0.506   9.459  23.954  0.00  0.00    +0.000 HD
ENDBRANCH  15  20
BRANCH  18  22
ATOM     22  O   UNL     1       1.523  10.909  18.973  0.00  0.00    +0.000 OA
ATOM     23  H   UNL     1       2.345  11.415  19.091  0.00  0.00    +0.000 HD
ENDBRANCH  18  22
ENDBRANCH   6  12
BRANCH   1  24
ATOM     24  C   UNL     1       6.054   4.844  15.618  0.00  0.00    +0.000 C 
ATOM     25  C   UNL     1       7.552   5.139  15.467  0.00  0.00    +0.000 C 
BRANCH  24  26
ATOM     26  C   UNL     1       5.698   3.723  14.605  0.00  0.00    +0.000 C 
BRANCH  26  30
ATOM     27  C   UNL     1       5.950   1.064  11.152  0.00  0.00    +0.000 C 
ATOM     28  C   UNL     1       5.804   2.292  11.656  0.00  0.00    +0.000 C 
ATOM     29  C   UNL     1       6.807   3.100  12.379  0.00  0.00    +0.000 C 
ATOM     30  C   UNL     1       5.931   4.086  13.132  0.00  0.00    +0.000 C 
ATOM     31  O   UNL     1       4.665   4.118  12.444  0.00  0.00    +0.000 OA
ATOM     32  C   UNL     1       4.534   3.043  11.623  0.00  0.00    +0.000 C 
ATOM     33  O   UNL     1       3.540   2.766  10.972  0.00  0.00    +0.000 OA
ENDBRANCH  26  30
ENDBRANCH  24  26
ENDBRANCH   1  24
TORSDOF 6
ENDMDL
MODEL 7
REMARK VINA RESULT:      -7.4      2.317      9.550
REMARK  Name = 
REMARK  8 active torsions:
REMARK  status: ('A' for Active; 'I' for Inactive)
REMARK    1  A    between atoms: C_4  and  C_5
REMARK    2  A    between atoms: C_5  and  C_6
REMARK    3  A    between atoms: C_6  and  C_7
REMARK    4  A    between atoms: C_6  and  C_8
REMARK    5  A    between atoms: C_13  and  C_14
REMARK    6  A    between atoms: C_17  and  O_18
REMARK    7  A    between atoms: C_21  and  O_22
REMARK    8  A    between atoms: C_27  and  C_28
REMARK                            x       y       z     vdW  Elec       q    Type
REMARK                         _______ _______ _______ _____ _____    ______ ____
ROOT
ATOM      1  C   UNL     1      -1.490  11.448  19.992  0.00  0.00    +0.000 C 
ATOM      2  C   UNL     1      -1.768  11.308  18.478  0.00  0.00    +0.000 C 
ATOM      3  C   UNL     1      -0.703  10.342  17.935  0.00  0.00    +0.000 C 
ATOM      4  C   UNL     1      -0.186   9.627  19.186  0.00  0.00    +0.000 C 
ATOM      5  C   UNL     1       1.099   8.830  19.190  0.00  0.00    +0.000 C 
ATOM      6  C   UNL     1       1.868   8.726  18.093  0.00  0.00    +0.000 C 
ATOM      7  C   UNL     1       1.435   8.262  20.562  0.00  0.00    +0.000 C 
ATOM      8  C   UNL     1       1.309   9.288  21.703  0.00  0.00    +0.000 C 
ATOM      9  C   UNL     1       0.035  10.135  21.615  0.00  0.00    +0.000 C 
ATOM     10  C   UNL     1      -0.107  10.778  20.219  0.00  0.00    +0.000 C 
ATOM     11  C   UNL     1       1.088  11.719  19.939  0.00  0.00    +0.000 C 
ENDROOT
BRANCH   6  12
ATOM     12  C   UNL     1       3.105   8.000  18.005  0.00  0.00    +0.000 C 
ATOM     13  C   UNL     1       3.204   6.673  17.811  0.00  0.00    +0.000 C 
ATOM     14  C   UNL     1       4.562   5.996  17.835  0.00  0.00    +0.000 C 
ATOM     15  C   UNL     1       4.567   4.782  18.782  0.00  0.00    +0.000 C 
ATOM     16  C   UNL     1       3.425   3.836  18.457  0.00  0.00    +0.000 C 
ATOM     17  C   UNL     1       3.656   2.549  18.145  0.00  0.00    +0.000 C 
ATOM     18  C   UNL     1       2.058   4.497  18.454  0.00  0.00    +0.000 C 
ATOM     19  C   UNL     1       2.046   5.730  17.540  0.00  0.00    +0.000 C 
BRANCH  15  20
ATOM     20  O   UNL     1       4.463   5.195  20.143  0.00  0.00    +0.000 OA
ATOM     21  H   UNL     1       4.210   6.136  20.159  0.00  0.00    +0.000 HD
ENDBRANCH  15  20
BRANCH  18  22
ATOM     22  O   UNL     1       1.041   3.591  18.028  0.00  0.00    +0.000 OA
ATOM     23  H   UNL     1       0.985   2.883  18.692  0.00  0.00    +0.000 HD
ENDBRANCH  18  22
ENDBRANCH   6  12
BRANCH   1  24
ATOM     24  C   UNL     1      -1.767  12.830  20.645  0.00  0.00    +0.000 C 
ATOM     25  C   UNL     1      -1.331  14.082  19.876  0.00  0.00    +0.000 C 
BRANCH  24  26
ATOM     26  C   UNL     1      -3.266  13.006  21.007  0.00  0.00    +0.000 C 
BRANCH  26  30
ATOM     27  C   UNL     1      -1.677  14.841  24.635  0.00  0.00    +0.000 C 
ATOM     28  C   UNL     1      -2.604  14.095  24.029  0.00  0.00    +0.000 C 
ATOM     29  C   UNL     1      -2.436  12.760  23.419  0.00  0.00    +0.000 C 
ATOM     30  C   UNL     1      -3.619  12.698  22.469  0.00  0.00    +0.000 C 
ATOM     31  O   UNL     1      -4.576  13.667  22.942  0.00  0.00    +0.000 OA
ATOM     32  C   UNL     1      -3.993  14.540  23.805  0.00  0.00    +0.000 C 
ATOM     33  O   UNL     1      -4.537  15.510  24.307  0.00  0.00    +0.000 OA
ENDBRANCH  26  30
ENDBRANCH  24  26
ENDBRANCH   1  24
TORSDOF 6
ENDMDL
MODEL 8
REMARK VINA RESULT:      -7.4      2.861      9.737
REMARK  Name = 
REMARK  8 active torsions:
REMARK  status: ('A' for Active; 'I' for Inactive)
REMARK    1  A    between atoms: C_4  and  C_5
REMARK    2  A    between atoms: C_5  and  C_6
REMARK    3  A    between atoms: C_6  and  C_7
REMARK    4  A    between atoms: C_6  and  C_8
REMARK    5  A    between atoms: C_13  and  C_14
REMARK    6  A    between atoms: C_17  and  O_18
REMARK    7  A    between atoms: C_21  and  O_22
REMARK    8  A    between atoms: C_27  and  C_28
REMARK                            x       y       z     vdW  Elec       q    Type
REMARK                         _______ _______ _______ _____ _____    ______ ____
ROOT
ATOM      1  C   UNL     1      -1.441  11.470  20.581  0.00  0.00    +0.000 C 
ATOM      2  C   UNL     1      -1.826  11.449  19.083  0.00  0.00    +0.000 C 
ATOM      3  C   UNL     1      -0.804  10.530  18.393  0.00  0.00    +0.000 C 
ATOM      4  C   UNL     1      -0.204   9.720  19.545  0.00  0.00    +0.000 C 
ATOM      5  C   UNL     1       1.075   8.928  19.397  0.00  0.00    +0.000 C 
ATOM      6  C   UNL     1       1.766   8.911  18.244  0.00  0.00    +0.000 C 
ATOM      7  C   UNL     1       1.504   8.255  20.694  0.00  0.00    +0.000 C 
ATOM      8  C   UNL     1       1.462   9.188  21.918  0.00  0.00    +0.000 C 
ATOM      9  C   UNL     1       0.188  10.037  21.985  0.00  0.00    +0.000 C 
ATOM     10  C   UNL     1      -0.048  10.787  20.657  0.00  0.00    +0.000 C 
ATOM     11  C   UNL     1       1.127  11.749  20.368  0.00  0.00    +0.000 C 
ENDROOT
BRANCH   6  12
ATOM     12  C   UNL     1       2.991   8.196  18.014  0.00  0.00    +0.000 C 
ATOM     13  C   UNL     1       3.082   6.866  17.840  0.00  0.00    +0.000 C 
ATOM     14  C   UNL     1       4.441   6.205  17.704  0.00  0.00    +0.000 C 
ATOM     15  C   UNL     1       4.586   5.016  18.671  0.00  0.00    +0.000 C 
ATOM     16  C   UNL     1       3.425   4.049  18.520  0.00  0.00    +0.000 C 
ATOM     17  C   UNL     1       3.632   2.757  18.212  0.00  0.00    +0.000 C 
ATOM     18  C   UNL     1       2.060   4.695  18.680  0.00  0.00    +0.000 C 
ATOM     19  C   UNL     1       1.913   5.905  17.745  0.00  0.00    +0.000 C 
BRANCH  15  20
ATOM     20  O   UNL     1       4.655   5.462  20.023  0.00  0.00    +0.000 OA
ATOM     21  H   UNL     1       3.820   5.223  20.467  0.00  0.00    +0.000 HD
ENDBRANCH  15  20
BRANCH  18  22
ATOM     22  O   UNL     1       1.009   3.768  18.411  0.00  0.00    +0.000 OA
ATOM     23  H   UNL     1       1.270   2.914  18.797  0.00  0.00    +0.000 HD
ENDBRANCH  18  22
ENDBRANCH   6  12
BRANCH   1  24
ATOM     24  C   UNL     1      -1.667  12.796  21.358  0.00  0.00    +0.000 C 
ATOM     25  C   UNL     1      -1.750  14.093  20.544  0.00  0.00    +0.000 C 
BRANCH  24  26
ATOM     26  C   UNL     1      -2.932  12.730  22.255  0.00  0.00    +0.000 C 
BRANCH  26  30
ATOM     27  C   UNL     1      -7.056  12.615  23.684  0.00  0.00    +0.000 C 
ATOM     28  C   UNL     1      -6.107  13.190  22.941  0.00  0.00    +0.000 C 
ATOM     29  C   UNL     1      -5.442  12.646  21.739  0.00  0.00    +0.000 C 
ATOM     30  C   UNL     1      -4.161  13.460  21.694  0.00  0.00    +0.000 C 
ATOM     31  O   UNL     1      -4.403  14.650  22.470  0.00  0.00    +0.000 OA
ATOM     32  C   UNL     1      -5.498  14.496  23.260  0.00  0.00    +0.000 C 
ATOM     33  O   UNL     1      -5.900  15.307  24.079  0.00  0.00    +0.000 OA
ENDBRANCH  26  30
ENDBRANCH  24  26
ENDBRANCH   1  24
TORSDOF 6
ENDMDL
MODEL 9
REMARK VINA RESULT:      -7.2      2.477      9.641
REMARK  Name = 
REMARK  8 active torsions:
REMARK  status: ('A' for Active; 'I' for Inactive)
REMARK    1  A    between atoms: C_4  and  C_5
REMARK    2  A    between atoms: C_5  and  C_6
REMARK    3  A    between atoms: C_6  and  C_7
REMARK    4  A    between atoms: C_6  and  C_8
REMARK    5  A    between atoms: C_13  and  C_14
REMARK    6  A    between atoms: C_17  and  O_18
REMARK    7  A    between atoms: C_21  and  O_22
REMARK    8  A    between atoms: C_27  and  C_28
REMARK                            x       y       z     vdW  Elec       q    Type
REMARK                         _______ _______ _______ _____ _____    ______ ____
ROOT
ATOM      1  C   UNL     1      -0.936  12.209  19.743  0.00  0.00    +0.000 C 
ATOM      2  C   UNL     1      -0.764  11.584  18.340  0.00  0.00    +0.000 C 
ATOM      3  C   UNL     1      -0.226  10.162  18.569  0.00  0.00    +0.000 C 
ATOM      4  C   UNL     1      -0.556   9.877  20.036  0.00  0.00    +0.000 C 
ATOM      5  C   UNL     1       0.076   8.737  20.801  0.00  0.00    +0.000 C 
ATOM      6  C   UNL     1       0.982   7.923  20.234  0.00  0.00    +0.000 C 
ATOM      7  C   UNL     1      -0.364   8.691  22.258  0.00  0.00    +0.000 C 
ATOM      8  C   UNL     1      -0.300  10.057  22.967  0.00  0.00    +0.000 C 
ATOM      9  C   UNL     1      -0.871  11.201  22.123  0.00  0.00    +0.000 C 
ATOM     10  C   UNL     1      -0.230  11.228  20.719  0.00  0.00    +0.000 C 
ATOM     11  C   UNL     1       1.294  11.461  20.831  0.00  0.00    +0.000 C 
ENDROOT
BRANCH   6  12
ATOM     12  C   UNL     1       1.639   6.822  20.884  0.00  0.00    +0.000 C 
ATOM     13  C   UNL     1       2.105   5.728  20.256  0.00  0.00    +0.000 C 
ATOM     14  C   UNL     1       2.694   4.581  21.056  0.00  0.00    +0.000 C 
ATOM     15  C   UNL     1       2.060   3.235  20.657  0.00  0.00    +0.000 C 
ATOM     16  C   UNL     1       2.133   3.026  19.155  0.00  0.00    +0.000 C 
ATOM     17  C   UNL     1       2.745   1.949  18.632  0.00  0.00    +0.000 C 
ATOM     18  C   UNL     1       1.524   4.156  18.344  0.00  0.00    +0.000 C 
ATOM     19  C   UNL     1       2.122   5.510  18.755  0.00  0.00    +0.000 C 
BRANCH  15  20
ATOM     20  O   UNL     1       0.699   3.167  21.076  0.00  0.00    +0.000 OA
ATOM     21  H   UNL     1       0.247   3.979  20.782  0.00  0.00    +0.000 HD
ENDBRANCH  15  20
BRANCH  18  22
ATOM     22  O   UNL     1       1.727   3.963  16.945  0.00  0.00    +0.000 OA
ATOM     23  H   UNL     1       2.680   4.056  16.773  0.00  0.00    +0.000 HD
ENDBRANCH  18  22
ENDBRANCH   6  12
BRANCH   1  24
ATOM     24  C   UNL     1      -0.663  13.731  19.886  0.00  0.00    +0.000 C 
ATOM     25  C   UNL     1      -0.352  14.271  21.287  0.00  0.00    +0.000 C 
BRANCH  24  26
ATOM     26  C   UNL     1       0.477  14.204  18.944  0.00  0.00    +0.000 C 
BRANCH  26  30
ATOM     27  C   UNL     1       4.614  15.005  17.804  0.00  0.00    +0.000 C 
ATOM     28  C   UNL     1       3.511  15.356  18.469  0.00  0.00    +0.000 C 
ATOM     29  C   UNL     1       2.900  14.680  19.632  0.00  0.00    +0.000 C 
ATOM     30  C   UNL     1       1.470  15.189  19.576  0.00  0.00    +0.000 C 
ATOM     31  O   UNL     1       1.498  16.402  18.797  0.00  0.00    +0.000 OA
ATOM     32  C   UNL     1       2.652  16.494  18.087  0.00  0.00    +0.000 C 
ATOM     33  O   UNL     1       2.921  17.372  17.284  0.00  0.00    +0.000 OA
ENDBRANCH  26  30
ENDBRANCH  24  26
ENDBRANCH   1  24
TORSDOF 6
ENDMDL
