MODEL 1
REMARK VINA RESULT:      -7.5      0.000      0.000
REMARK  Name = 
REMARK  18 active torsions:
REMARK  status: ('A' for Active; 'I' for Inactive)
REMARK    1  A    between atoms: S_2  and  N_4
REMARK    2  A    between atoms: S_2  and  N_17
REMARK    3  A    between atoms: N_4  and  C_5
REMARK    4  A    between atoms: C_5  and  C_6
REMARK    5  A    between atoms: C_6  and  C_7
REMARK    6  A    between atoms: C_7  and  C_8
REMARK    7  A    between atoms: C_8  and  C_9
REMARK    8  A    between atoms: C_9  and  C_10
REMARK    9  A    between atoms: C_10  and  C_11
REMARK   10  A    between atoms: N_17  and  S_18
REMARK   11  A    between atoms: S_18  and  N_21
REMARK   12  A    between atoms: N_21  and  C_22
REMARK   13  A    between atoms: C_22  and  C_23
REMARK   14  A    between atoms: C_23  and  C_24
REMARK   15  A    between atoms: C_24  and  C_25
REMARK   16  A    between atoms: C_25  and  C_26
REMARK   17  A    between atoms: C_26  and  C_27
REMARK   18  A    between atoms: C_27  and  C_28
REMARK                            x       y       z     vdW  Elec       q    Type
REMARK                         _______ _______ _______ _____ _____    ______ ____
ROOT
ATOM      1  N   UNL     1       5.672   5.404  17.262  0.00  0.00    +0.000 NA
ATOM      2  H   UNL     1       5.390   6.374  17.322  0.00  0.00    +0.000 HD
ENDROOT
BRANCH   1   3
ATOM      3  S   UNL     1       6.894   5.347  16.155  0.00  0.00    +0.000 S 
ATOM      4  O   UNL     1       7.728   4.228  16.546  0.00  0.00    +0.000 OA
ATOM      5  O   UNL     1       6.376   5.426  14.818  0.00  0.00    +0.000 OA
BRANCH   3   6
ATOM      6  N   UNL     1       7.801   6.725  16.473  0.00  0.00    +0.000 NA
ATOM      7  H   UNL     1       7.991   7.226  15.606  0.00  0.00    +0.000 HD
BRANCH   6   8
ATOM      8  C   UNL     1       7.142   7.616  17.459  0.00  0.00    +0.000 C 
BRANCH   8   9
ATOM      9  C   UNL     1       7.888   8.941  17.596  0.00  0.00    +0.000 C 
BRANCH   9  10
ATOM     10  C   UNL     1       8.674   8.931  18.911  0.00  0.00    +0.000 C 
BRANCH  10  11
ATOM     11  C   UNL     1       9.384  10.249  19.213  0.00  0.00    +0.000 C 
BRANCH  11  12
ATOM     12  C   UNL     1       9.616  11.026  17.911  0.00  0.00    +0.000 C 
BRANCH  12  13
ATOM     13  C   UNL     1      10.271  12.387  18.152  0.00  0.00    +0.000 C 
BRANCH  13  14
ATOM     14  C   UNL     1       9.253  13.504  18.146  0.00  0.00    +0.000 A 
ATOM     15  C   UNL     1       7.961  13.278  17.649  0.00  0.00    +0.000 A 
ATOM     16  C   UNL     1       7.023  14.311  17.611  0.00  0.00    +0.000 A 
ATOM     17  C   UNL     1       7.366  15.582  18.065  0.00  0.00    +0.000 A 
ATOM     18  C   UNL     1       8.645  15.818  18.566  0.00  0.00    +0.000 A 
ATOM     19  C   UNL     1       9.586  14.785  18.605  0.00  0.00    +0.000 A 
ENDBRANCH  13  14
ENDBRANCH  12  13
ENDBRANCH  11  12
ENDBRANCH  10  11
ENDBRANCH   9  10
ENDBRANCH   8   9
ENDBRANCH   6   8
ENDBRANCH   3   6
ENDBRANCH   1   3
BRANCH   1  21
ATOM     20  O   UNL     1       5.217   5.567  19.744  0.00  0.00    +0.000 OA
ATOM     21  S   UNL     1       6.020   4.869  18.771  0.00  0.00    +0.000 S 
ATOM     22  O   UNL     1       7.437   4.651  18.912  0.00  0.00    +0.000 OA
BRANCH  21  23
ATOM     23  N   UNL     1       5.357   3.301  18.660  0.00  0.00    +0.000 NA
ATOM     24  H   UNL     1       5.313   2.906  19.600  0.00  0.00    +0.000 HD
BRANCH  23  25
ATOM     25  C   UNL     1       3.993   3.353  18.057  0.00  0.00    +0.000 C 
BRANCH  25  26
ATOM     26  C   UNL     1       3.232   2.055  18.307  0.00  0.00    +0.000 C 
BRANCH  26  27
ATOM     27  C   UNL     1       1.852   2.369  18.895  0.00  0.00    +0.000 C 
BRANCH  27  28
ATOM     28  C   UNL     1       1.936   3.147  20.209  0.00  0.00    +0.000 C 
BRANCH  28  29
ATOM     29  C   UNL     1       1.252   4.512  20.075  0.00  0.00    +0.000 C 
BRANCH  29  30
ATOM     30  C   UNL     1       2.046   5.617  20.777  0.00  0.00    +0.000 C 
BRANCH  30  31
ATOM     31  C   UNL     1       1.846   6.960  20.116  0.00  0.00    +0.000 A 
ATOM     32  C   UNL     1       1.203   8.007  20.789  0.00  0.00    +0.000 A 
ATOM     33  C   UNL     1       0.992   9.234  20.156  0.00  0.00    +0.000 A 
ATOM     34  C   UNL     1       1.420   9.427  18.845  0.00  0.00    +0.000 A 
ATOM     35  C   UNL     1       2.068   8.396  18.169  0.00  0.00    +0.000 A 
ATOM     36  C   UNL     1       2.279   7.169  18.800  0.00  0.00    +0.000 A 
ENDBRANCH  30  31
ENDBRANCH  29  30
ENDBRANCH  28  29
ENDBRANCH  27  28
ENDBRANCH  26  27
ENDBRANCH  25  26
ENDBRANCH  23  25
ENDBRANCH  21  23
ENDBRANCH   1  21
TORSDOF 18
ENDMDL
MODEL 2
REMARK VINA RESULT:      -7.1      1.256      2.201
REMARK  Name = 
REMARK  18 active torsions:
REMARK  status: ('A' for Active; 'I' for Inactive)
REMARK    1  A    between atoms: S_2  and  N_4
REMARK    2  A    between atoms: S_2  and  N_17
REMARK    3  A    between atoms: N_4  and  C_5
REMARK    4  A    between atoms: C_5  and  C_6
REMARK    5  A    between atoms: C_6  and  C_7
REMARK    6  A    between atoms: C_7  and  C_8
REMARK    7  A    between atoms: C_8  and  C_9
REMARK    8  A    between atoms: C_9  and  C_10
REMARK    9  A    between atoms: C_10  and  C_11
REMARK   10  A    between atoms: N_17  and  S_18
REMARK   11  A    between atoms: S_18  and  N_21
REMARK   12  A    between atoms: N_21  and  C_22
REMARK   13  A    between atoms: C_22  and  C_23
REMARK   14  A    between atoms: C_23  and  C_24
REMARK   15  A    between atoms: C_24  and  C_25
REMARK   16  A    between atoms: C_25  and  C_26
REMARK   17  A    between atoms: C_26  and  C_27
REMARK   18  A    between atoms: C_27  and  C_28
REMARK                            x       y       z     vdW  Elec       q    Type
REMARK                         _______ _______ _______ _____ _____    ______ ____
ROOT
ATOM      1  N   UNL     1       6.491   4.285  17.554  0.00  0.00    +0.000 NA
ATOM      2  H   UNL     1       7.445   3.965  17.443  0.00  0.00    +0.000 HD
ENDROOT
BRANCH   1   3
ATOM      3  S   UNL     1       6.567   5.660  18.463  0.00  0.00    +0.000 S 
ATOM      4  O   UNL     1       5.234   6.226  18.436  0.00  0.00    +0.000 OA
ATOM      5  O   UNL     1       7.216   5.406  19.718  0.00  0.00    +0.000 OA
BRANCH   3   6
ATOM      6  N   UNL     1       7.522   6.701  17.553  0.00  0.00    +0.000 NA
ATOM      7  H   UNL     1       6.976   7.100  16.790  0.00  0.00    +0.000 HD
BRANCH   6   8
ATOM      8  C   UNL     1       8.127   7.774  18.379  0.00  0.00    +0.000 C 
BRANCH   8   9
ATOM      9  C   UNL     1       8.361   9.041  17.559  0.00  0.00    +0.000 C 
BRANCH   9  10
ATOM     10  C   UNL     1       8.439  10.238  18.512  0.00  0.00    +0.000 C 
BRANCH  10  11
ATOM     11  C   UNL     1       9.533  10.109  19.571  0.00  0.00    +0.000 C 
BRANCH  11  12
ATOM     12  C   UNL     1      10.438  11.348  19.538  0.00  0.00    +0.000 C 
BRANCH  12  13
ATOM     13  C   UNL     1      10.782  11.782  18.111  0.00  0.00    +0.000 C 
BRANCH  13  14
ATOM     14  C   UNL     1      10.558  13.263  17.910  0.00  0.00    +0.000 A 
ATOM     15  C   UNL     1      11.224  13.943  16.881  0.00  0.00    +0.000 A 
ATOM     16  C   UNL     1      11.047  15.317  16.706  0.00  0.00    +0.000 A 
ATOM     17  C   UNL     1      10.205  16.026  17.560  0.00  0.00    +0.000 A 
ATOM     18  C   UNL     1       9.534  15.360  18.583  0.00  0.00    +0.000 A 
ATOM     19  C   UNL     1       9.710  13.985  18.760  0.00  0.00    +0.000 A 
ENDBRANCH  13  14
ENDBRANCH  12  13
ENDBRANCH  11  12
ENDBRANCH  10  11
ENDBRANCH   9  10
ENDBRANCH   8   9
ENDBRANCH   6   8
ENDBRANCH   3   6
ENDBRANCH   1   3
BRANCH   1  21
ATOM     20  O   UNL     1       6.011   3.208  15.317  0.00  0.00    +0.000 OA
ATOM     21  S   UNL     1       5.812   4.422  16.068  0.00  0.00    +0.000 S 
ATOM     22  O   UNL     1       6.039   5.740  15.533  0.00  0.00    +0.000 OA
BRANCH  21  23
ATOM     23  N   UNL     1       4.168   4.424  16.522  0.00  0.00    +0.000 NA
ATOM     24  H   UNL     1       3.603   4.478  15.674  0.00  0.00    +0.000 HD
BRANCH  23  25
ATOM     25  C   UNL     1       3.836   3.186  17.286  0.00  0.00    +0.000 C 
BRANCH  25  26
ATOM     26  C   UNL     1       2.497   3.324  18.003  0.00  0.00    +0.000 C 
BRANCH  26  27
ATOM     27  C   UNL     1       2.459   2.388  19.215  0.00  0.00    +0.000 C 
BRANCH  27  28
ATOM     28  C   UNL     1       2.757   3.112  20.527  0.00  0.00    +0.000 C 
BRANCH  28  29
ATOM     29  C   UNL     1       2.967   4.611  20.284  0.00  0.00    +0.000 C 
BRANCH  29  30
ATOM     30  C   UNL     1       1.827   5.448  20.869  0.00  0.00    +0.000 C 
BRANCH  30  31
ATOM     31  C   UNL     1       1.732   6.806  20.216  0.00  0.00    +0.000 A 
ATOM     32  C   UNL     1       1.160   7.893  20.889  0.00  0.00    +0.000 A 
ATOM     33  C   UNL     1       1.045   9.135  20.262  0.00  0.00    +0.000 A 
ATOM     34  C   UNL     1       1.499   9.305  18.957  0.00  0.00    +0.000 A 
ATOM     35  C   UNL     1       2.077   8.233  18.280  0.00  0.00    +0.000 A 
ATOM     36  C   UNL     1       2.192   6.990  18.905  0.00  0.00    +0.000 A 
ENDBRANCH  30  31
ENDBRANCH  29  30
ENDBRANCH  28  29
ENDBRANCH  27  28
ENDBRANCH  26  27
ENDBRANCH  25  26
ENDBRANCH  23  25
ENDBRANCH  21  23
ENDBRANCH   1  21
TORSDOF 18
ENDMDL
MODEL 3
REMARK VINA RESULT:      -7.1      1.440      1.708
REMARK  Name = 
REMARK  18 active torsions:
REMARK  status: ('A' for Active; 'I' for Inactive)
REMARK    1  A    between atoms: S_2  and  N_4
REMARK    2  A    between atoms: S_2  and  N_17
REMARK    3  A    between atoms: N_4  and  C_5
REMARK    4  A    between atoms: C_5  and  C_6
REMARK    5  A    between atoms: C_6  and  C_7
REMARK    6  A    between atoms: C_7  and  C_8
REMARK    7  A    between atoms: C_8  and  C_9
REMARK    8  A    between atoms: C_9  and  C_10
REMARK    9  A    between atoms: C_10  and  C_11
REMARK   10  A    between atoms: N_17  and  S_18
REMARK   11  A    between atoms: S_18  and  N_21
REMARK   12  A    between atoms: N_21  and  C_22
REMARK   13  A    between atoms: C_22  and  C_23
REMARK   14  A    between atoms: C_23  and  C_24
REMARK   15  A    between atoms: C_24  and  C_25
REMARK   16  A    between atoms: C_25  and  C_26
REMARK   17  A    between atoms: C_26  and  C_27
REMARK   18  A    between atoms: C_27  and  C_28
REMARK                            x       y       z     vdW  Elec       q    Type
REMARK                         _______ _______ _______ _____ _____    ______ ____
ROOT
ATOM      1  N   UNL     1       6.758   4.029  17.860  0.00  0.00    +0.000 NA
ATOM      2  H   UNL     1       6.830   3.138  17.384  0.00  0.00    +0.000 HD
ENDROOT
BRANCH   1   3
ATOM      3  S   UNL     1       6.985   5.186  16.707  0.00  0.00    +0.000 S 
ATOM      4  O   UNL     1       7.749   4.550  15.652  0.00  0.00    +0.000 OA
ATOM      5  O   UNL     1       5.750   5.851  16.400  0.00  0.00    +0.000 OA
BRANCH   3   6
ATOM      6  N   UNL     1       8.033   6.285  17.428  0.00  0.00    +0.000 NA
ATOM      7  H   UNL     1       8.956   6.218  17.002  0.00  0.00    +0.000 HD
BRANCH   6   8
ATOM      8  C   UNL     1       7.523   7.676  17.358  0.00  0.00    +0.000 C 
BRANCH   8   9
ATOM      9  C   UNL     1       8.210   8.571  18.387  0.00  0.00    +0.000 C 
BRANCH   9  10
ATOM     10  C   UNL     1       8.377   9.972  17.789  0.00  0.00    +0.000 C 
BRANCH  10  11
ATOM     11  C   UNL     1       9.271  10.891  18.618  0.00  0.00    +0.000 C 
BRANCH  11  12
ATOM     12  C   UNL     1      10.478  11.335  17.783  0.00  0.00    +0.000 C 
BRANCH  12  13
ATOM     13  C   UNL     1      11.518  12.089  18.614  0.00  0.00    +0.000 C 
BRANCH  13  14
ATOM     14  C   UNL     1      10.938  13.341  19.230  0.00  0.00    +0.000 A 
ATOM     15  C   UNL     1      10.516  14.399  18.412  0.00  0.00    +0.000 A 
ATOM     16  C   UNL     1      10.008  15.572  18.972  0.00  0.00    +0.000 A 
ATOM     17  C   UNL     1       9.918  15.702  20.356  0.00  0.00    +0.000 A 
ATOM     18  C   UNL     1      10.330  14.656  21.179  0.00  0.00    +0.000 A 
ATOM     19  C   UNL     1      10.840  13.481  20.620  0.00  0.00    +0.000 A 
ENDBRANCH  13  14
ENDBRANCH  12  13
ENDBRANCH  11  12
ENDBRANCH  10  11
ENDBRANCH   9  10
ENDBRANCH   8   9
ENDBRANCH   6   8
ENDBRANCH   3   6
ENDBRANCH   1   3
BRANCH   1  21
ATOM     20  O   UNL     1       4.888   5.431  18.823  0.00  0.00    +0.000 OA
ATOM     21  S   UNL     1       5.337   4.070  18.675  0.00  0.00    +0.000 S 
ATOM     22  O   UNL     1       5.347   3.110  19.749  0.00  0.00    +0.000 OA
BRANCH  21  23
ATOM     23  N   UNL     1       4.327   3.373  17.491  0.00  0.00    +0.000 NA
ATOM     24  H   UNL     1       4.215   2.382  17.710  0.00  0.00    +0.000 HD
BRANCH  23  25
ATOM     25  C   UNL     1       2.997   4.051  17.476  0.00  0.00    +0.000 C 
BRANCH  25  26
ATOM     26  C   UNL     1       1.928   3.179  18.125  0.00  0.00    +0.000 C 
BRANCH  26  27
ATOM     27  C   UNL     1       1.985   3.336  19.648  0.00  0.00    +0.000 C 
BRANCH  27  28
ATOM     28  C   UNL     1       0.847   4.199  20.194  0.00  0.00    +0.000 C 
BRANCH  28  29
ATOM     29  C   UNL     1       1.401   5.412  20.949  0.00  0.00    +0.000 C 
BRANCH  29  30
ATOM     30  C   UNL     1       2.509   6.116  20.161  0.00  0.00    +0.000 C 
BRANCH  30  31
ATOM     31  C   UNL     1       2.063   7.460  19.639  0.00  0.00    +0.000 A 
ATOM     32  C   UNL     1       1.330   8.341  20.445  0.00  0.00    +0.000 A 
ATOM     33  C   UNL     1       0.892   9.567  19.940  0.00  0.00    +0.000 A 
ATOM     34  C   UNL     1       1.180   9.925  18.625  0.00  0.00    +0.000 A 
ATOM     35  C   UNL     1       1.914   9.061  17.817  0.00  0.00    +0.000 A 
ATOM     36  C   UNL     1       2.353   7.834  18.320  0.00  0.00    +0.000 A 
ENDBRANCH  30  31
ENDBRANCH  29  30
ENDBRANCH  28  29
ENDBRANCH  27  28
ENDBRANCH  26  27
ENDBRANCH  25  26
ENDBRANCH  23  25
ENDBRANCH  21  23
ENDBRANCH   1  21
TORSDOF 18
ENDMDL
MODEL 4
REMARK VINA RESULT:      -7.0      2.732      8.451
REMARK  Name = 
REMARK  18 active torsions:
REMARK  status: ('A' for Active; 'I' for Inactive)
REMARK    1  A    between atoms: S_2  and  N_4
REMARK    2  A    between atoms: S_2  and  N_17
REMARK    3  A    between atoms: N_4  and  C_5
REMARK    4  A    between atoms: C_5  and  C_6
REMARK    5  A    between atoms: C_6  and  C_7
REMARK    6  A    between atoms: C_7  and  C_8
REMARK    7  A    between atoms: C_8  and  C_9
REMARK    8  A    between atoms: C_9  and  C_10
REMARK    9  A    between atoms: C_10  and  C_11
REMARK   10  A    between atoms: N_17  and  S_18
REMARK   11  A    between atoms: S_18  and  N_21
REMARK   12  A    between atoms: N_21  and  C_22
REMARK   13  A    between atoms: C_22  and  C_23
REMARK   14  A    between atoms: C_23  and  C_24
REMARK   15  A    between atoms: C_24  and  C_25
REMARK   16  A    between atoms: C_25  and  C_26
REMARK   17  A    between atoms: C_26  and  C_27
REMARK   18  A    between atoms: C_27  and  C_28
REMARK                            x       y       z     vdW  Elec       q    Type
REMARK                         _______ _______ _______ _____ _____    ______ ____
ROOT
ATOM      1  N   UNL     1       4.250   4.811  16.795  0.00  0.00    +0.000 NA
ATOM      2  H   UNL     1       4.845   4.058  16.473  0.00  0.00    +0.000 HD
ENDROOT
BRANCH   1   3
ATOM      3  S   UNL     1       3.841   4.444  18.350  0.00  0.00    +0.000 S 
ATOM      4  O   UNL     1       3.426   3.056  18.332  0.00  0.00    +0.000 OA
ATOM      5  O   UNL     1       4.861   4.879  19.262  0.00  0.00    +0.000 OA
BRANCH   3   6
ATOM      6  N   UNL     1       2.443   5.335  18.628  0.00  0.00    +0.000 NA
ATOM      7  H   UNL     1       1.626   4.728  18.574  0.00  0.00    +0.000 HD
BRANCH   6   8
ATOM      8  C   UNL     1       2.480   6.047  19.929  0.00  0.00    +0.000 C 
BRANCH   8   9
ATOM      9  C   UNL     1       2.043   7.502  19.777  0.00  0.00    +0.000 C 
BRANCH   9  10
ATOM     10  C   UNL     1       1.338   7.942  21.064  0.00  0.00    +0.000 C 
BRANCH  10  11
ATOM     11  C   UNL     1       0.461   9.180  20.892  0.00  0.00    +0.000 C 
BRANCH  11  12
ATOM     12  C   UNL     1       0.682   9.786  19.501  0.00  0.00    +0.000 C 
BRANCH  12  13
ATOM     13  C   UNL     1      -0.067  11.107  19.313  0.00  0.00    +0.000 C 
BRANCH  13  14
ATOM     14  C   UNL     1      -1.332  10.921  18.509  0.00  0.00    +0.000 A 
ATOM     15  C   UNL     1      -2.469  11.690  18.794  0.00  0.00    +0.000 A 
ATOM     16  C   UNL     1      -3.652  11.504  18.078  0.00  0.00    +0.000 A 
ATOM     17  C   UNL     1      -3.714  10.544  17.070  0.00  0.00    +0.000 A 
ATOM     18  C   UNL     1      -2.589   9.776  16.774  0.00  0.00    +0.000 A 
ATOM     19  C   UNL     1      -1.404   9.961  17.491  0.00  0.00    +0.000 A 
ENDBRANCH  13  14
ENDBRANCH  12  13
ENDBRANCH  11  12
ENDBRANCH  10  11
ENDBRANCH   9  10
ENDBRANCH   8   9
ENDBRANCH   6   8
ENDBRANCH   3   6
ENDBRANCH   1   3
BRANCH   1  21
ATOM     20  O   UNL     1       4.478   7.256  17.402  0.00  0.00    +0.000 OA
ATOM     21  S   UNL     1       5.034   6.231  16.555  0.00  0.00    +0.000 S 
ATOM     22  O   UNL     1       5.317   6.416  15.154  0.00  0.00    +0.000 OA
BRANCH  21  23
ATOM     23  N   UNL     1       6.541   5.826  17.242  0.00  0.00    +0.000 NA
ATOM     24  H   UNL     1       6.853   4.945  16.831  0.00  0.00    +0.000 HD
BRANCH  23  25
ATOM     25  C   UNL     1       7.541   6.902  16.977  0.00  0.00    +0.000 C 
BRANCH  25  26
ATOM     26  C   UNL     1       7.874   7.670  18.251  0.00  0.00    +0.000 C 
BRANCH  26  27
ATOM     27  C   UNL     1       8.256   9.112  17.902  0.00  0.00    +0.000 C 
BRANCH  27  28
ATOM     28  C   UNL     1       9.137   9.762  18.970  0.00  0.00    +0.000 C 
BRANCH  28  29
ATOM     29  C   UNL     1       9.739  11.072  18.452  0.00  0.00    +0.000 C 
BRANCH  29  30
ATOM     30  C   UNL     1      10.509  11.816  19.547  0.00  0.00    +0.000 C 
BRANCH  30  31
ATOM     31  C   UNL     1       9.590  12.630  20.427  0.00  0.00    +0.000 A 
ATOM     32  C   UNL     1       9.452  12.339  21.790  0.00  0.00    +0.000 A 
ATOM     33  C   UNL     1       8.573  13.075  22.587  0.00  0.00    +0.000 A 
ATOM     34  C   UNL     1       7.823  14.108  22.032  0.00  0.00    +0.000 A 
ATOM     35  C   UNL     1       7.958  14.412  20.679  0.00  0.00    +0.000 A 
ATOM     36  C   UNL     1       8.835  13.676  19.880  0.00  0.00    +0.000 A 
ENDBRANCH  30  31
ENDBRANCH  29  30
ENDBRANCH  28  29
ENDBRANCH  27  28
ENDBRANCH  26  27
ENDBRANCH  25  26
ENDBRANCH  23  25
ENDBRANCH  21  23
ENDBRANCH   1  21
TORSDOF 18
ENDMDL
MODEL 5
REMARK VINA RESULT:      -7.0      2.422      3.478
REMARK  Name = 
REMARK  18 active torsions:
REMARK  status: ('A' for Active; 'I' for Inactive)
REMARK    1  A    between atoms: S_2  and  N_4
REMARK    2  A    between atoms: S_2  and  N_17
REMARK    3  A    between atoms: N_4  and  C_5
REMARK    4  A    between atoms: C_5  and  C_6
REMARK    5  A    between atoms: C_6  and  C_7
REMARK    6  A    between atoms: C_7  and  C_8
REMARK    7  A    between atoms: C_8  and  C_9
REMARK    8  A    between atoms: C_9  and  C_10
REMARK    9  A    between atoms: C_10  and  C_11
REMARK   10  A    between atoms: N_17  and  S_18
REMARK   11  A    between atoms: S_18  and  N_21
REMARK   12  A    between atoms: N_21  and  C_22
REMARK   13  A    between atoms: C_22  and  C_23
REMARK   14  A    between atoms: C_23  and  C_24
REMARK   15  A    between atoms: C_24  and  C_25
REMARK   16  A    between atoms: C_25  and  C_26
REMARK   17  A    between atoms: C_26  and  C_27
REMARK   18  A    between atoms: C_27  and  C_28
REMARK                            x       y       z     vdW  Elec       q    Type
REMARK                         _______ _______ _______ _____ _____    ______ ____
ROOT
ATOM      1  N   UNL     1       7.534   6.241  16.373  0.00  0.00    +0.000 NA
ATOM      2  H   UNL     1       6.982   6.630  15.620  0.00  0.00    +0.000 HD
ENDROOT
BRANCH   1   3
ATOM      3  S   UNL     1       7.336   7.253  17.661  0.00  0.00    +0.000 S 
ATOM      4  O   UNL     1       5.927   7.587  17.688  0.00  0.00    +0.000 OA
ATOM      5  O   UNL     1       7.972   6.720  18.832  0.00  0.00    +0.000 OA
BRANCH   3   6
ATOM      6  N   UNL     1       8.129   8.662  17.201  0.00  0.00    +0.000 NA
ATOM      7  H   UNL     1       7.562   9.179  16.530  0.00  0.00    +0.000 HD
BRANCH   6   8
ATOM      8  C   UNL     1       8.472   9.518  18.363  0.00  0.00    +0.000 C 
BRANCH   8   9
ATOM      9  C   UNL     1       9.468  10.609  17.974  0.00  0.00    +0.000 C 
BRANCH   9  10
ATOM     10  C   UNL     1       8.709  11.926  17.791  0.00  0.00    +0.000 C 
BRANCH  10  11
ATOM     11  C   UNL     1       8.841  12.881  18.975  0.00  0.00    +0.000 C 
BRANCH  11  12
ATOM     12  C   UNL     1      10.072  12.508  19.811  0.00  0.00    +0.000 C 
BRANCH  12  13
ATOM     13  C   UNL     1      10.352  13.521  20.923  0.00  0.00    +0.000 C 
BRANCH  13  14
ATOM     14  C   UNL     1       9.402  13.350  22.085  0.00  0.00    +0.000 A 
ATOM     15  C   UNL     1       8.932  14.472  22.782  0.00  0.00    +0.000 A 
ATOM     16  C   UNL     1       8.078  14.323  23.877  0.00  0.00    +0.000 A 
ATOM     17  C   UNL     1       7.689  13.051  24.289  0.00  0.00    +0.000 A 
ATOM     18  C   UNL     1       8.146  11.928  23.602  0.00  0.00    +0.000 A 
ATOM     19  C   UNL     1       9.001  12.075  22.506  0.00  0.00    +0.000 A 
ENDBRANCH  13  14
ENDBRANCH  12  13
ENDBRANCH  11  12
ENDBRANCH  10  11
ENDBRANCH   9  10
ENDBRANCH   8   9
ENDBRANCH   6   8
ENDBRANCH   3   6
ENDBRANCH   1   3
BRANCH   1  21
ATOM     20  O   UNL     1       7.962   4.041  17.545  0.00  0.00    +0.000 OA
ATOM     21  S   UNL     1       7.091   4.678  16.590  0.00  0.00    +0.000 S 
ATOM     22  O   UNL     1       6.712   4.085  15.333  0.00  0.00    +0.000 OA
BRANCH  21  23
ATOM     23  N   UNL     1       5.612   4.929  17.404  0.00  0.00    +0.000 NA
ATOM     24  H   UNL     1       4.869   4.982  16.706  0.00  0.00    +0.000 HD
BRANCH  23  25
ATOM     25  C   UNL     1       5.346   3.812  18.358  0.00  0.00    +0.000 C 
BRANCH  25  26
ATOM     26  C   UNL     1       4.463   2.744  17.721  0.00  0.00    +0.000 C 
BRANCH  26  27
ATOM     27  C   UNL     1       3.631   2.047  18.803  0.00  0.00    +0.000 C 
BRANCH  27  28
ATOM     28  C   UNL     1       3.668   2.787  20.141  0.00  0.00    +0.000 C 
BRANCH  28  29
ATOM     29  C   UNL     1       2.290   2.763  20.811  0.00  0.00    +0.000 C 
BRANCH  29  30
ATOM     30  C   UNL     1       1.230   3.464  19.958  0.00  0.00    +0.000 C 
BRANCH  30  31
ATOM     31  C   UNL     1       1.641   4.870  19.591  0.00  0.00    +0.000 A 
ATOM     32  C   UNL     1       1.975   5.204  18.272  0.00  0.00    +0.000 A 
ATOM     33  C   UNL     1       2.388   6.497  17.950  0.00  0.00    +0.000 A 
ATOM     34  C   UNL     1       2.474   7.472  18.941  0.00  0.00    +0.000 A 
ATOM     35  C   UNL     1       2.137   7.154  20.255  0.00  0.00    +0.000 A 
ATOM     36  C   UNL     1       1.724   5.860  20.579  0.00  0.00    +0.000 A 
ENDBRANCH  30  31
ENDBRANCH  29  30
ENDBRANCH  28  29
ENDBRANCH  27  28
ENDBRANCH  26  27
ENDBRANCH  25  26
ENDBRANCH  23  25
ENDBRANCH  21  23
ENDBRANCH   1  21
TORSDOF 18
ENDMDL
MODEL 6
REMARK VINA RESULT:      -7.0      1.613      9.845
REMARK  Name = 
REMARK  18 active torsions:
REMARK  status: ('A' for Active; 'I' for Inactive)
REMARK    1  A    between atoms: S_2  and  N_4
REMARK    2  A    between atoms: S_2  and  N_17
REMARK    3  A    between atoms: N_4  and  C_5
REMARK    4  A    between atoms: C_5  and  C_6
REMARK    5  A    between atoms: C_6  and  C_7
REMARK    6  A    between atoms: C_7  and  C_8
REMARK    7  A    between atoms: C_8  and  C_9
REMARK    8  A    between atoms: C_9  and  C_10
REMARK    9  A    between atoms: C_10  and  C_11
REMARK   10  A    between atoms: N_17  and  S_18
REMARK   11  A    between atoms: S_18  and  N_21
REMARK   12  A    between atoms: N_21  and  C_22
REMARK   13  A    between atoms: C_22  and  C_23
REMARK   14  A    between atoms: C_23  and  C_24
REMARK   15  A    between atoms: C_24  and  C_25
REMARK   16  A    between atoms: C_25  and  C_26
REMARK   17  A    between atoms: C_26  and  C_27
REMARK   18  A    between atoms: C_27  and  C_28
REMARK                            x       y       z     vdW  Elec       q    Type
REMARK                         _______ _______ _______ _____ _____    ______ ____
ROOT
ATOM      1  N   UNL     1       5.717   4.850  17.328  0.00  0.00    +0.000 NA
ATOM      2  H   UNL     1       6.159   3.988  17.035  0.00  0.00    +0.000 HD
ENDROOT
BRANCH   1   3
ATOM      3  S   UNL     1       5.961   4.964  18.955  0.00  0.00    +0.000 S 
ATOM      4  O   UNL     1       5.448   3.732  19.519  0.00  0.00    +0.000 OA
ATOM      5  O   UNL     1       7.304   5.382  19.242  0.00  0.00    +0.000 OA
BRANCH   3   6
ATOM      6  N   UNL     1       4.895   6.168  19.447  0.00  0.00    +0.000 NA
ATOM      7  H   UNL     1       5.182   7.066  19.060  0.00  0.00    +0.000 HD
BRANCH   6   8
ATOM      8  C   UNL     1       3.493   5.862  19.075  0.00  0.00    +0.000 C 
BRANCH   8   9
ATOM      9  C   UNL     1       2.508   6.711  19.877  0.00  0.00    +0.000 C 
BRANCH   9  10
ATOM     10  C   UNL     1       1.616   5.782  20.705  0.00  0.00    +0.000 C 
BRANCH  10  11
ATOM     11  C   UNL     1       2.332   4.529  21.206  0.00  0.00    +0.000 C 
BRANCH  11  12
ATOM     12  C   UNL     1       1.314   3.404  21.434  0.00  0.00    +0.000 C 
BRANCH  12  13
ATOM     13  C   UNL     1       0.632   2.961  20.137  0.00  0.00    +0.000 C 
BRANCH  13  14
ATOM     14  C   UNL     1       1.640   2.660  19.053  0.00  0.00    +0.000 A 
ATOM     15  C   UNL     1       2.598   1.653  19.240  0.00  0.00    +0.000 A 
ATOM     16  C   UNL     1       3.553   1.388  18.257  0.00  0.00    +0.000 A 
ATOM     17  C   UNL     1       3.563   2.129  17.077  0.00  0.00    +0.000 A 
ATOM     18  C   UNL     1       2.614   3.129  16.877  0.00  0.00    +0.000 A 
ATOM     19  C   UNL     1       1.658   3.397  17.861  0.00  0.00    +0.000 A 
ENDBRANCH  13  14
ENDBRANCH  12  13
ENDBRANCH  11  12
ENDBRANCH  10  11
ENDBRANCH   9  10
ENDBRANCH   8   9
ENDBRANCH   6   8
ENDBRANCH   3   6
ENDBRANCH   1   3
BRANCH   1  21
ATOM     20  O   UNL     1       5.246   6.651  15.616  0.00  0.00    +0.000 OA
ATOM     21  S   UNL     1       6.302   6.073  16.408  0.00  0.00    +0.000 S 
ATOM     22  O   UNL     1       7.599   5.729  15.883  0.00  0.00    +0.000 OA
BRANCH  21  23
ATOM     23  N   UNL     1       6.631   7.204  17.641  0.00  0.00    +0.000 NA
ATOM     24  H   UNL     1       6.649   6.709  18.533  0.00  0.00    +0.000 HD
BRANCH  23  25
ATOM     25  C   UNL     1       7.942   7.876  17.397  0.00  0.00    +0.000 C 
BRANCH  25  26
ATOM     26  C   UNL     1       7.933   9.307  17.924  0.00  0.00    +0.000 C 
BRANCH  26  27
ATOM     27  C   UNL     1       9.058   9.488  18.949  0.00  0.00    +0.000 C 
BRANCH  27  28
ATOM     28  C   UNL     1       9.371  10.959  19.223  0.00  0.00    +0.000 C 
BRANCH  28  29
ATOM     29  C   UNL     1      10.474  11.462  18.286  0.00  0.00    +0.000 C 
BRANCH  29  30
ATOM     30  C   UNL     1      10.051  12.729  17.537  0.00  0.00    +0.000 C 
BRANCH  30  31
ATOM     31  C   UNL     1      10.578  13.978  18.201  0.00  0.00    +0.000 A 
ATOM     32  C   UNL     1       9.990  15.227  17.961  0.00  0.00    +0.000 A 
ATOM     33  C   UNL     1      10.507  16.381  18.553  0.00  0.00    +0.000 A 
ATOM     34  C   UNL     1      11.617  16.300  19.389  0.00  0.00    +0.000 A 
ATOM     35  C   UNL     1      12.206  15.063  19.642  0.00  0.00    +0.000 A 
ATOM     36  C   UNL     1      11.690  13.909  19.051  0.00  0.00    +0.000 A 
ENDBRANCH  30  31
ENDBRANCH  29  30
ENDBRANCH  28  29
ENDBRANCH  27  28
ENDBRANCH  26  27
ENDBRANCH  25  26
ENDBRANCH  23  25
ENDBRANCH  21  23
ENDBRANCH   1  21
TORSDOF 18
ENDMDL
MODEL 7
REMARK VINA RESULT:      -7.0      3.448      8.822
REMARK  Name = 
REMARK  18 active torsions:
REMARK  status: ('A' for Active; 'I' for Inactive)
REMARK    1  A    between atoms: S_2  and  N_4
REMARK    2  A    between atoms: S_2  and  N_17
REMARK    3  A    between atoms: N_4  and  C_5
REMARK    4  A    between atoms: C_5  and  C_6
REMARK    5  A    between atoms: C_6  and  C_7
REMARK    6  A    between atoms: C_7  and  C_8
REMARK    7  A    between atoms: C_8  and  C_9
REMARK    8  A    between atoms: C_9  and  C_10
REMARK    9  A    between atoms: C_10  and  C_11
REMARK   10  A    between atoms: N_17  and  S_18
REMARK   11  A    between atoms: S_18  and  N_21
REMARK   12  A    between atoms: N_21  and  C_22
REMARK   13  A    between atoms: C_22  and  C_23
REMARK   14  A    between atoms: C_23  and  C_24
REMARK   15  A    between atoms: C_24  and  C_25
REMARK   16  A    between atoms: C_25  and  C_26
REMARK   17  A    between atoms: C_26  and  C_27
REMARK   18  A    between atoms: C_27  and  C_28
REMARK                            x       y       z     vdW  Elec       q    Type
REMARK                         _______ _______ _______ _____ _____    ______ ____
ROOT
ATOM      1  N   UNL     1       4.274   6.007  18.245  0.00  0.00    +0.000 NA
ATOM      2  H   UNL     1       4.667   6.474  17.437  0.00  0.00    +0.000 HD
ENDROOT
BRANCH   1   3
ATOM      3  S   UNL     1       2.759   6.627  18.445  0.00  0.00    +0.000 S 
ATOM      4  O   UNL     1       1.887   5.811  17.624  0.00  0.00    +0.000 OA
ATOM      5  O   UNL     1       2.465   6.819  19.837  0.00  0.00    +0.000 OA
BRANCH   3   6
ATOM      6  N   UNL     1       2.825   8.126  17.687  0.00  0.00    +0.000 NA
ATOM      7  H   UNL     1       3.156   8.019  16.729  0.00  0.00    +0.000 HD
BRANCH   6   8
ATOM      8  C   UNL     1       1.517   8.826  17.713  0.00  0.00    +0.000 C 
BRANCH   8   9
ATOM      9  C   UNL     1       1.637  10.201  18.367  0.00  0.00    +0.000 C 
BRANCH   9  10
ATOM     10  C   UNL     1       0.802  10.210  19.651  0.00  0.00    +0.000 C 
BRANCH  10  11
ATOM     11  C   UNL     1      -0.654  10.618  19.434  0.00  0.00    +0.000 C 
BRANCH  11  12
ATOM     12  C   UNL     1      -0.907  11.996  20.060  0.00  0.00    +0.000 C 
BRANCH  12  13
ATOM     13  C   UNL     1      -1.083  11.924  21.578  0.00  0.00    +0.000 C 
BRANCH  13  14
ATOM     14  C   UNL     1      -2.475  12.337  21.998  0.00  0.00    +0.000 A 
ATOM     15  C   UNL     1      -3.388  12.810  21.044  0.00  0.00    +0.000 A 
ATOM     16  C   UNL     1      -4.666  13.223  21.426  0.00  0.00    +0.000 A 
ATOM     17  C   UNL     1      -5.044  13.171  22.766  0.00  0.00    +0.000 A 
ATOM     18  C   UNL     1      -4.148  12.698  23.722  0.00  0.00    +0.000 A 
ATOM     19  C   UNL     1      -2.868  12.285  23.342  0.00  0.00    +0.000 A 
ENDBRANCH  13  14
ENDBRANCH  12  13
ENDBRANCH  11  12
ENDBRANCH  10  11
ENDBRANCH   9  10
ENDBRANCH   8   9
ENDBRANCH   6   8
ENDBRANCH   3   6
ENDBRANCH   1   3
BRANCH   1  21
ATOM     20  O   UNL     1       4.697   4.102  16.637  0.00  0.00    +0.000 OA
ATOM     21  S   UNL     1       4.383   4.388  18.014  0.00  0.00    +0.000 S 
ATOM     22  O   UNL     1       3.356   3.706  18.759  0.00  0.00    +0.000 OA
BRANCH  21  23
ATOM     23  N   UNL     1       5.815   4.087  18.890  0.00  0.00    +0.000 NA
ATOM     24  H   UNL     1       6.434   3.524  18.307  0.00  0.00    +0.000 HD
BRANCH  23  25
ATOM     25  C   UNL     1       6.481   5.371  19.260  0.00  0.00    +0.000 C 
BRANCH  25  26
ATOM     26  C   UNL     1       7.700   5.631  18.382  0.00  0.00    +0.000 C 
BRANCH  26  27
ATOM     27  C   UNL     1       8.186   7.070  18.582  0.00  0.00    +0.000 C 
BRANCH  27  28
ATOM     28  C   UNL     1       7.556   8.047  17.589  0.00  0.00    +0.000 C 
BRANCH  28  29
ATOM     29  C   UNL     1       8.214   9.428  17.695  0.00  0.00    +0.000 C 
BRANCH  29  30
ATOM     30  C   UNL     1       8.911   9.624  19.043  0.00  0.00    +0.000 C 
BRANCH  30  31
ATOM     31  C   UNL     1       9.795  10.848  19.047  0.00  0.00    +0.000 A 
ATOM     32  C   UNL     1      10.178  11.459  20.248  0.00  0.00    +0.000 A 
ATOM     33  C   UNL     1      10.967  12.611  20.238  0.00  0.00    +0.000 A 
ATOM     34  C   UNL     1      11.381  13.165  19.030  0.00  0.00    +0.000 A 
ATOM     35  C   UNL     1      11.014  12.562  17.830  0.00  0.00    +0.000 A 
ATOM     36  C   UNL     1      10.224  11.410  17.837  0.00  0.00    +0.000 A 
ENDBRANCH  30  31
ENDBRANCH  29  30
ENDBRANCH  28  29
ENDBRANCH  27  28
ENDBRANCH  26  27
ENDBRANCH  25  26
ENDBRANCH  23  25
ENDBRANCH  21  23
ENDBRANCH   1  21
TORSDOF 18
ENDMDL
MODEL 8
REMARK VINA RESULT:      -7.0      2.560      3.923
REMARK  Name = 
REMARK  18 active torsions:
REMARK  status: ('A' for Active; 'I' for Inactive)
REMARK    1  A    between atoms: S_2  and  N_4
REMARK    2  A    between atoms: S_2  and  N_17
REMARK    3  A    between atoms: N_4  and  C_5
REMARK    4  A    between atoms: C_5  and  C_6
REMARK    5  A    between atoms: C_6  and  C_7
REMARK    6  A    between atoms: C_7  and  C_8
REMARK    7  A    between atoms: C_8  and  C_9
REMARK    8  A    between atoms: C_9  and  C_10
REMARK    9  A    between atoms: C_10  and  C_11
REMARK   10  A    between atoms: N_17  and  S_18
REMARK   11  A    between atoms: S_18  and  N_21
REMARK   12  A    between atoms: N_21  and  C_22
REMARK   13  A    between atoms: C_22  and  C_23
REMARK   14  A    between atoms: C_23  and  C_24
REMARK   15  A    between atoms: C_24  and  C_25
REMARK   16  A    between atoms: C_25  and  C_26
REMARK   17  A    between atoms: C_26  and  C_27
REMARK   18  A    between atoms: C_27  and  C_28
REMARK                            x       y       z     vdW  Elec       q    Type
REMARK                         _______ _______ _______ _____ _____    ______ ____
ROOT
ATOM      1  N   UNL     1       5.616   3.816  17.329  0.00  0.00    +0.000 NA
ATOM      2  H   UNL     1       5.363   3.507  16.399  0.00  0.00    +0.000 HD
ENDROOT
BRANCH   1   3
ATOM      3  S   UNL     1       6.826   4.920  17.136  0.00  0.00    +0.000 S 
ATOM      4  O   UNL     1       8.062   4.165  17.190  0.00  0.00    +0.000 OA
ATOM      5  O   UNL     1       6.557   5.782  16.020  0.00  0.00    +0.000 OA
BRANCH   3   6
ATOM      6  N   UNL     1       6.784   5.827  18.550  0.00  0.00    +0.000 NA
ATOM      7  H   UNL     1       6.644   5.215  19.353  0.00  0.00    +0.000 HD
BRANCH   6   8
ATOM      8  C   UNL     1       8.006   6.649  18.726  0.00  0.00    +0.000 C 
BRANCH   8   9
ATOM      9  C   UNL     1       7.953   7.912  17.868  0.00  0.00    +0.000 C 
BRANCH   9  10
ATOM     10  C   UNL     1       8.488   9.089  18.690  0.00  0.00    +0.000 C 
BRANCH  10  11
ATOM     11  C   UNL     1       8.860  10.307  17.848  0.00  0.00    +0.000 C 
BRANCH  11  12
ATOM     12  C   UNL     1       9.371  11.432  18.757  0.00  0.00    +0.000 C 
BRANCH  12  13
ATOM     13  C   UNL     1       9.582  10.967  20.200  0.00  0.00    +0.000 C 
BRANCH  13  14
ATOM     14  C   UNL     1       9.347  12.088  21.186  0.00  0.00    +0.000 A 
ATOM     15  C   UNL     1       9.964  13.333  20.999  0.00  0.00    +0.000 A 
ATOM     16  C   UNL     1       9.778  14.364  21.920  0.00  0.00    +0.000 A 
ATOM     17  C   UNL     1       8.977  14.162  23.042  0.00  0.00    +0.000 A 
ATOM     18  C   UNL     1       8.355  12.930  23.237  0.00  0.00    +0.000 A 
ATOM     19  C   UNL     1       8.540  11.896  22.315  0.00  0.00    +0.000 A 
ENDBRANCH  13  14
ENDBRANCH  12  13
ENDBRANCH  11  12
ENDBRANCH  10  11
ENDBRANCH   9  10
ENDBRANCH   8   9
ENDBRANCH   6   8
ENDBRANCH   3   6
ENDBRANCH   1   3
BRANCH   1  21
ATOM     20  O   UNL     1       4.470   4.362  19.516  0.00  0.00    +0.000 OA
ATOM     21  S   UNL     1       4.260   4.334  18.091  0.00  0.00    +0.000 S 
ATOM     22  O   UNL     1       3.089   3.776  17.465  0.00  0.00    +0.000 OA
BRANCH  21  23
ATOM     23  N   UNL     1       4.275   5.964  17.586  0.00  0.00    +0.000 NA
ATOM     24  H   UNL     1       4.553   5.992  16.605  0.00  0.00    +0.000 HD
BRANCH  23  25
ATOM     25  C   UNL     1       2.923   6.574  17.758  0.00  0.00    +0.000 C 
BRANCH  25  26
ATOM     26  C   UNL     1       3.029   8.058  18.095  0.00  0.00    +0.000 C 
BRANCH  26  27
ATOM     27  C   UNL     1       1.834   8.480  18.956  0.00  0.00    +0.000 C 
BRANCH  27  28
ATOM     28  C   UNL     1       1.808   7.774  20.312  0.00  0.00    +0.000 C 
BRANCH  28  29
ATOM     29  C   UNL     1       1.574   8.781  21.443  0.00  0.00    +0.000 C 
BRANCH  29  30
ATOM     30  C   UNL     1       0.115   8.789  21.906  0.00  0.00    +0.000 C 
BRANCH  30  31
ATOM     31  C   UNL     1      -0.457  10.186  21.943  0.00  0.00    +0.000 A 
ATOM     32  C   UNL     1      -0.240  11.084  20.890  0.00  0.00    +0.000 A 
ATOM     33  C   UNL     1      -0.743  12.385  20.951  0.00  0.00    +0.000 A 
ATOM     34  C   UNL     1      -1.466  12.804  22.065  0.00  0.00    +0.000 A 
ATOM     35  C   UNL     1      -1.695  11.918  23.115  0.00  0.00    +0.000 A 
ATOM     36  C   UNL     1      -1.192  10.617  23.056  0.00  0.00    +0.000 A 
ENDBRANCH  30  31
ENDBRANCH  29  30
ENDBRANCH  28  29
ENDBRANCH  27  28
ENDBRANCH  26  27
ENDBRANCH  25  26
ENDBRANCH  23  25
ENDBRANCH  21  23
ENDBRANCH   1  21
TORSDOF 18
ENDMDL
MODEL 9
REMARK VINA RESULT:      -6.9      4.305      6.912
REMARK  Name = 
REMARK  18 active torsions:
REMARK  status: ('A' for Active; 'I' for Inactive)
REMARK    1  A    between atoms: S_2  and  N_4
REMARK    2  A    between atoms: S_2  and  N_17
REMARK    3  A    between atoms: N_4  and  C_5
REMARK    4  A    between atoms: C_5  and  C_6
REMARK    5  A    between atoms: C_6  and  C_7
REMARK    6  A    between atoms: C_7  and  C_8
REMARK    7  A    between atoms: C_8  and  C_9
REMARK    8  A    between atoms: C_9  and  C_10
REMARK    9  A    between atoms: C_10  and  C_11
REMARK   10  A    between atoms: N_17  and  S_18
REMARK   11  A    between atoms: S_18  and  N_21
REMARK   12  A    between atoms: N_21  and  C_22
REMARK   13  A    between atoms: C_22  and  C_23
REMARK   14  A    between atoms: C_23  and  C_24
REMARK   15  A    between atoms: C_24  and  C_25
REMARK   16  A    between atoms: C_25  and  C_26
REMARK   17  A    between atoms: C_26  and  C_27
REMARK   18  A    between atoms: C_27  and  C_28
REMARK                            x       y       z     vdW  Elec       q    Type
REMARK                         _______ _______ _______ _____ _____    ______ ____
ROOT
ATOM      1  N   UNL     1       4.663   3.446  18.370  0.00  0.00    +0.000 NA
ATOM      2  H   UNL     1       5.195   2.722  17.905  0.00  0.00    +0.000 HD
ENDROOT
BRANCH   1   3
ATOM      3  S   UNL     1       4.033   2.756  19.729  0.00  0.00    +0.000 S 
ATOM      4  O   UNL     1       2.863   2.021  19.293  0.00  0.00    +0.000 OA
ATOM      5  O   UNL     1       5.057   2.095  20.487  0.00  0.00    +0.000 OA
BRANCH   3   6
ATOM      6  N   UNL     1       3.448   4.058  20.617  0.00  0.00    +0.000 NA
ATOM      7  H   UNL     1       3.632   4.929  20.122  0.00  0.00    +0.000 HD
BRANCH   6   8
ATOM      8  C   UNL     1       2.003   3.925  20.923  0.00  0.00    +0.000 C 
BRANCH   8   9
ATOM      9  C   UNL     1       1.191   5.038  20.263  0.00  0.00    +0.000 C 
BRANCH   9  10
ATOM     10  C   UNL     1       1.742   6.390  20.728  0.00  0.00    +0.000 C 
BRANCH  10  11
ATOM     11  C   UNL     1       0.660   7.435  20.992  0.00  0.00    +0.000 C 
BRANCH  11  12
ATOM     12  C   UNL     1       1.237   8.581  21.832  0.00  0.00    +0.000 C 
BRANCH  12  13
ATOM     13  C   UNL     1       0.164   9.309  22.644  0.00  0.00    +0.000 C 
BRANCH  13  14
ATOM     14  C   UNL     1      -0.003  10.741  22.191  0.00  0.00    +0.000 A 
ATOM     15  C   UNL     1       0.958  11.334  21.360  0.00  0.00    +0.000 A 
ATOM     16  C   UNL     1       0.830  12.665  20.962  0.00  0.00    +0.000 A 
ATOM     17  C   UNL     1      -0.259  13.420  21.392  0.00  0.00    +0.000 A 
ATOM     18  C   UNL     1      -1.223  12.841  22.215  0.00  0.00    +0.000 A 
ATOM     19  C   UNL     1      -1.096  11.508  22.615  0.00  0.00    +0.000 A 
ENDBRANCH  13  14
ENDBRANCH  12  13
ENDBRANCH  11  12
ENDBRANCH  10  11
ENDBRANCH   9  10
ENDBRANCH   8   9
ENDBRANCH   6   8
ENDBRANCH   3   6
ENDBRANCH   1   3
BRANCH   1  21
ATOM     20  O   UNL     1       7.009   4.329  18.707  0.00  0.00    +0.000 OA
ATOM     21  S   UNL     1       5.635   4.748  18.587  0.00  0.00    +0.000 S 
ATOM     22  O   UNL     1       5.009   5.700  19.469  0.00  0.00    +0.000 OA
BRANCH  21  23
ATOM     23  N   UNL     1       5.496   5.449  17.038  0.00  0.00    +0.000 NA
ATOM     24  H   UNL     1       4.680   5.046  16.577  0.00  0.00    +0.000 HD
BRANCH  23  25
ATOM     25  C   UNL     1       5.348   6.930  17.148  0.00  0.00    +0.000 C 
BRANCH  25  26
ATOM     26  C   UNL     1       4.023   7.396  16.554  0.00  0.00    +0.000 C 
BRANCH  26  27
ATOM     27  C   UNL     1       2.931   7.358  17.628  0.00  0.00    +0.000 C 
BRANCH  27  28
ATOM     28  C   UNL     1       2.471   8.754  18.048  0.00  0.00    +0.000 C 
BRANCH  28  29
ATOM     29  C   UNL     1       0.989   8.960  17.715  0.00  0.00    +0.000 C 
BRANCH  29  30
ATOM     30  C   UNL     1       0.489  10.334  18.170  0.00  0.00    +0.000 C 
BRANCH  30  31
ATOM     31  C   UNL     1      -1.005  10.473  18.000  0.00  0.00    +0.000 A 
ATOM     32  C   UNL     1      -1.694   9.733  17.031  0.00  0.00    +0.000 A 
ATOM     33  C   UNL     1      -3.070   9.896  16.860  0.00  0.00    +0.000 A 
ATOM     34  C   UNL     1      -3.772  10.801  17.653  0.00  0.00    +0.000 A 
ATOM     35  C   UNL     1      -3.099  11.536  18.625  0.00  0.00    +0.000 A 
ATOM     36  C   UNL     1      -1.723  11.375  18.798  0.00  0.00    +0.000 A 
ENDBRANCH  30  31
ENDBRANCH  29  30
ENDBRANCH  28  29
ENDBRANCH  27  28
ENDBRANCH  26  27
ENDBRANCH  25  26
ENDBRANCH  23  25
ENDBRANCH  21  23
ENDBRANCH   1  21
TORSDOF 18
ENDMDL
