MODEL 1
REMARK VINA RESULT:      -8.3      0.000      0.000
REMARK  Name = 
REMARK  10 active torsions:
REMARK  status: ('A' for Active; 'I' for Inactive)
REMARK    1  A    between atoms: C_1  and  C_2
REMARK    2  A    between atoms: C_5  and  S_6
REMARK    3  A    between atoms: S_6  and  N_9
REMARK    4  A    between atoms: N_9  and  C_10
REMARK    5  A    between atoms: C_10  and  C_11
REMARK    6  A    between atoms: C_11  and  O_13
REMARK    7  A    between atoms: O_13  and  C_14
REMARK    8  A    between atoms: C_14  and  C_15
REMARK    9  A    between atoms: C_18  and  C_19
REMARK   10  A    between atoms: C_27  and  C_28
REMARK                            x       y       z     vdW  Elec       q    Type
REMARK                         _______ _______ _______ _____ _____    ______ ____
ROOT
ATOM      1  C   UNL     1       5.882   4.328  19.151  0.00  0.00    +0.000 C 
ATOM      2  O   UNL     1       6.405   5.213  19.829  0.00  0.00    +0.000 OA
ENDROOT
BRANCH   1   3
ATOM      3  C   UNL     1       4.804   3.390  19.674  0.00  0.00    +0.000 C 
BRANCH   3   4
ATOM      4  N   UNL     1       4.054   2.680  18.637  0.00  0.00    +0.000 NA
ATOM      5  H   UNL     1       4.519   2.495  17.746  0.00  0.00    +0.000 HD
BRANCH   4   6
ATOM      6  S   UNL     1       2.381   2.870  18.553  0.00  0.00    +0.000 S 
ATOM      7  O   UNL     1       1.796   1.948  19.498  0.00  0.00    +0.000 OA
ATOM      8  O   UNL     1       2.053   2.849  17.146  0.00  0.00    +0.000 OA
BRANCH   6  13
ATOM      9  C   UNL     1       1.478   8.691  20.070  0.00  0.00    +0.000 C 
ATOM     10  C   UNL     1       1.803   7.231  19.877  0.00  0.00    +0.000 A 
ATOM     11  C   UNL     1       1.508   6.205  20.788  0.00  0.00    +0.000 A 
ATOM     12  C   UNL     1       1.725   4.858  20.434  0.00  0.00    +0.000 A 
ATOM     13  C   UNL     1       2.122   4.531  19.144  0.00  0.00    +0.000 A 
ATOM     14  C   UNL     1       2.412   5.543  18.247  0.00  0.00    +0.000 A 
ATOM     15  C   UNL     1       2.390   6.875  18.678  0.00  0.00    +0.000 A 
ATOM     16  C   UNL     1       3.037   7.942  17.858  0.00  0.00    +0.000 C 
ENDBRANCH   6  13
ENDBRANCH   4   6
ENDBRANCH   3   4
ENDBRANCH   1   3
BRANCH   1  17
ATOM     17  O   UNL     1       5.986   4.213  17.794  0.00  0.00    +0.000 OA
BRANCH  17  18
ATOM     18  C   UNL     1       5.796   5.447  17.069  0.00  0.00    +0.000 C 
BRANCH  18  19
ATOM     19  C   UNL     1       6.455   5.275  15.732  0.00  0.00    +0.000 A 
ATOM     20  N   UNL     1       7.545   5.845  15.267  0.00  0.00    +0.000 NA
ATOM     21  N   UNL     1       7.789   5.293  14.018  0.00  0.00    +0.000 NA
ATOM     22  C   UNL     1       6.847   4.396  13.787  0.00  0.00    +0.000 A 
ATOM     23  O   UNL     1       5.927   4.363  14.829  0.00  0.00    +0.000 OA
BRANCH  22  24
ATOM     24  C   UNL     1       6.519   3.649  12.537  0.00  0.00    +0.000 A 
ATOM     25  C   UNL     1       5.178   3.295  12.241  0.00  0.00    +0.000 A 
ATOM     26  C   UNL     1       4.876   2.231  11.358  0.00  0.00    +0.000 A 
ATOM     27  C   UNL     1       5.903   1.491  10.766  0.00  0.00    +0.000 A 
ATOM     28  C   UNL     1       7.225   1.869  10.988  0.00  0.00    +0.000 A 
ATOM     29  C   UNL     1       7.525   2.972  11.818  0.00  0.00    +0.000 A 
ENDBRANCH  22  24
ENDBRANCH  18  19
ENDBRANCH  17  18
ENDBRANCH   1  17
TORSDOF 8
ENDMDL
MODEL 2
REMARK VINA RESULT:      -8.2      1.470      2.250
REMARK  Name = 
REMARK  10 active torsions:
REMARK  status: ('A' for Active; 'I' for Inactive)
REMARK    1  A    between atoms: C_1  and  C_2
REMARK    2  A    between atoms: C_5  and  S_6
REMARK    3  A    between atoms: S_6  and  N_9
REMARK    4  A    between atoms: N_9  and  C_10
REMARK    5  A    between atoms: C_10  and  C_11
REMARK    6  A    between atoms: C_11  and  O_13
REMARK    7  A    between atoms: O_13  and  C_14
REMARK    8  A    between atoms: C_14  and  C_15
REMARK    9  A    between atoms: C_18  and  C_19
REMARK   10  A    between atoms: C_27  and  C_28
REMARK                            x       y       z     vdW  Elec       q    Type
REMARK                         _______ _______ _______ _____ _____    ______ ____
ROOT
ATOM      1  C   UNL     1       4.669   2.457  19.893  0.00  0.00    +0.000 C 
ATOM      2  O   UNL     1       4.358   2.440  21.084  0.00  0.00    +0.000 OA
ENDROOT
BRANCH   1   3
ATOM      3  C   UNL     1       3.894   1.726  18.807  0.00  0.00    +0.000 C 
BRANCH   3   4
ATOM      4  N   UNL     1       2.444   1.689  19.008  0.00  0.00    +0.000 NA
ATOM      5  H   UNL     1       2.017   0.800  19.277  0.00  0.00    +0.000 HD
BRANCH   4   6
ATOM      6  S   UNL     1       1.460   2.720  18.109  0.00  0.00    +0.000 S 
ATOM      7  O   UNL     1       0.107   2.226  18.217  0.00  0.00    +0.000 OA
ATOM      8  O   UNL     1       2.124   2.889  16.837  0.00  0.00    +0.000 OA
BRANCH   6  13
ATOM      9  C   UNL     1       1.720   8.241  20.650  0.00  0.00    +0.000 C 
ATOM     10  C   UNL     1       1.794   6.815  20.166  0.00  0.00    +0.000 A 
ATOM     11  C   UNL     1       1.597   5.675  20.961  0.00  0.00    +0.000 A 
ATOM     12  C   UNL     1       1.544   4.398  20.368  0.00  0.00    +0.000 A 
ATOM     13  C   UNL     1       1.571   4.268  18.986  0.00  0.00    +0.000 A 
ATOM     14  C   UNL     1       1.765   5.392  18.204  0.00  0.00    +0.000 A 
ATOM     15  C   UNL     1       2.022   6.624  18.818  0.00  0.00    +0.000 A 
ATOM     16  C   UNL     1       2.586   7.757  18.024  0.00  0.00    +0.000 C 
ENDBRANCH   6  13
ENDBRANCH   4   6
ENDBRANCH   3   4
ENDBRANCH   1   3
BRANCH   1  17
ATOM     17  O   UNL     1       5.571   3.314  19.328  0.00  0.00    +0.000 OA
BRANCH  17  18
ATOM     18  C   UNL     1       5.162   4.699  19.321  0.00  0.00    +0.000 C 
BRANCH  18  19
ATOM     19  C   UNL     1       5.527   5.256  17.976  0.00  0.00    +0.000 A 
ATOM     20  N   UNL     1       5.502   6.504  17.564  0.00  0.00    +0.000 NA
ATOM     21  N   UNL     1       6.012   6.514  16.275  0.00  0.00    +0.000 NA
ATOM     22  C   UNL     1       6.345   5.273  15.967  0.00  0.00    +0.000 A 
ATOM     23  O   UNL     1       6.017   4.402  16.999  0.00  0.00    +0.000 OA
BRANCH  22  24
ATOM     24  C   UNL     1       6.760   4.687  14.659  0.00  0.00    +0.000 A 
ATOM     25  C   UNL     1       7.712   5.349  13.843  0.00  0.00    +0.000 A 
ATOM     26  C   UNL     1       7.788   5.101  12.452  0.00  0.00    +0.000 A 
ATOM     27  C   UNL     1       6.909   4.199  11.846  0.00  0.00    +0.000 A 
ATOM     28  C   UNL     1       6.016   3.485  12.641  0.00  0.00    +0.000 A 
ATOM     29  C   UNL     1       5.984   3.686  14.039  0.00  0.00    +0.000 A 
ENDBRANCH  22  24
ENDBRANCH  18  19
ENDBRANCH  17  18
ENDBRANCH   1  17
TORSDOF 8
ENDMDL
MODEL 3
REMARK VINA RESULT:      -7.9      4.877      6.922
REMARK  Name = 
REMARK  10 active torsions:
REMARK  status: ('A' for Active; 'I' for Inactive)
REMARK    1  A    between atoms: C_1  and  C_2
REMARK    2  A    between atoms: C_5  and  S_6
REMARK    3  A    between atoms: S_6  and  N_9
REMARK    4  A    between atoms: N_9  and  C_10
REMARK    5  A    between atoms: C_10  and  C_11
REMARK    6  A    between atoms: C_11  and  O_13
REMARK    7  A    between atoms: O_13  and  C_14
REMARK    8  A    between atoms: C_14  and  C_15
REMARK    9  A    between atoms: C_18  and  C_19
REMARK   10  A    between atoms: C_27  and  C_28
REMARK                            x       y       z     vdW  Elec       q    Type
REMARK                         _______ _______ _______ _____ _____    ______ ____
ROOT
ATOM      1  C   UNL     1       7.407   5.061  17.412  0.00  0.00    +0.000 C 
ATOM      2  O   UNL     1       7.938   4.116  16.828  0.00  0.00    +0.000 OA
ENDROOT
BRANCH   1   3
ATOM      3  C   UNL     1       6.436   4.898  18.572  0.00  0.00    +0.000 C 
BRANCH   3   4
ATOM      4  N   UNL     1       5.684   3.642  18.570  0.00  0.00    +0.000 NA
ATOM      5  H   UNL     1       6.206   2.768  18.494  0.00  0.00    +0.000 HD
BRANCH   4   6
ATOM      6  S   UNL     1       4.128   3.614  17.923  0.00  0.00    +0.000 S 
ATOM      7  O   UNL     1       3.519   2.367  18.322  0.00  0.00    +0.000 OA
ATOM      8  O   UNL     1       4.271   3.998  16.537  0.00  0.00    +0.000 OA
BRANCH   6  13
ATOM      9  C   UNL     1       1.158   8.337  20.346  0.00  0.00    +0.000 C 
ATOM     10  C   UNL     1       2.018   7.176  19.915  0.00  0.00    +0.000 A 
ATOM     11  C   UNL     1       2.297   6.039  20.689  0.00  0.00    +0.000 A 
ATOM     12  C   UNL     1       2.990   4.950  20.124  0.00  0.00    +0.000 A 
ATOM     13  C   UNL     1       3.301   4.946  18.771  0.00  0.00    +0.000 A 
ATOM     14  C   UNL     1       3.025   6.067  18.009  0.00  0.00    +0.000 A 
ATOM     15  C   UNL     1       2.524   7.217  18.631  0.00  0.00    +0.000 A 
ATOM     16  C   UNL     1       2.560   8.532  17.922  0.00  0.00    +0.000 C 
ENDBRANCH   6  13
ENDBRANCH   4   6
ENDBRANCH   3   4
ENDBRANCH   1   3
BRANCH   1  17
ATOM     17  O   UNL     1       7.787   6.369  17.299  0.00  0.00    +0.000 OA
BRANCH  17  18
ATOM     18  C   UNL     1       8.065   7.025  18.555  0.00  0.00    +0.000 C 
BRANCH  18  19
ATOM     19  C   UNL     1       8.255   8.483  18.253  0.00  0.00    +0.000 A 
ATOM     20  N   UNL     1       7.606   9.241  17.396  0.00  0.00    +0.000 NA
ATOM     21  N   UNL     1       8.090  10.531  17.552  0.00  0.00    +0.000 NA
ATOM     22  C   UNL     1       8.997  10.505  18.512  0.00  0.00    +0.000 A 
ATOM     23  O   UNL     1       9.188   9.209  18.979  0.00  0.00    +0.000 OA
BRANCH  22  24
ATOM     24  C   UNL     1       9.957  11.559  18.956  0.00  0.00    +0.000 A 
ATOM     25  C   UNL     1      10.112  12.752  18.206  0.00  0.00    +0.000 A 
ATOM     26  C   UNL     1      11.286  13.537  18.308  0.00  0.00    +0.000 A 
ATOM     27  C   UNL     1      12.331  13.140  19.146  0.00  0.00    +0.000 A 
ATOM     28  C   UNL     1      12.167  12.010  19.945  0.00  0.00    +0.000 A 
ATOM     29  C   UNL     1      10.969  11.263  19.892  0.00  0.00    +0.000 A 
ENDBRANCH  22  24
ENDBRANCH  18  19
ENDBRANCH  17  18
ENDBRANCH   1  17
TORSDOF 8
ENDMDL
MODEL 4
REMARK VINA RESULT:      -7.8      4.573      6.863
REMARK  Name = 
REMARK  10 active torsions:
REMARK  status: ('A' for Active; 'I' for Inactive)
REMARK    1  A    between atoms: C_1  and  C_2
REMARK    2  A    between atoms: C_5  and  S_6
REMARK    3  A    between atoms: S_6  and  N_9
REMARK    4  A    between atoms: N_9  and  C_10
REMARK    5  A    between atoms: C_10  and  C_11
REMARK    6  A    between atoms: C_11  and  O_13
REMARK    7  A    between atoms: O_13  and  C_14
REMARK    8  A    between atoms: C_14  and  C_15
REMARK    9  A    between atoms: C_18  and  C_19
REMARK   10  A    between atoms: C_27  and  C_28
REMARK                            x       y       z     vdW  Elec       q    Type
REMARK                         _______ _______ _______ _____ _____    ______ ____
ROOT
ATOM      1  C   UNL     1       6.444   5.554  16.766  0.00  0.00    +0.000 C 
ATOM      2  O   UNL     1       6.681   5.997  15.642  0.00  0.00    +0.000 OA
ENDROOT
BRANCH   1   3
ATOM      3  C   UNL     1       6.383   4.069  17.093  0.00  0.00    +0.000 C 
BRANCH   3   4
ATOM      4  N   UNL     1       5.564   3.731  18.258  0.00  0.00    +0.000 NA
ATOM      5  H   UNL     1       6.000   3.210  19.020  0.00  0.00    +0.000 HD
BRANCH   4   6
ATOM      6  S   UNL     1       3.911   3.465  18.055  0.00  0.00    +0.000 S 
ATOM      7  O   UNL     1       3.572   2.275  18.799  0.00  0.00    +0.000 OA
ATOM      8  O   UNL     1       3.664   3.589  16.637  0.00  0.00    +0.000 OA
BRANCH   6  13
ATOM      9  C   UNL     1       1.222   8.429  20.320  0.00  0.00    +0.000 C 
ATOM     10  C   UNL     1       2.012   7.206  19.928  0.00  0.00    +0.000 A 
ATOM     11  C   UNL     1       2.224   6.080  20.738  0.00  0.00    +0.000 A 
ATOM     12  C   UNL     1       2.853   4.935  20.210  0.00  0.00    +0.000 A 
ATOM     13  C   UNL     1       3.163   4.870  18.858  0.00  0.00    +0.000 A 
ATOM     14  C   UNL     1       2.954   5.980  18.061  0.00  0.00    +0.000 A 
ATOM     15  C   UNL     1       2.521   7.177  18.644  0.00  0.00    +0.000 A 
ATOM     16  C   UNL     1       2.634   8.464  17.894  0.00  0.00    +0.000 C 
ENDBRANCH   6  13
ENDBRANCH   4   6
ENDBRANCH   3   4
ENDBRANCH   1   3
BRANCH   1  17
ATOM     17  O   UNL     1       6.456   6.287  17.919  0.00  0.00    +0.000 OA
BRANCH  17  18
ATOM     18  C   UNL     1       7.769   6.506  18.478  0.00  0.00    +0.000 C 
BRANCH  18  19
ATOM     19  C   UNL     1       8.101   7.954  18.264  0.00  0.00    +0.000 A 
ATOM     20  N   UNL     1       7.650   8.777  17.343  0.00  0.00    +0.000 NA
ATOM     21  N   UNL     1       8.187  10.026  17.620  0.00  0.00    +0.000 NA
ATOM     22  C   UNL     1       8.924   9.911  18.710  0.00  0.00    +0.000 A 
ATOM     23  O   UNL     1       8.951   8.594  19.154  0.00  0.00    +0.000 OA
BRANCH  22  24
ATOM     24  C   UNL     1       9.867  10.882  19.338  0.00  0.00    +0.000 A 
ATOM     25  C   UNL     1       9.650  11.344  20.661  0.00  0.00    +0.000 A 
ATOM     26  C   UNL     1      10.211  12.560  21.117  0.00  0.00    +0.000 A 
ATOM     27  C   UNL     1      10.986  13.346  20.260  0.00  0.00    +0.000 A 
ATOM     28  C   UNL     1      11.271  12.875  18.980  0.00  0.00    +0.000 A 
ATOM     29  C   UNL     1      10.764  11.629  18.547  0.00  0.00    +0.000 A 
ENDBRANCH  22  24
ENDBRANCH  18  19
ENDBRANCH  17  18
ENDBRANCH   1  17
TORSDOF 8
ENDMDL
MODEL 5
REMARK VINA RESULT:      -7.7      3.205      5.537
REMARK  Name = 
REMARK  10 active torsions:
REMARK  status: ('A' for Active; 'I' for Inactive)
REMARK    1  A    between atoms: C_1  and  C_2
REMARK    2  A    between atoms: C_5  and  S_6
REMARK    3  A    between atoms: S_6  and  N_9
REMARK    4  A    between atoms: N_9  and  C_10
REMARK    5  A    between atoms: C_10  and  C_11
REMARK    6  A    between atoms: C_11  and  O_13
REMARK    7  A    between atoms: O_13  and  C_14
REMARK    8  A    between atoms: C_14  and  C_15
REMARK    9  A    between atoms: C_18  and  C_19
REMARK   10  A    between atoms: C_27  and  C_28
REMARK                            x       y       z     vdW  Elec       q    Type
REMARK                         _______ _______ _______ _____ _____    ______ ____
ROOT
ATOM      1  C   UNL     1       5.969   6.745  16.394  0.00  0.00    +0.000 C 
ATOM      2  O   UNL     1       6.856   7.493  16.807  0.00  0.00    +0.000 OA
ENDROOT
BRANCH   1   3
ATOM      3  C   UNL     1       4.486   6.976  16.642  0.00  0.00    +0.000 C 
BRANCH   3   4
ATOM      4  N   UNL     1       4.152   7.411  17.999  0.00  0.00    +0.000 NA
ATOM      5  H   UNL     1       4.917   7.660  18.629  0.00  0.00    +0.000 HD
BRANCH   4   6
ATOM      6  S   UNL     1       2.773   6.794  18.748  0.00  0.00    +0.000 S 
ATOM      7  O   UNL     1       3.192   6.196  19.994  0.00  0.00    +0.000 OA
ATOM      8  O   UNL     1       2.072   6.049  17.728  0.00  0.00    +0.000 OA
BRANCH   6  13
ATOM      9  C   UNL     1      -0.388  11.689  20.493  0.00  0.00    +0.000 C 
ATOM     10  C   UNL     1       0.261  10.463  19.901  0.00  0.00    +0.000 A 
ATOM     11  C   UNL     1       0.698  10.336  18.574  0.00  0.00    +0.000 A 
ATOM     12  C   UNL     1       1.425   9.197  18.173  0.00  0.00    +0.000 A 
ATOM     13  C   UNL     1       1.811   8.250  19.112  0.00  0.00    +0.000 A 
ATOM     14  C   UNL     1       1.380   8.376  20.419  0.00  0.00    +0.000 A 
ATOM     15  C   UNL     1       0.488   9.402  20.755  0.00  0.00    +0.000 A 
ATOM     16  C   UNL     1      -0.267   9.351  22.043  0.00  0.00    +0.000 C 
ENDBRANCH   6  13
ENDBRANCH   4   6
ENDBRANCH   3   4
ENDBRANCH   1   3
BRANCH   1  17
ATOM     17  O   UNL     1       6.141   5.766  15.457  0.00  0.00    +0.000 OA
BRANCH  17  18
ATOM     18  C   UNL     1       6.845   4.597  15.929  0.00  0.00    +0.000 C 
BRANCH  18  19
ATOM     19  C   UNL     1       6.239   4.226  17.251  0.00  0.00    +0.000 A 
ATOM     20  N   UNL     1       6.740   4.368  18.458  0.00  0.00    +0.000 NA
ATOM     21  N   UNL     1       5.763   3.956  19.352  0.00  0.00    +0.000 NA
ATOM     22  C   UNL     1       4.702   3.601  18.648  0.00  0.00    +0.000 A 
ATOM     23  O   UNL     1       4.954   3.705  17.285  0.00  0.00    +0.000 OA
BRANCH  22  24
ATOM     24  C   UNL     1       3.450   2.912  19.080  0.00  0.00    +0.000 A 
ATOM     25  C   UNL     1       2.399   2.685  18.157  0.00  0.00    +0.000 A 
ATOM     26  C   UNL     1       1.069   2.475  18.594  0.00  0.00    +0.000 A 
ATOM     27  C   UNL     1       0.760   2.502  19.956  0.00  0.00    +0.000 A 
ATOM     28  C   UNL     1       1.791   2.652  20.881  0.00  0.00    +0.000 A 
ATOM     29  C   UNL     1       3.127   2.796  20.448  0.00  0.00    +0.000 A 
ENDBRANCH  22  24
ENDBRANCH  18  19
ENDBRANCH  17  18
ENDBRANCH   1  17
TORSDOF 8
ENDMDL
MODEL 6
REMARK VINA RESULT:      -7.7      2.943      4.715
REMARK  Name = 
REMARK  10 active torsions:
REMARK  status: ('A' for Active; 'I' for Inactive)
REMARK    1  A    between atoms: C_1  and  C_2
REMARK    2  A    between atoms: C_5  and  S_6
REMARK    3  A    between atoms: S_6  and  N_9
REMARK    4  A    between atoms: N_9  and  C_10
REMARK    5  A    between atoms: C_10  and  C_11
REMARK    6  A    between atoms: C_11  and  O_13
REMARK    7  A    between atoms: O_13  and  C_14
REMARK    8  A    between atoms: C_14  and  C_15
REMARK    9  A    between atoms: C_18  and  C_19
REMARK   10  A    between atoms: C_27  and  C_28
REMARK                            x       y       z     vdW  Elec       q    Type
REMARK                         _______ _______ _______ _____ _____    ______ ____
ROOT
ATOM      1  C   UNL     1       1.849   3.005  21.630  0.00  0.00    +0.000 C 
ATOM      2  O   UNL     1       1.150   2.315  22.373  0.00  0.00    +0.000 OA
ENDROOT
BRANCH   1   3
ATOM      3  C   UNL     1       1.312   4.162  20.801  0.00  0.00    +0.000 C 
BRANCH   3   4
ATOM      4  N   UNL     1       2.108   5.389  20.873  0.00  0.00    +0.000 NA
ATOM      5  H   UNL     1       1.958   6.015  21.666  0.00  0.00    +0.000 HD
BRANCH   4   6
ATOM      6  S   UNL     1       2.602   6.136  19.445  0.00  0.00    +0.000 S 
ATOM      7  O   UNL     1       1.934   5.465  18.355  0.00  0.00    +0.000 OA
ATOM      8  O   UNL     1       4.042   6.232  19.529  0.00  0.00    +0.000 OA
BRANCH   6  13
ATOM      9  C   UNL     1       0.404  11.717  20.454  0.00  0.00    +0.000 C 
ATOM     10  C   UNL     1       0.829  10.333  20.032  0.00  0.00    +0.000 A 
ATOM     11  C   UNL     1       1.342   9.988  18.772  0.00  0.00    +0.000 A 
ATOM     12  C   UNL     1       1.844   8.692  18.542  0.00  0.00    +0.000 A 
ATOM     13  C   UNL     1       1.941   7.785  19.589  0.00  0.00    +0.000 A 
ATOM     14  C   UNL     1       1.435   8.126  20.830  0.00  0.00    +0.000 A 
ATOM     15  C   UNL     1       0.754   9.339  20.988  0.00  0.00    +0.000 A 
ATOM     16  C   UNL     1      -0.104   9.569  22.189  0.00  0.00    +0.000 C 
ENDBRANCH   6  13
ENDBRANCH   4   6
ENDBRANCH   3   4
ENDBRANCH   1   3
BRANCH   1  17
ATOM     17  O   UNL     1       3.215   3.020  21.627  0.00  0.00    +0.000 OA
BRANCH  17  18
ATOM     18  C   UNL     1       3.827   1.914  20.928  0.00  0.00    +0.000 C 
BRANCH  18  19
ATOM     19  C   UNL     1       3.765   2.234  19.463  0.00  0.00    +0.000 A 
ATOM     20  N   UNL     1       2.902   1.819  18.562  0.00  0.00    +0.000 NA
ATOM     21  N   UNL     1       3.218   2.462  17.375  0.00  0.00    +0.000 NA
ATOM     22  C   UNL     1       4.247   3.257  17.612  0.00  0.00    +0.000 A 
ATOM     23  O   UNL     1       4.681   3.127  18.926  0.00  0.00    +0.000 OA
BRANCH  22  24
ATOM     24  C   UNL     1       5.102   4.029  16.663  0.00  0.00    +0.000 A 
ATOM     25  C   UNL     1       4.873   5.412  16.450  0.00  0.00    +0.000 A 
ATOM     26  C   UNL     1       5.319   6.058  15.272  0.00  0.00    +0.000 A 
ATOM     27  C   UNL     1       5.988   5.336  14.280  0.00  0.00    +0.000 A 
ATOM     28  C   UNL     1       6.286   3.994  14.503  0.00  0.00    +0.000 A 
ATOM     29  C   UNL     1       5.898   3.365  15.707  0.00  0.00    +0.000 A 
ENDBRANCH  22  24
ENDBRANCH  18  19
ENDBRANCH  17  18
ENDBRANCH   1  17
TORSDOF 8
ENDMDL
MODEL 7
REMARK VINA RESULT:      -7.6      4.742      7.010
REMARK  Name = 
REMARK  10 active torsions:
REMARK  status: ('A' for Active; 'I' for Inactive)
REMARK    1  A    between atoms: C_1  and  C_2
REMARK    2  A    between atoms: C_5  and  S_6
REMARK    3  A    between atoms: S_6  and  N_9
REMARK    4  A    between atoms: N_9  and  C_10
REMARK    5  A    between atoms: C_10  and  C_11
REMARK    6  A    between atoms: C_11  and  O_13
REMARK    7  A    between atoms: O_13  and  C_14
REMARK    8  A    between atoms: C_14  and  C_15
REMARK    9  A    between atoms: C_18  and  C_19
REMARK   10  A    between atoms: C_27  and  C_28
REMARK                            x       y       z     vdW  Elec       q    Type
REMARK                         _______ _______ _______ _____ _____    ______ ____
ROOT
ATOM      1  C   UNL     1       7.347   5.500  18.055  0.00  0.00    +0.000 C 
ATOM      2  O   UNL     1       7.897   4.714  17.284  0.00  0.00    +0.000 OA
ENDROOT
BRANCH   1   3
ATOM      3  C   UNL     1       6.165   5.129  18.939  0.00  0.00    +0.000 C 
BRANCH   3   4
ATOM      4  N   UNL     1       5.619   3.792  18.702  0.00  0.00    +0.000 NA
ATOM      5  H   UNL     1       6.256   3.060  18.381  0.00  0.00    +0.000 HD
BRANCH   4   6
ATOM      6  S   UNL     1       4.020   3.632  18.191  0.00  0.00    +0.000 S 
ATOM      7  O   UNL     1       3.490   2.438  18.805  0.00  0.00    +0.000 OA
ATOM      8  O   UNL     1       4.044   3.822  16.759  0.00  0.00    +0.000 OA
BRANCH   6  13
ATOM      9  C   UNL     1       1.145   8.618  20.159  0.00  0.00    +0.000 C 
ATOM     10  C   UNL     1       1.972   7.397  19.846  0.00  0.00    +0.000 A 
ATOM     11  C   UNL     1       2.158   6.300  20.701  0.00  0.00    +0.000 A 
ATOM     12  C   UNL     1       2.831   5.149  20.242  0.00  0.00    +0.000 A 
ATOM     13  C   UNL     1       3.211   5.048  18.910  0.00  0.00    +0.000 A 
ATOM     14  C   UNL     1       3.027   6.130  18.069  0.00  0.00    +0.000 A 
ATOM     15  C   UNL     1       2.547   7.337  18.592  0.00  0.00    +0.000 A 
ATOM     16  C   UNL     1       2.680   8.602  17.808  0.00  0.00    +0.000 C 
ENDBRANCH   6  13
ENDBRANCH   4   6
ENDBRANCH   3   4
ENDBRANCH   1   3
BRANCH   1  17
ATOM     17  O   UNL     1       7.850   6.714  18.431  0.00  0.00    +0.000 OA
BRANCH  17  18
ATOM     18  C   UNL     1       7.611   7.782  17.489  0.00  0.00    +0.000 C 
BRANCH  18  19
ATOM     19  C   UNL     1       8.225   9.022  18.068  0.00  0.00    +0.000 A 
ATOM     20  N   UNL     1       8.957   9.153  19.153  0.00  0.00    +0.000 NA
ATOM     21  N   UNL     1       9.357  10.479  19.212  0.00  0.00    +0.000 NA
ATOM     22  C   UNL     1       8.869  11.092  18.149  0.00  0.00    +0.000 A 
ATOM     23  O   UNL     1       8.091  10.225  17.390  0.00  0.00    +0.000 OA
BRANCH  22  24
ATOM     24  C   UNL     1       8.833  12.545  17.810  0.00  0.00    +0.000 A 
ATOM     25  C   UNL     1       9.924  13.388  18.140  0.00  0.00    +0.000 A 
ATOM     26  C   UNL     1       9.760  14.788  18.267  0.00  0.00    +0.000 A 
ATOM     27  C   UNL     1       8.504  15.372  18.082  0.00  0.00    +0.000 A 
ATOM     28  C   UNL     1       7.436  14.570  17.687  0.00  0.00    +0.000 A 
ATOM     29  C   UNL     1       7.615  13.182  17.497  0.00  0.00    +0.000 A 
ENDBRANCH  22  24
ENDBRANCH  18  19
ENDBRANCH  17  18
ENDBRANCH   1  17
TORSDOF 8
ENDMDL
MODEL 8
REMARK VINA RESULT:      -7.6      3.732      8.540
REMARK  Name = 
REMARK  10 active torsions:
REMARK  status: ('A' for Active; 'I' for Inactive)
REMARK    1  A    between atoms: C_1  and  C_2
REMARK    2  A    between atoms: C_5  and  S_6
REMARK    3  A    between atoms: S_6  and  N_9
REMARK    4  A    between atoms: N_9  and  C_10
REMARK    5  A    between atoms: C_10  and  C_11
REMARK    6  A    between atoms: C_11  and  O_13
REMARK    7  A    between atoms: O_13  and  C_14
REMARK    8  A    between atoms: C_14  and  C_15
REMARK    9  A    between atoms: C_18  and  C_19
REMARK   10  A    between atoms: C_27  and  C_28
REMARK                            x       y       z     vdW  Elec       q    Type
REMARK                         _______ _______ _______ _____ _____    ______ ____
ROOT
ATOM      1  C   UNL     1       4.795   7.072  16.257  0.00  0.00    +0.000 C 
ATOM      2  O   UNL     1       5.283   6.894  15.141  0.00  0.00    +0.000 OA
ENDROOT
BRANCH   1   3
ATOM      3  C   UNL     1       5.595   7.003  17.549  0.00  0.00    +0.000 C 
BRANCH   3   4
ATOM      4  N   UNL     1       6.949   6.464  17.404  0.00  0.00    +0.000 NA
ATOM      5  H   UNL     1       7.612   6.976  16.819  0.00  0.00    +0.000 HD
BRANCH   4   6
ATOM      6  S   UNL     1       7.184   4.796  17.472  0.00  0.00    +0.000 S 
ATOM      7  O   UNL     1       7.917   4.514  18.683  0.00  0.00    +0.000 OA
ATOM      8  O   UNL     1       7.670   4.414  16.166  0.00  0.00    +0.000 OA
BRANCH   6  13
ATOM      9  C   UNL     1       1.546   2.781  18.548  0.00  0.00    +0.000 C 
ATOM     10  C   UNL     1       2.959   3.121  18.145  0.00  0.00    +0.000 A 
ATOM     11  C   UNL     1       3.405   3.315  16.829  0.00  0.00    +0.000 A 
ATOM     12  C   UNL     1       4.715   3.776  16.585  0.00  0.00    +0.000 A 
ATOM     13  C   UNL     1       5.531   4.151  17.644  0.00  0.00    +0.000 A 
ATOM     14  C   UNL     1       5.090   3.959  18.940  0.00  0.00    +0.000 A 
ATOM     15  C   UNL     1       3.871   3.309  19.166  0.00  0.00    +0.000 A 
ATOM     16  C   UNL     1       3.545   2.770  20.520  0.00  0.00    +0.000 C 
ENDBRANCH   6  13
ENDBRANCH   4   6
ENDBRANCH   3   4
ENDBRANCH   1   3
BRANCH   1  17
ATOM     17  O   UNL     1       3.559   7.601  16.499  0.00  0.00    +0.000 OA
BRANCH  17  18
ATOM     18  C   UNL     1       2.983   7.229  17.770  0.00  0.00    +0.000 C 
BRANCH  18  19
ATOM     19  C   UNL     1       2.214   8.417  18.267  0.00  0.00    +0.000 A 
ATOM     20  N   UNL     1       1.783   9.463  17.596  0.00  0.00    +0.000 NA
ATOM     21  N   UNL     1       1.052  10.239  18.482  0.00  0.00    +0.000 NA
ATOM     22  C   UNL     1       1.053   9.620  19.650  0.00  0.00    +0.000 A 
ATOM     23  O   UNL     1       1.821   8.463  19.597  0.00  0.00    +0.000 OA
BRANCH  22  24
ATOM     24  C   UNL     1       0.586  10.092  20.987  0.00  0.00    +0.000 A 
ATOM     25  C   UNL     1       0.728   9.267  22.131  0.00  0.00    +0.000 A 
ATOM     26  C   UNL     1      -0.082   9.453  23.277  0.00  0.00    +0.000 A 
ATOM     27  C   UNL     1      -1.057  10.454  23.298  0.00  0.00    +0.000 A 
ATOM     28  C   UNL     1      -1.163  11.320  22.212  0.00  0.00    +0.000 A 
ATOM     29  C   UNL     1      -0.310  11.175  21.095  0.00  0.00    +0.000 A 
ENDBRANCH  22  24
ENDBRANCH  18  19
ENDBRANCH  17  18
ENDBRANCH   1  17
TORSDOF 8
ENDMDL
MODEL 9
REMARK VINA RESULT:      -7.6      3.390      7.416
REMARK  Name = 
REMARK  10 active torsions:
REMARK  status: ('A' for Active; 'I' for Inactive)
REMARK    1  A    between atoms: C_1  and  C_2
REMARK    2  A    between atoms: C_5  and  S_6
REMARK    3  A    between atoms: S_6  and  N_9
REMARK    4  A    between atoms: N_9  and  C_10
REMARK    5  A    between atoms: C_10  and  C_11
REMARK    6  A    between atoms: C_11  and  O_13
REMARK    7  A    between atoms: O_13  and  C_14
REMARK    8  A    between atoms: C_14  and  C_15
REMARK    9  A    between atoms: C_18  and  C_19
REMARK   10  A    between atoms: C_27  and  C_28
REMARK                            x       y       z     vdW  Elec       q    Type
REMARK                         _______ _______ _______ _____ _____    ______ ____
ROOT
ATOM      1  C   UNL     1       1.878   3.804  21.057  0.00  0.00    +0.000 C 
ATOM      2  O   UNL     1       2.177   3.654  22.242  0.00  0.00    +0.000 OA
ENDROOT
BRANCH   1   3
ATOM      3  C   UNL     1       1.648   2.651  20.091  0.00  0.00    +0.000 C 
BRANCH   3   4
ATOM      4  N   UNL     1       2.867   2.074  19.524  0.00  0.00    +0.000 NA
ATOM      5  H   UNL     1       3.669   1.937  20.142  0.00  0.00    +0.000 HD
BRANCH   4   6
ATOM      6  S   UNL     1       3.243   2.366  17.907  0.00  0.00    +0.000 S 
ATOM      7  O   UNL     1       2.062   2.913  17.282  0.00  0.00    +0.000 OA
ATOM      8  O   UNL     1       3.886   1.164  17.429  0.00  0.00    +0.000 OA
BRANCH   6  13
ATOM      9  C   UNL     1       7.368   6.832  17.701  0.00  0.00    +0.000 C 
ATOM     10  C   UNL     1       6.467   5.640  17.900  0.00  0.00    +0.000 A 
ATOM     11  C   UNL     1       5.940   5.215  19.130  0.00  0.00    +0.000 A 
ATOM     12  C   UNL     1       4.989   4.176  19.173  0.00  0.00    +0.000 A 
ATOM     13  C   UNL     1       4.483   3.644  17.994  0.00  0.00    +0.000 A 
ATOM     14  C   UNL     1       5.003   4.064  16.783  0.00  0.00    +0.000 A 
ATOM     15  C   UNL     1       6.090   4.946  16.767  0.00  0.00    +0.000 A 
ATOM     16  C   UNL     1       6.893   5.129  15.521  0.00  0.00    +0.000 C 
ENDBRANCH   6  13
ENDBRANCH   4   6
ENDBRANCH   3   4
ENDBRANCH   1   3
BRANCH   1  17
ATOM     17  O   UNL     1       1.459   4.977  20.496  0.00  0.00    +0.000 OA
BRANCH  17  18
ATOM     18  C   UNL     1       2.221   6.139  20.888  0.00  0.00    +0.000 C 
BRANCH  18  19
ATOM     19  C   UNL     1       2.231   7.073  19.714  0.00  0.00    +0.000 A 
ATOM     20  N   UNL     1       2.709   6.876  18.505  0.00  0.00    +0.000 NA
ATOM     21  N   UNL     1       2.398   8.004  17.759  0.00  0.00    +0.000 NA
ATOM     22  C   UNL     1       1.725   8.828  18.543  0.00  0.00    +0.000 A 
ATOM     23  O   UNL     1       1.620   8.313  19.829  0.00  0.00    +0.000 OA
BRANCH  22  24
ATOM     24  C   UNL     1       1.314  10.245  18.318  0.00  0.00    +0.000 A 
ATOM     25  C   UNL     1       2.289  11.256  18.123  0.00  0.00    +0.000 A 
ATOM     26  C   UNL     1       1.994  12.618  18.366  0.00  0.00    +0.000 A 
ATOM     27  C   UNL     1       0.728  12.997  18.821  0.00  0.00    +0.000 A 
ATOM     28  C   UNL     1      -0.264  12.029  18.948  0.00  0.00    +0.000 A 
ATOM     29  C   UNL     1       0.011  10.677  18.643  0.00  0.00    +0.000 A 
ENDBRANCH  22  24
ENDBRANCH  18  19
ENDBRANCH  17  18
ENDBRANCH   1  17
TORSDOF 8
ENDMDL
