MODEL 1
REMARK VINA RESULT:      -8.3      0.000      0.000
REMARK  Name = 
REMARK  6 active torsions:
REMARK  status: ('A' for Active; 'I' for Inactive)
REMARK    1  A    between atoms: C_1  and  N_2
REMARK    2  A    between atoms: N_2  and  C_3
REMARK    3  A    between atoms: C_3  and  C_4
REMARK    4  A    between atoms: C_9  and  C_11
REMARK    5  A    between atoms: C_14  and  S_15
REMARK    6  A    between atoms: S_15  and  N_18
REMARK                            x       y       z     vdW  Elec       q    Type
REMARK                         _______ _______ _______ _____ _____    ______ ____
ROOT
ATOM      1  C   UNL     1       1.319   9.658  18.877  0.00  0.00    +0.000 A 
ATOM      2  C   UNL     1       1.943   8.912  17.880  0.00  0.00    +0.000 A 
ATOM      3  C   UNL     1       2.421   7.619  18.123  0.00  0.00    +0.000 A 
ATOM      4  C   UNL     1       2.351   7.079  19.408  0.00  0.00    +0.000 A 
ATOM      5  C   UNL     1       1.712   7.793  20.422  0.00  0.00    +0.000 A 
ATOM      6  C   UNL     1       1.205   9.075  20.155  0.00  0.00    +0.000 A 
ENDROOT
BRANCH   1   9
ATOM      7  C   UNL     1      -0.704  12.920  18.455  0.00  0.00    +0.000 C 
ATOM      8  N   UNL     1      -0.469  11.490  18.600  0.00  0.00    +0.000 N 
ATOM      9  C   UNL     1       0.870  11.085  18.730  0.00  0.00    +0.000 C 
ATOM     10  O   UNL     1       1.774  11.927  18.735  0.00  0.00    +0.000 OA
BRANCH   8  11
ATOM     11  C   UNL     1      -1.662  10.632  18.587  0.00  0.00    +0.000 C 
BRANCH  11  12
ATOM     12  C   UNL     1      -2.525  10.853  17.373  0.00  0.00    +0.000 A 
ATOM     13  C   UNL     1      -2.412  10.318  16.063  0.00  0.00    +0.000 A 
ATOM     14  C   UNL     1      -3.532  10.754  15.396  0.00  0.00    +0.000 A 
ATOM     15  N   UNL     1      -4.227  11.514  16.285  0.00  0.00    +0.000 N 
ATOM     16  N   UNL     1      -3.633  11.606  17.485  0.00  0.00    +0.000 NA
ATOM     17  H   UNL     1      -5.117  11.985  16.151  0.00  0.00    +0.000 HD
ENDBRANCH  11  12
ENDBRANCH   8  11
ENDBRANCH   1   9
BRANCH   4  18
ATOM     18  S   UNL     1       2.962   5.426  19.692  0.00  0.00    +0.000 S 
ATOM     19  O   UNL     1       4.412   5.499  19.641  0.00  0.00    +0.000 OA
ATOM     20  O   UNL     1       2.292   4.942  20.881  0.00  0.00    +0.000 OA
BRANCH  18  21
ATOM     21  N   UNL     1       2.438   4.501  18.395  0.00  0.00    +0.000 NA
ATOM     22  C   UNL     1       3.406   3.902  17.451  0.00  0.00    +0.000 C 
ATOM     23  C   UNL     1       3.707   2.437  17.813  0.00  0.00    +0.000 C 
ATOM     24  N   UNL     1       2.519   1.592  18.003  0.00  0.00    +0.000 NA
ATOM     25  C   UNL     1       1.474   2.236  18.815  0.00  0.00    +0.000 C 
ATOM     26  C   UNL     1       1.192   3.710  18.481  0.00  0.00    +0.000 C 
ATOM     27  H   UNL     1       2.800   0.724  18.464  0.00  0.00    +0.000 HD
ENDBRANCH  18  21
ENDBRANCH   4  18
TORSDOF 5
ENDMDL
MODEL 2
REMARK VINA RESULT:      -8.1      0.342      1.020
REMARK  Name = 
REMARK  6 active torsions:
REMARK  status: ('A' for Active; 'I' for Inactive)
REMARK    1  A    between atoms: C_1  and  N_2
REMARK    2  A    between atoms: N_2  and  C_3
REMARK    3  A    between atoms: C_3  and  C_4
REMARK    4  A    between atoms: C_9  and  C_11
REMARK    5  A    between atoms: C_14  and  S_15
REMARK    6  A    between atoms: S_15  and  N_18
REMARK                            x       y       z     vdW  Elec       q    Type
REMARK                         _______ _______ _______ _____ _____    ______ ____
ROOT
ATOM      1  C   UNL     1       1.264   9.679  19.103  0.00  0.00    +0.000 A 
ATOM      2  C   UNL     1       1.162   9.005  20.317  0.00  0.00    +0.000 A 
ATOM      3  C   UNL     1       1.697   7.724  20.490  0.00  0.00    +0.000 A 
ATOM      4  C   UNL     1       2.279   7.058  19.411  0.00  0.00    +0.000 A 
ATOM      5  C   UNL     1       2.414   7.715  18.188  0.00  0.00    +0.000 A 
ATOM      6  C   UNL     1       1.905   9.016  18.038  0.00  0.00    +0.000 A 
ENDROOT
BRANCH   1   9
ATOM      7  C   UNL     1      -1.138  12.560  18.182  0.00  0.00    +0.000 C 
ATOM      8  N   UNL     1      -0.715  11.191  18.447  0.00  0.00    +0.000 N 
ATOM      9  C   UNL     1       0.632  11.011  18.802  0.00  0.00    +0.000 C 
ATOM     10  O   UNL     1       1.386  11.985  18.893  0.00  0.00    +0.000 OA
BRANCH   8  11
ATOM     11  C   UNL     1      -1.746  10.154  18.306  0.00  0.00    +0.000 C 
BRANCH  11  12
ATOM     12  C   UNL     1      -2.674  10.410  17.148  0.00  0.00    +0.000 A 
ATOM     13  C   UNL     1      -2.510  10.126  15.767  0.00  0.00    +0.000 A 
ATOM     14  C   UNL     1      -3.712  10.454  15.185  0.00  0.00    +0.000 A 
ATOM     15  N   UNL     1      -4.502  10.919  16.191  0.00  0.00    +0.000 N 
ATOM     16  N   UNL     1      -3.895  10.919  17.387  0.00  0.00    +0.000 NA
ATOM     17  H   UNL     1      -5.466  11.235  16.139  0.00  0.00    +0.000 HD
ENDBRANCH  11  12
ENDBRANCH   8  11
ENDBRANCH   1   9
BRANCH   4  18
ATOM     18  S   UNL     1       2.958   5.426  19.658  0.00  0.00    +0.000 S 
ATOM     19  O   UNL     1       4.404   5.561  19.615  0.00  0.00    +0.000 OA
ATOM     20  O   UNL     1       2.305   4.886  20.833  0.00  0.00    +0.000 OA
BRANCH  18  21
ATOM     21  N   UNL     1       2.477   4.511  18.337  0.00  0.00    +0.000 NA
ATOM     22  C   UNL     1       3.475   3.853  17.468  0.00  0.00    +0.000 C 
ATOM     23  C   UNL     1       3.677   2.380  17.863  0.00  0.00    +0.000 C 
ATOM     24  N   UNL     1       2.438   1.597  17.981  0.00  0.00    +0.000 NA
ATOM     25  C   UNL     1       1.375   2.302  18.713  0.00  0.00    +0.000 C 
ATOM     26  C   UNL     1       1.190   3.783  18.346  0.00  0.00    +0.000 C 
ATOM     27  H   UNL     1       2.644   0.722  18.467  0.00  0.00    +0.000 HD
ENDBRANCH  18  21
ENDBRANCH   4  18
TORSDOF 5
ENDMDL
MODEL 3
REMARK VINA RESULT:      -7.9      0.948      1.035
REMARK  Name = 
REMARK  6 active torsions:
REMARK  status: ('A' for Active; 'I' for Inactive)
REMARK    1  A    between atoms: C_1  and  N_2
REMARK    2  A    between atoms: N_2  and  C_3
REMARK    3  A    between atoms: C_3  and  C_4
REMARK    4  A    between atoms: C_9  and  C_11
REMARK    5  A    between atoms: C_14  and  S_15
REMARK    6  A    between atoms: S_15  and  N_18
REMARK                            x       y       z     vdW  Elec       q    Type
REMARK                         _______ _______ _______ _____ _____    ______ ____
ROOT
ATOM      1  C   UNL     1       1.102   9.844  19.133  0.00  0.00    +0.000 A 
ATOM      2  C   UNL     1       1.600   9.394  17.913  0.00  0.00    +0.000 A 
ATOM      3  C   UNL     1       2.198   8.135  17.785  0.00  0.00    +0.000 A 
ATOM      4  C   UNL     1       2.379   7.331  18.911  0.00  0.00    +0.000 A 
ATOM      5  C   UNL     1       1.872   7.744  20.142  0.00  0.00    +0.000 A 
ATOM      6  C   UNL     1       1.241   8.995  20.249  0.00  0.00    +0.000 A 
ENDROOT
BRANCH   1   9
ATOM      7  C   UNL     1      -1.177  12.930  19.579  0.00  0.00    +0.000 C 
ATOM      8  N   UNL     1      -0.827  11.539  19.322  0.00  0.00    +0.000 N 
ATOM      9  C   UNL     1       0.539  11.216  19.378  0.00  0.00    +0.000 C 
ATOM     10  O   UNL     1       1.371  12.088  19.651  0.00  0.00    +0.000 OA
BRANCH   8  11
ATOM     11  C   UNL     1      -1.946  10.633  19.027  0.00  0.00    +0.000 C 
BRANCH  11  12
ATOM     12  C   UNL     1      -2.421  10.739  17.602  0.00  0.00    +0.000 A 
ATOM     13  C   UNL     1      -2.051   9.985  16.458  0.00  0.00    +0.000 A 
ATOM     14  C   UNL     1      -2.882  10.419  15.453  0.00  0.00    +0.000 A 
ATOM     15  N   UNL     1      -3.664  11.386  16.005  0.00  0.00    +0.000 N 
ATOM     16  N   UNL     1      -3.396  11.613  17.300  0.00  0.00    +0.000 NA
ATOM     17  H   UNL     1      -4.409  11.920  15.567  0.00  0.00    +0.000 HD
ENDBRANCH  11  12
ENDBRANCH   8  11
ENDBRANCH   1   9
BRANCH   4  18
ATOM     18  S   UNL     1       3.140   5.727  18.722  0.00  0.00    +0.000 S 
ATOM     19  O   UNL     1       3.851   5.745  17.455  0.00  0.00    +0.000 OA
ATOM     20  O   UNL     1       3.848   5.463  19.958  0.00  0.00    +0.000 OA
BRANCH  18  21
ATOM     21  N   UNL     1       1.884   4.622  18.603  0.00  0.00    +0.000 NA
ATOM     22  C   UNL     1       1.789   3.703  17.448  0.00  0.00    +0.000 C 
ATOM     23  C   UNL     1       2.391   2.326  17.778  0.00  0.00    +0.000 C 
ATOM     24  N   UNL     1       1.890   1.715  19.018  0.00  0.00    +0.000 NA
ATOM     25  C   UNL     1       1.831   2.658  20.145  0.00  0.00    +0.000 C 
ATOM     26  C   UNL     1       1.262   4.047  19.815  0.00  0.00    +0.000 C 
ATOM     27  H   UNL     1       2.503   0.938  19.275  0.00  0.00    +0.000 HD
ENDBRANCH  18  21
ENDBRANCH   4  18
TORSDOF 5
ENDMDL
MODEL 4
REMARK VINA RESULT:      -7.8      2.379      8.100
REMARK  Name = 
REMARK  6 active torsions:
REMARK  status: ('A' for Active; 'I' for Inactive)
REMARK    1  A    between atoms: C_1  and  N_2
REMARK    2  A    between atoms: N_2  and  C_3
REMARK    3  A    between atoms: C_3  and  C_4
REMARK    4  A    between atoms: C_9  and  C_11
REMARK    5  A    between atoms: C_14  and  S_15
REMARK    6  A    between atoms: S_15  and  N_18
REMARK                            x       y       z     vdW  Elec       q    Type
REMARK                         _______ _______ _______ _____ _____    ______ ____
ROOT
ATOM      1  C   UNL     1       2.840   6.829  18.547  0.00  0.00    +0.000 A 
ATOM      2  C   UNL     1       2.419   6.743  19.871  0.00  0.00    +0.000 A 
ATOM      3  C   UNL     1       1.666   7.762  20.467  0.00  0.00    +0.000 A 
ATOM      4  C   UNL     1       1.390   8.931  19.759  0.00  0.00    +0.000 A 
ATOM      5  C   UNL     1       1.780   9.038  18.424  0.00  0.00    +0.000 A 
ATOM      6  C   UNL     1       2.504   7.992  17.827  0.00  0.00    +0.000 A 
ENDROOT
BRANCH   1   9
ATOM      7  C   UNL     1       4.375   3.691  16.900  0.00  0.00    +0.000 C 
ATOM      8  N   UNL     1       3.365   4.511  17.555  0.00  0.00    +0.000 N 
ATOM      9  C   UNL     1       3.733   5.831  17.862  0.00  0.00    +0.000 C 
ATOM     10  O   UNL     1       4.857   6.247  17.563  0.00  0.00    +0.000 OA
BRANCH   8  11
ATOM     11  C   UNL     1       2.075   3.859  17.825  0.00  0.00    +0.000 C 
BRANCH  11  12
ATOM     12  C   UNL     1       1.951   3.381  19.247  0.00  0.00    +0.000 A 
ATOM     13  C   UNL     1       2.959   3.071  20.197  0.00  0.00    +0.000 A 
ATOM     14  C   UNL     1       2.287   2.809  21.367  0.00  0.00    +0.000 A 
ATOM     15  N   UNL     1       0.964   2.945  21.078  0.00  0.00    +0.000 N 
ATOM     16  N   UNL     1       0.730   3.275  19.798  0.00  0.00    +0.000 NA
ATOM     17  H   UNL     1       0.169   2.846  21.702  0.00  0.00    +0.000 HD
ENDBRANCH  11  12
ENDBRANCH   8  11
ENDBRANCH   1   9
BRANCH   4  18
ATOM     18  S   UNL     1       0.424  10.214  20.540  0.00  0.00    +0.000 S 
ATOM     19  O   UNL     1      -0.727   9.565  21.145  0.00  0.00    +0.000 OA
ATOM     20  O   UNL     1       1.346  10.983  21.351  0.00  0.00    +0.000 OA
BRANCH  18  21
ATOM     21  N   UNL     1      -0.124  11.208  19.305  0.00  0.00    +0.000 NA
ATOM     22  C   UNL     1      -1.472  11.023  18.726  0.00  0.00    +0.000 C 
ATOM     23  C   UNL     1      -2.490  11.985  19.362  0.00  0.00    +0.000 C 
ATOM     24  N   UNL     1      -2.080  13.396  19.378  0.00  0.00    +0.000 NA
ATOM     25  C   UNL     1      -0.685  13.589  19.806  0.00  0.00    +0.000 C 
ATOM     26  C   UNL     1       0.333  12.610  19.199  0.00  0.00    +0.000 C 
ATOM     27  H   UNL     1      -2.690  13.911  20.015  0.00  0.00    +0.000 HD
ENDBRANCH  18  21
ENDBRANCH   4  18
TORSDOF 5
ENDMDL
MODEL 5
REMARK VINA RESULT:      -7.8      2.513      8.456
REMARK  Name = 
REMARK  6 active torsions:
REMARK  status: ('A' for Active; 'I' for Inactive)
REMARK    1  A    between atoms: C_1  and  N_2
REMARK    2  A    between atoms: N_2  and  C_3
REMARK    3  A    between atoms: C_3  and  C_4
REMARK    4  A    between atoms: C_9  and  C_11
REMARK    5  A    between atoms: C_14  and  S_15
REMARK    6  A    between atoms: S_15  and  N_18
REMARK                            x       y       z     vdW  Elec       q    Type
REMARK                         _______ _______ _______ _____ _____    ______ ____
ROOT
ATOM      1  C   UNL     1       2.309   6.290  19.366  0.00  0.00    +0.000 A 
ATOM      2  C   UNL     1       2.410   7.220  18.334  0.00  0.00    +0.000 A 
ATOM      3  C   UNL     1       2.030   8.555  18.511  0.00  0.00    +0.000 A 
ATOM      4  C   UNL     1       1.460   8.965  19.716  0.00  0.00    +0.000 A 
ATOM      5  C   UNL     1       1.364   8.062  20.776  0.00  0.00    +0.000 A 
ATOM      6  C   UNL     1       1.784   6.734  20.597  0.00  0.00    +0.000 A 
ENDROOT
BRANCH   1   9
ATOM      7  C   UNL     1       3.964   2.816  19.038  0.00  0.00    +0.000 C 
ATOM      8  N   UNL     1       3.887   4.264  19.183  0.00  0.00    +0.000 N 
ATOM      9  C   UNL     1       2.599   4.821  19.232  0.00  0.00    +0.000 C 
ATOM     10  O   UNL     1       1.604   4.090  19.171  0.00  0.00    +0.000 OA
BRANCH   8  11
ATOM     11  C   UNL     1       5.170   4.978  19.255  0.00  0.00    +0.000 C 
BRANCH  11  12
ATOM     12  C   UNL     1       6.050   4.714  18.062  0.00  0.00    +0.000 A 
ATOM     13  C   UNL     1       5.749   4.769  16.676  0.00  0.00    +0.000 A 
ATOM     14  C   UNL     1       6.948   4.562  16.036  0.00  0.00    +0.000 A 
ATOM     15  N   UNL     1       7.871   4.378  17.019  0.00  0.00    +0.000 N 
ATOM     16  N   UNL     1       7.353   4.449  18.255  0.00  0.00    +0.000 NA
ATOM     17  H   UNL     1       8.870   4.218  16.923  0.00  0.00    +0.000 HD
ENDBRANCH  11  12
ENDBRANCH   8  11
ENDBRANCH   1   9
BRANCH   4  18
ATOM     18  S   UNL     1       0.987  10.675  19.920  0.00  0.00    +0.000 S 
ATOM     19  O   UNL     1       1.207  11.008  21.317  0.00  0.00    +0.000 OA
ATOM     20  O   UNL     1       1.665  11.412  18.872  0.00  0.00    +0.000 OA
BRANCH  18  21
ATOM     21  N   UNL     1      -0.660  10.747  19.615  0.00  0.00    +0.000 NA
ATOM     22  C   UNL     1      -1.403  12.016  19.766  0.00  0.00    +0.000 C 
ATOM     23  C   UNL     1      -1.563  12.734  18.415  0.00  0.00    +0.000 C 
ATOM     24  N   UNL     1      -2.103  11.898  17.332  0.00  0.00    +0.000 NA
ATOM     25  C   UNL     1      -1.480  10.566  17.264  0.00  0.00    +0.000 C 
ATOM     26  C   UNL     1      -1.287   9.858  18.614  0.00  0.00    +0.000 C 
ATOM     27  H   UNL     1      -1.952  12.374  16.440  0.00  0.00    +0.000 HD
ENDBRANCH  18  21
ENDBRANCH   4  18
TORSDOF 5
ENDMDL
MODEL 6
REMARK VINA RESULT:      -7.7      2.216      2.865
REMARK  Name = 
REMARK  6 active torsions:
REMARK  status: ('A' for Active; 'I' for Inactive)
REMARK    1  A    between atoms: C_1  and  N_2
REMARK    2  A    between atoms: N_2  and  C_3
REMARK    3  A    between atoms: C_3  and  C_4
REMARK    4  A    between atoms: C_9  and  C_11
REMARK    5  A    between atoms: C_14  and  S_15
REMARK    6  A    between atoms: S_15  and  N_18
REMARK                            x       y       z     vdW  Elec       q    Type
REMARK                         _______ _______ _______ _____ _____    ______ ____
ROOT
ATOM      1  C   UNL     1       1.506   9.216  19.125  0.00  0.00    +0.000 A 
ATOM      2  C   UNL     1       1.560   8.166  20.039  0.00  0.00    +0.000 A 
ATOM      3  C   UNL     1       2.298   7.006  19.780  0.00  0.00    +0.000 A 
ATOM      4  C   UNL     1       2.937   6.845  18.550  0.00  0.00    +0.000 A 
ATOM      5  C   UNL     1       2.919   7.887  17.622  0.00  0.00    +0.000 A 
ATOM      6  C   UNL     1       2.204   9.061  17.910  0.00  0.00    +0.000 A 
ENDROOT
BRANCH   1   9
ATOM      7  C   UNL     1      -1.205  11.952  18.854  0.00  0.00    +0.000 C 
ATOM      8  N   UNL     1      -0.531  10.691  18.575  0.00  0.00    +0.000 N 
ATOM      9  C   UNL     1       0.660  10.449  19.280  0.00  0.00    +0.000 C 
ATOM     10  O   UNL     1       1.075  11.275  20.099  0.00  0.00    +0.000 OA
BRANCH   8  11
ATOM     11  C   UNL     1      -1.172   9.819  17.581  0.00  0.00    +0.000 C 
BRANCH  11  12
ATOM     12  C   UNL     1      -2.480  10.371  17.079  0.00  0.00    +0.000 A 
ATOM     13  C   UNL     1      -3.751  10.422  17.709  0.00  0.00    +0.000 A 
ATOM     14  C   UNL     1      -4.551  11.142  16.853  0.00  0.00    +0.000 A 
ATOM     15  N   UNL     1      -3.768  11.460  15.786  0.00  0.00    +0.000 N 
ATOM     16  N   UNL     1      -2.514  10.993  15.888  0.00  0.00    +0.000 NA
ATOM     17  H   UNL     1      -4.014  12.004  14.965  0.00  0.00    +0.000 HD
ENDBRANCH  11  12
ENDBRANCH   8  11
ENDBRANCH   1   9
BRANCH   4  18
ATOM     18  S   UNL     1       3.877   5.358  18.244  0.00  0.00    +0.000 S 
ATOM     19  O   UNL     1       4.332   4.875  19.537  0.00  0.00    +0.000 OA
ATOM     20  O   UNL     1       3.052   4.522  17.396  0.00  0.00    +0.000 OA
BRANCH  18  21
ATOM     21  N   UNL     1       5.219   5.825  17.355  0.00  0.00    +0.000 NA
ATOM     22  C   UNL     1       6.510   6.102  18.021  0.00  0.00    +0.000 C 
ATOM     23  C   UNL     1       7.441   4.878  17.967  0.00  0.00    +0.000 C 
ATOM     24  N   UNL     1       7.619   4.297  16.629  0.00  0.00    +0.000 NA
ATOM     25  C   UNL     1       6.357   4.156  15.886  0.00  0.00    +0.000 C 
ATOM     26  C   UNL     1       5.407   5.363  15.964  0.00  0.00    +0.000 C 
ATOM     27  H   UNL     1       8.046   3.373  16.723  0.00  0.00    +0.000 HD
ENDBRANCH  18  21
ENDBRANCH   4  18
TORSDOF 5
ENDMDL
MODEL 7
REMARK VINA RESULT:      -7.6      3.206      8.704
REMARK  Name = 
REMARK  6 active torsions:
REMARK  status: ('A' for Active; 'I' for Inactive)
REMARK    1  A    between atoms: C_1  and  N_2
REMARK    2  A    between atoms: N_2  and  C_3
REMARK    3  A    between atoms: C_3  and  C_4
REMARK    4  A    between atoms: C_9  and  C_11
REMARK    5  A    between atoms: C_14  and  S_15
REMARK    6  A    between atoms: S_15  and  N_18
REMARK                            x       y       z     vdW  Elec       q    Type
REMARK                         _______ _______ _______ _____ _____    ______ ____
ROOT
ATOM      1  C   UNL     1       2.561   6.266  19.288  0.00  0.00    +0.000 A 
ATOM      2  C   UNL     1       2.641   6.940  18.072  0.00  0.00    +0.000 A 
ATOM      3  C   UNL     1       2.185   8.256  17.933  0.00  0.00    +0.000 A 
ATOM      4  C   UNL     1       1.563   8.897  19.005  0.00  0.00    +0.000 A 
ATOM      5  C   UNL     1       1.488   8.256  20.241  0.00  0.00    +0.000 A 
ATOM      6  C   UNL     1       1.982   6.947  20.377  0.00  0.00    +0.000 A 
ENDROOT
BRANCH   1   9
ATOM      7  C   UNL     1       4.404   2.900  19.721  0.00  0.00    +0.000 C 
ATOM      8  N   UNL     1       4.248   4.334  19.515  0.00  0.00    +0.000 N 
ATOM      9  C   UNL     1       2.932   4.824  19.498  0.00  0.00    +0.000 C 
ATOM     10  O   UNL     1       1.981   4.054  19.669  0.00  0.00    +0.000 OA
BRANCH   8  11
ATOM     11  C   UNL     1       5.488   5.103  19.342  0.00  0.00    +0.000 C 
BRANCH  11  12
ATOM     12  C   UNL     1       6.222   4.747  18.077  0.00  0.00    +0.000 A 
ATOM     13  C   UNL     1       5.754   4.676  16.739  0.00  0.00    +0.000 A 
ATOM     14  C   UNL     1       6.870   4.429  15.977  0.00  0.00    +0.000 A 
ATOM     15  N   UNL     1       7.910   4.345  16.850  0.00  0.00    +0.000 N 
ATOM     16  N   UNL     1       7.546   4.517  18.130  0.00  0.00    +0.000 NA
ATOM     17  H   UNL     1       8.893   4.191  16.646  0.00  0.00    +0.000 HD
ENDBRANCH  11  12
ENDBRANCH   8  11
ENDBRANCH   1   9
BRANCH   4  18
ATOM     18  S   UNL     1       0.996  10.578  18.804  0.00  0.00    +0.000 S 
ATOM     19  O   UNL     1       2.084  11.318  18.188  0.00  0.00    +0.000 OA
ATOM     20  O   UNL     1      -0.298  10.497  18.156  0.00  0.00    +0.000 OA
BRANCH  18  21
ATOM     21  N   UNL     1       0.759  11.181  20.351  0.00  0.00    +0.000 NA
ATOM     22  C   UNL     1       1.439  12.417  20.793  0.00  0.00    +0.000 C 
ATOM     23  C   UNL     1       0.524  13.644  20.644  0.00  0.00    +0.000 C 
ATOM     24  N   UNL     1      -0.810  13.496  21.246  0.00  0.00    +0.000 NA
ATOM     25  C   UNL     1      -1.442  12.202  20.943  0.00  0.00    +0.000 C 
ATOM     26  C   UNL     1      -0.523  10.975  21.058  0.00  0.00    +0.000 C 
ATOM     27  H   UNL     1      -1.414  14.243  20.900  0.00  0.00    +0.000 HD
ENDBRANCH  18  21
ENDBRANCH   4  18
TORSDOF 5
ENDMDL
MODEL 8
REMARK VINA RESULT:      -7.6      2.319      3.691
REMARK  Name = 
REMARK  6 active torsions:
REMARK  status: ('A' for Active; 'I' for Inactive)
REMARK    1  A    between atoms: C_1  and  N_2
REMARK    2  A    between atoms: N_2  and  C_3
REMARK    3  A    between atoms: C_3  and  C_4
REMARK    4  A    between atoms: C_9  and  C_11
REMARK    5  A    between atoms: C_14  and  S_15
REMARK    6  A    between atoms: S_15  and  N_18
REMARK                            x       y       z     vdW  Elec       q    Type
REMARK                         _______ _______ _______ _____ _____    ______ ____
ROOT
ATOM      1  C   UNL     1       0.938   9.428  19.195  0.00  0.00    +0.000 A 
ATOM      2  C   UNL     1       1.186   8.542  20.240  0.00  0.00    +0.000 A 
ATOM      3  C   UNL     1       2.049   7.451  20.086  0.00  0.00    +0.000 A 
ATOM      4  C   UNL     1       2.621   7.184  18.842  0.00  0.00    +0.000 A 
ATOM      5  C   UNL     1       2.409   8.065  17.782  0.00  0.00    +0.000 A 
ATOM      6  C   UNL     1       1.569   9.177  17.961  0.00  0.00    +0.000 A 
ENDROOT
BRANCH   1   9
ATOM      7  C   UNL     1      -0.873  12.792  19.763  0.00  0.00    +0.000 C 
ATOM      8  N   UNL     1       0.217  11.826  19.798  0.00  0.00    +0.000 N 
ATOM      9  C   UNL     1      -0.048  10.562  19.245  0.00  0.00    +0.000 C 
ATOM     10  O   UNL     1      -1.154  10.322  18.748  0.00  0.00    +0.000 OA
BRANCH   8  11
ATOM     11  C   UNL     1       1.470  12.284  20.415  0.00  0.00    +0.000 C 
BRANCH  11  12
ATOM     12  C   UNL     1       2.293  13.143  19.492  0.00  0.00    +0.000 A 
ATOM     13  C   UNL     1       2.972  14.364  19.746  0.00  0.00    +0.000 A 
ATOM     14  C   UNL     1       3.662  14.641  18.590  0.00  0.00    +0.000 A 
ATOM     15  N   UNL     1       3.364  13.634  17.724  0.00  0.00    +0.000 N 
ATOM     16  N   UNL     1       2.525  12.722  18.237  0.00  0.00    +0.000 NA
ATOM     17  H   UNL     1       3.708  13.494  16.778  0.00  0.00    +0.000 HD
ENDBRANCH  11  12
ENDBRANCH   8  11
ENDBRANCH   1   9
BRANCH   4  18
ATOM     18  S   UNL     1       3.723   5.789  18.672  0.00  0.00    +0.000 S 
ATOM     19  O   UNL     1       4.916   6.275  17.999  0.00  0.00    +0.000 OA
ATOM     20  O   UNL     1       3.816   5.180  19.983  0.00  0.00    +0.000 OA
BRANCH  18  21
ATOM     21  N   UNL     1       2.952   4.702  17.654  0.00  0.00    +0.000 NA
ATOM     22  C   UNL     1       3.688   3.564  17.064  0.00  0.00    +0.000 C 
ATOM     23  C   UNL     1       3.479   2.278  17.882  0.00  0.00    +0.000 C 
ATOM     24  N   UNL     1       2.074   1.947  18.163  0.00  0.00    +0.000 NA
ATOM     25  C   UNL     1       1.283   3.106  18.605  0.00  0.00    +0.000 C 
ATOM     26  C   UNL     1       1.513   4.403  17.813  0.00  0.00    +0.000 C 
ATOM     27  H   UNL     1       2.041   1.233  18.893  0.00  0.00    +0.000 HD
ENDBRANCH  18  21
ENDBRANCH   4  18
TORSDOF 5
ENDMDL
MODEL 9
REMARK VINA RESULT:      -7.6      3.046      8.325
REMARK  Name = 
REMARK  6 active torsions:
REMARK  status: ('A' for Active; 'I' for Inactive)
REMARK    1  A    between atoms: C_1  and  N_2
REMARK    2  A    between atoms: N_2  and  C_3
REMARK    3  A    between atoms: C_3  and  C_4
REMARK    4  A    between atoms: C_9  and  C_11
REMARK    5  A    between atoms: C_14  and  S_15
REMARK    6  A    between atoms: S_15  and  N_18
REMARK                            x       y       z     vdW  Elec       q    Type
REMARK                         _______ _______ _______ _____ _____    ______ ____
ROOT
ATOM      1  C   UNL     1       2.560   7.412  18.478  0.00  0.00    +0.000 A 
ATOM      2  C   UNL     1       2.162   7.462  19.812  0.00  0.00    +0.000 A 
ATOM      3  C   UNL     1       1.441   8.548  20.321  0.00  0.00    +0.000 A 
ATOM      4  C   UNL     1       1.174   9.651  19.510  0.00  0.00    +0.000 A 
ATOM      5  C   UNL     1       1.542   9.622  18.164  0.00  0.00    +0.000 A 
ATOM      6  C   UNL     1       2.234   8.510  17.657  0.00  0.00    +0.000 A 
ENDROOT
BRANCH   1   9
ATOM      7  C   UNL     1       4.006   4.100  17.117  0.00  0.00    +0.000 C 
ATOM      8  N   UNL     1       3.024   4.999  17.709  0.00  0.00    +0.000 N 
ATOM      9  C   UNL     1       3.422   6.336  17.877  0.00  0.00    +0.000 C 
ATOM     10  O   UNL     1       4.545   6.699  17.515  0.00  0.00    +0.000 OA
BRANCH   8  11
ATOM     11  C   UNL     1       1.731   4.401  18.069  0.00  0.00    +0.000 C 
BRANCH  11  12
ATOM     12  C   UNL     1       1.726   3.815  19.456  0.00  0.00    +0.000 A 
ATOM     13  C   UNL     1       2.649   3.983  20.521  0.00  0.00    +0.000 A 
ATOM     14  C   UNL     1       2.092   3.324  21.590  0.00  0.00    +0.000 A 
ATOM     15  N   UNL     1       0.923   2.794  21.137  0.00  0.00    +0.000 N 
ATOM     16  N   UNL     1       0.684   3.061  19.844  0.00  0.00    +0.000 NA
ATOM     17  H   UNL     1       0.233   2.256  21.654  0.00  0.00    +0.000 HD
ENDBRANCH  11  12
ENDBRANCH   8  11
ENDBRANCH   1   9
BRANCH   4  18
ATOM     18  S   UNL     1       0.248  11.022  20.180  0.00  0.00    +0.000 S 
ATOM     19  O   UNL     1      -1.142  10.809  19.815  0.00  0.00    +0.000 OA
ATOM     20  O   UNL     1       0.634  11.132  21.573  0.00  0.00    +0.000 OA
BRANCH  18  21
ATOM     21  N   UNL     1       0.796  12.393  19.385  0.00  0.00    +0.000 NA
ATOM     22  C   UNL     1      -0.147  13.284  18.676  0.00  0.00    +0.000 C 
ATOM     23  C   UNL     1      -0.550  14.483  19.552  0.00  0.00    +0.000 C 
ATOM     24  N   UNL     1       0.575  15.221  20.143  0.00  0.00    +0.000 NA
ATOM     25  C   UNL     1       1.604  14.342  20.721  0.00  0.00    +0.000 C 
ATOM     26  C   UNL     1       1.988  13.124  19.865  0.00  0.00    +0.000 C 
ATOM     27  H   UNL     1       0.219  15.833  20.880  0.00  0.00    +0.000 HD
ENDBRANCH  18  21
ENDBRANCH   4  18
TORSDOF 5
ENDMDL
