MODEL 1
REMARK VINA RESULT:      -6.8      0.000      0.000
REMARK  Name = 
REMARK  4 active torsions:
REMARK  status: ('A' for Active; 'I' for Inactive)
REMARK    1  A    between atoms: C_1  and  C_2
REMARK    2  A    between atoms: C_8  and  C_9
REMARK    3  A    between atoms: C_16  and  C_17
REMARK    4  A    between atoms: C_22  and  C_23
REMARK                            x       y       z     vdW  Elec       q    Type
REMARK                         _______ _______ _______ _____ _____    ______ ____
ROOT
ATOM      1  C   UNL     1       3.992  15.386  20.316  0.00  0.00    +0.000 C 
ATOM      2  C   UNL     1       2.986  14.299  20.548  0.00  0.00    +0.000 C 
ATOM      3  O   UNL     1       3.214  13.371  21.317  0.00  0.00    +0.000 OA
ATOM      4  N   UNL     1       1.809  14.493  19.848  0.00  0.00    +0.000 N 
ATOM      5  C   UNL     1       0.918  13.506  19.584  0.00  0.00    +0.000 C 
ATOM      6  N   UNL     1       1.115  12.247  19.733  0.00  0.00    +0.000 NA
ATOM      7  N   UNL     1       0.006  11.529  19.354  0.00  0.00    +0.000 N 
ATOM      8  C   UNL     1       0.190  10.234  18.895  0.00  0.00    +0.000 C 
ATOM      9  C   UNL     1       1.598   9.907  18.409  0.00  0.00    +0.000 C 
ATOM     10  O   UNL     1      -0.724   9.429  18.720  0.00  0.00    +0.000 OA
ATOM     11  C   UNL     1      -1.238  12.303  19.248  0.00  0.00    +0.000 C 
ATOM     12  S   UNL     1      -0.578  14.020  18.873  0.00  0.00    +0.000 S 
ATOM     13  C   UNL     1      -2.117  12.489  20.535  0.00  0.00    +0.000 C 
ATOM     14  O   UNL     1      -1.703  12.788  21.649  0.00  0.00    +0.000 OA
ATOM     15  N   UNL     1      -3.479  12.371  20.126  0.00  0.00    +0.000 N 
ATOM     16  C   UNL     1      -4.614  12.789  20.819  0.00  0.00    +0.000 C 
ATOM     17  C   UNL     1      -4.544  12.857  22.327  0.00  0.00    +0.000 C 
ATOM     18  O   UNL     1      -5.652  13.169  20.266  0.00  0.00    +0.000 OA
ATOM     19  C   UNL     1      -3.528  11.970  18.764  0.00  0.00    +0.000 A 
ATOM     20  C   UNL     1      -4.631  11.586  18.014  0.00  0.00    +0.000 A 
ATOM     21  C   UNL     1      -4.415  11.035  16.744  0.00  0.00    +0.000 A 
ATOM     22  C   UNL     1      -3.118  10.919  16.212  0.00  0.00    +0.000 A 
ATOM     23  C   UNL     1      -2.855  10.123  14.969  0.00  0.00    +0.000 C 
ATOM     24  C   UNL     1      -2.032  11.416  16.937  0.00  0.00    +0.000 A 
ATOM     25  C   UNL     1      -2.244  11.892  18.216  0.00  0.00    +0.000 A 
ATOM     26  H   UNL     1       1.617  15.389  19.429  0.00  0.00    +0.000 HD
ENDROOT
TORSDOF 0
ENDMDL
MODEL 2
REMARK VINA RESULT:      -6.6      4.017      6.829
REMARK  Name = 
REMARK  4 active torsions:
REMARK  status: ('A' for Active; 'I' for Inactive)
REMARK    1  A    between atoms: C_1  and  C_2
REMARK    2  A    between atoms: C_8  and  C_9
REMARK    3  A    between atoms: C_16  and  C_17
REMARK    4  A    between atoms: C_22  and  C_23
REMARK                            x       y       z     vdW  Elec       q    Type
REMARK                         _______ _______ _______ _____ _____    ______ ____
ROOT
ATOM      1  C   UNL     1      -0.392   8.354  21.845  0.00  0.00    +0.000 C 
ATOM      2  C   UNL     1       0.100   9.734  22.168  0.00  0.00    +0.000 C 
ATOM      3  O   UNL     1       0.181  10.128  23.327  0.00  0.00    +0.000 OA
ATOM      4  N   UNL     1       0.470  10.453  21.046  0.00  0.00    +0.000 N 
ATOM      5  C   UNL     1       0.579  11.804  21.019  0.00  0.00    +0.000 C 
ATOM      6  N   UNL     1       0.159  12.616  21.919  0.00  0.00    +0.000 NA
ATOM      7  N   UNL     1       0.419  13.918  21.563  0.00  0.00    +0.000 N 
ATOM      8  C   UNL     1      -0.416  14.910  22.053  0.00  0.00    +0.000 C 
ATOM      9  C   UNL     1      -1.786  14.436  22.527  0.00  0.00    +0.000 C 
ATOM     10  O   UNL     1      -0.175  16.114  21.975  0.00  0.00    +0.000 OA
ATOM     11  C   UNL     1       1.416  14.092  20.498  0.00  0.00    +0.000 C 
ATOM     12  S   UNL     1       1.254  12.470  19.567  0.00  0.00    +0.000 S 
ATOM     13  C   UNL     1       2.932  14.170  20.897  0.00  0.00    +0.000 C 
ATOM     14  O   UNL     1       3.504  13.430  21.690  0.00  0.00    +0.000 OA
ATOM     15  N   UNL     1       3.526  15.170  20.070  0.00  0.00    +0.000 N 
ATOM     16  C   UNL     1       4.882  15.362  19.811  0.00  0.00    +0.000 C 
ATOM     17  C   UNL     1       5.879  14.912  20.854  0.00  0.00    +0.000 C 
ATOM     18  O   UNL     1       5.317  15.822  18.749  0.00  0.00    +0.000 OA
ATOM     19  C   UNL     1       2.511  15.828  19.326  0.00  0.00    +0.000 A 
ATOM     20  C   UNL     1       2.619  16.958  18.527  0.00  0.00    +0.000 A 
ATOM     21  C   UNL     1       1.444  17.552  18.049  0.00  0.00    +0.000 A 
ATOM     22  C   UNL     1       0.182  16.992  18.323  0.00  0.00    +0.000 A 
ATOM     23  C   UNL     1      -1.082  17.739  18.022  0.00  0.00    +0.000 C 
ATOM     24  C   UNL     1       0.104  15.792  19.033  0.00  0.00    +0.000 A 
ATOM     25  C   UNL     1       1.260  15.251  19.562  0.00  0.00    +0.000 A 
ATOM     26  H   UNL     1       0.591   9.979  20.165  0.00  0.00    +0.000 HD
ENDROOT
TORSDOF 0
ENDMDL
MODEL 3
REMARK VINA RESULT:      -6.6      3.300      6.246
REMARK  Name = 
REMARK  4 active torsions:
REMARK  status: ('A' for Active; 'I' for Inactive)
REMARK    1  A    between atoms: C_1  and  C_2
REMARK    2  A    between atoms: C_8  and  C_9
REMARK    3  A    between atoms: C_16  and  C_17
REMARK    4  A    between atoms: C_22  and  C_23
REMARK                            x       y       z     vdW  Elec       q    Type
REMARK                         _______ _______ _______ _____ _____    ______ ____
ROOT
ATOM      1  C   UNL     1      -6.376  13.029  23.549  0.00  0.00    +0.000 C 
ATOM      2  C   UNL     1      -4.890  12.836  23.609  0.00  0.00    +0.000 C 
ATOM      3  O   UNL     1      -4.293  12.796  24.680  0.00  0.00    +0.000 OA
ATOM      4  N   UNL     1      -4.315  12.675  22.362  0.00  0.00    +0.000 N 
ATOM      5  C   UNL     1      -2.996  12.864  22.110  0.00  0.00    +0.000 C 
ATOM      6  N   UNL     1      -2.145  13.414  22.897  0.00  0.00    +0.000 NA
ATOM      7  N   UNL     1      -0.899  13.457  22.318  0.00  0.00    +0.000 N 
ATOM      8  C   UNL     1      -0.033  14.468  22.705  0.00  0.00    +0.000 C 
ATOM      9  C   UNL     1      -0.692  15.682  23.351  0.00  0.00    +0.000 C 
ATOM     10  O   UNL     1       1.163  14.497  22.417  0.00  0.00    +0.000 OA
ATOM     11  C   UNL     1      -0.709  12.565  21.167  0.00  0.00    +0.000 C 
ATOM     12  S   UNL     1      -2.465  12.407  20.523  0.00  0.00    +0.000 S 
ATOM     13  C   UNL     1      -0.251  11.088  21.432  0.00  0.00    +0.000 C 
ATOM     14  O   UNL     1      -0.707  10.338  22.288  0.00  0.00    +0.000 OA
ATOM     15  N   UNL     1       0.693  10.758  20.413  0.00  0.00    +0.000 N 
ATOM     16  C   UNL     1       1.114   9.488  20.024  0.00  0.00    +0.000 C 
ATOM     17  C   UNL     1       1.067   8.376  21.048  0.00  0.00    +0.000 C 
ATOM     18  O   UNL     1       1.463   9.205  18.872  0.00  0.00    +0.000 OA
ATOM     19  C   UNL     1       0.987  11.920  19.651  0.00  0.00    +0.000 A 
ATOM     20  C   UNL     1       1.959  12.093  18.676  0.00  0.00    +0.000 A 
ATOM     21  C   UNL     1       2.204  13.387  18.200  0.00  0.00    +0.000 A 
ATOM     22  C   UNL     1       1.451  14.485  18.654  0.00  0.00    +0.000 A 
ATOM     23  C   UNL     1       1.857  15.892  18.335  0.00  0.00    +0.000 C 
ATOM     24  C   UNL     1       0.403  14.272  19.552  0.00  0.00    +0.000 A 
ATOM     25  C   UNL     1       0.213  13.006  20.071  0.00  0.00    +0.000 A 
ATOM     26  H   UNL     1      -4.898  12.489  21.561  0.00  0.00    +0.000 HD
ENDROOT
TORSDOF 0
ENDMDL
MODEL 4
REMARK VINA RESULT:      -6.6      2.116      4.826
REMARK  Name = 
REMARK  4 active torsions:
REMARK  status: ('A' for Active; 'I' for Inactive)
REMARK    1  A    between atoms: C_1  and  C_2
REMARK    2  A    between atoms: C_8  and  C_9
REMARK    3  A    between atoms: C_16  and  C_17
REMARK    4  A    between atoms: C_22  and  C_23
REMARK                            x       y       z     vdW  Elec       q    Type
REMARK                         _______ _______ _______ _____ _____    ______ ____
ROOT
ATOM      1  C   UNL     1       2.982   7.317  18.314  0.00  0.00    +0.000 C 
ATOM      2  C   UNL     1       2.235   8.600  18.107  0.00  0.00    +0.000 C 
ATOM      3  O   UNL     1       2.501   9.353  17.176  0.00  0.00    +0.000 OA
ATOM      4  N   UNL     1       1.227   8.795  19.034  0.00  0.00    +0.000 N 
ATOM      5  C   UNL     1       0.673  10.003  19.304  0.00  0.00    +0.000 C 
ATOM      6  N   UNL     1       1.124  11.144  18.927  0.00  0.00    +0.000 NA
ATOM      7  N   UNL     1       0.325  12.162  19.390  0.00  0.00    +0.000 N 
ATOM      8  C   UNL     1       0.904  13.403  19.602  0.00  0.00    +0.000 C 
ATOM      9  C   UNL     1       2.421  13.398  19.763  0.00  0.00    +0.000 C 
ATOM     10  O   UNL     1       0.266  14.433  19.817  0.00  0.00    +0.000 OA
ATOM     11  C   UNL     1      -1.012  11.757  19.843  0.00  0.00    +0.000 C 
ATOM     12  S   UNL     1      -0.710   9.974  20.350  0.00  0.00    +0.000 S 
ATOM     13  C   UNL     1      -2.170  11.677  18.786  0.00  0.00    +0.000 C 
ATOM     14  O   UNL     1      -2.091  11.167  17.674  0.00  0.00    +0.000 OA
ATOM     15  N   UNL     1      -3.342  12.189  19.417  0.00  0.00    +0.000 N 
ATOM     16  C   UNL     1      -4.667  12.014  19.019  0.00  0.00    +0.000 C 
ATOM     17  C   UNL     1      -4.945  11.775  17.553  0.00  0.00    +0.000 C 
ATOM     18  O   UNL     1      -5.619  11.979  19.807  0.00  0.00    +0.000 OA
ATOM     19  C   UNL     1      -2.997  12.726  20.686  0.00  0.00    +0.000 A 
ATOM     20  C   UNL     1      -3.787  13.461  21.559  0.00  0.00    +0.000 A 
ATOM     21  C   UNL     1      -3.176  14.063  22.666  0.00  0.00    +0.000 A 
ATOM     22  C   UNL     1      -1.804  13.889  22.924  0.00  0.00    +0.000 A 
ATOM     23  C   UNL     1      -1.096  14.711  23.959  0.00  0.00    +0.000 C 
ATOM     24  C   UNL     1      -1.051  13.053  22.096  0.00  0.00    +0.000 A 
ATOM     25  C   UNL     1      -1.643  12.520  20.967  0.00  0.00    +0.000 A 
ATOM     26  H   UNL     1       0.925   8.029  19.615  0.00  0.00    +0.000 HD
ENDROOT
TORSDOF 0
ENDMDL
MODEL 5
REMARK VINA RESULT:      -6.4      3.910      6.473
REMARK  Name = 
REMARK  4 active torsions:
REMARK  status: ('A' for Active; 'I' for Inactive)
REMARK    1  A    between atoms: C_1  and  C_2
REMARK    2  A    between atoms: C_8  and  C_9
REMARK    3  A    between atoms: C_16  and  C_17
REMARK    4  A    between atoms: C_22  and  C_23
REMARK                            x       y       z     vdW  Elec       q    Type
REMARK                         _______ _______ _______ _____ _____    ______ ____
ROOT
ATOM      1  C   UNL     1      -0.411   8.351  21.777  0.00  0.00    +0.000 C 
ATOM      2  C   UNL     1       0.211   9.707  21.931  0.00  0.00    +0.000 C 
ATOM      3  O   UNL     1       0.847  10.009  22.935  0.00  0.00    +0.000 OA
ATOM      4  N   UNL     1       0.019  10.518  20.827  0.00  0.00    +0.000 N 
ATOM      5  C   UNL     1       0.136  11.869  20.854  0.00  0.00    +0.000 C 
ATOM      6  N   UNL     1       0.218  12.601  21.905  0.00  0.00    +0.000 NA
ATOM      7  N   UNL     1       0.310  13.931  21.569  0.00  0.00    +0.000 N 
ATOM      8  C   UNL     1      -0.163  14.868  22.473  0.00  0.00    +0.000 C 
ATOM      9  C   UNL     1      -1.151  14.339  23.507  0.00  0.00    +0.000 C 
ATOM     10  O   UNL     1       0.043  16.078  22.382  0.00  0.00    +0.000 OA
ATOM     11  C   UNL     1       0.681  14.203  20.174  0.00  0.00    +0.000 C 
ATOM     12  S   UNL     1       0.052  12.658  19.312  0.00  0.00    +0.000 S 
ATOM     13  C   UNL     1       2.204  14.270  19.802  0.00  0.00    +0.000 C 
ATOM     14  O   UNL     1       3.066  13.477  20.165  0.00  0.00    +0.000 OA
ATOM     15  N   UNL     1       2.357  15.341  18.872  0.00  0.00    +0.000 N 
ATOM     16  C   UNL     1       3.428  15.572  18.010  0.00  0.00    +0.000 C 
ATOM     17  C   UNL     1       4.790  15.054  18.411  0.00  0.00    +0.000 C 
ATOM     18  O   UNL     1       3.313  16.120  16.908  0.00  0.00    +0.000 OA
ATOM     19  C   UNL     1       1.126  16.042  18.756  0.00  0.00    +0.000 A 
ATOM     20  C   UNL     1       0.868  17.233  18.093  0.00  0.00    +0.000 A 
ATOM     21  C   UNL     1      -0.377  17.846  18.283  0.00  0.00    +0.000 A 
ATOM     22  C   UNL     1      -1.368  17.249  19.083  0.00  0.00    +0.000 A 
ATOM     23  C   UNL     1      -2.602  18.000  19.483  0.00  0.00    +0.000 C 
ATOM     24  C   UNL     1      -1.128  15.996  19.650  0.00  0.00    +0.000 A 
ATOM     25  C   UNL     1       0.126  15.430  19.518  0.00  0.00    +0.000 A 
ATOM     26  H   UNL     1      -0.309  10.118  19.962  0.00  0.00    +0.000 HD
ENDROOT
TORSDOF 0
ENDMDL
MODEL 6
REMARK VINA RESULT:      -6.4      1.929      5.723
REMARK  Name = 
REMARK  4 active torsions:
REMARK  status: ('A' for Active; 'I' for Inactive)
REMARK    1  A    between atoms: C_1  and  C_2
REMARK    2  A    between atoms: C_8  and  C_9
REMARK    3  A    between atoms: C_16  and  C_17
REMARK    4  A    between atoms: C_22  and  C_23
REMARK                            x       y       z     vdW  Elec       q    Type
REMARK                         _______ _______ _______ _____ _____    ______ ____
ROOT
ATOM      1  C   UNL     1      -5.687  12.732  23.868  0.00  0.00    +0.000 C 
ATOM      2  C   UNL     1      -5.046  13.067  22.555  0.00  0.00    +0.000 C 
ATOM      3  O   UNL     1      -5.694  13.547  21.631  0.00  0.00    +0.000 OA
ATOM      4  N   UNL     1      -3.686  12.813  22.537  0.00  0.00    +0.000 N 
ATOM      5  C   UNL     1      -2.962  12.666  21.400  0.00  0.00    +0.000 C 
ATOM      6  N   UNL     1      -3.433  12.519  20.215  0.00  0.00    +0.000 NA
ATOM      7  N   UNL     1      -2.418  12.380  19.299  0.00  0.00    +0.000 N 
ATOM      8  C   UNL     1      -2.675  11.663  18.141  0.00  0.00    +0.000 C 
ATOM      9  C   UNL     1      -3.866  10.713  18.212  0.00  0.00    +0.000 C 
ATOM     10  O   UNL     1      -1.925  11.638  17.166  0.00  0.00    +0.000 OA
ATOM     11  C   UNL     1      -1.090  12.806  19.762  0.00  0.00    +0.000 C 
ATOM     12  S   UNL     1      -1.245  12.559  21.616  0.00  0.00    +0.000 S 
ATOM     13  C   UNL     1      -0.686  14.313  19.596  0.00  0.00    +0.000 C 
ATOM     14  O   UNL     1      -1.392  15.278  19.864  0.00  0.00    +0.000 OA
ATOM     15  N   UNL     1       0.686  14.332  19.201  0.00  0.00    +0.000 N 
ATOM     16  C   UNL     1       1.572  15.406  19.262  0.00  0.00    +0.000 C 
ATOM     17  C   UNL     1       1.004  16.805  19.184  0.00  0.00    +0.000 C 
ATOM     18  O   UNL     1       2.789  15.280  19.440  0.00  0.00    +0.000 OA
ATOM     19  C   UNL     1       1.121  13.004  18.947  0.00  0.00    +0.000 A 
ATOM     20  C   UNL     1       2.319  12.577  18.394  0.00  0.00    +0.000 A 
ATOM     21  C   UNL     1       2.451  11.226  18.049  0.00  0.00    +0.000 A 
ATOM     22  C   UNL     1       1.417  10.306  18.302  0.00  0.00    +0.000 A 
ATOM     23  C   UNL     1       1.450   8.921  17.728  0.00  0.00    +0.000 C 
ATOM     24  C   UNL     1       0.264  10.735  18.962  0.00  0.00    +0.000 A 
ATOM     25  C   UNL     1       0.111  12.081  19.236  0.00  0.00    +0.000 A 
ATOM     26  H   UNL     1      -3.197  12.642  23.400  0.00  0.00    +0.000 HD
ENDROOT
TORSDOF 0
ENDMDL
MODEL 7
REMARK VINA RESULT:      -6.4      3.445      5.508
REMARK  Name = 
REMARK  4 active torsions:
REMARK  status: ('A' for Active; 'I' for Inactive)
REMARK    1  A    between atoms: C_1  and  C_2
REMARK    2  A    between atoms: C_8  and  C_9
REMARK    3  A    between atoms: C_16  and  C_17
REMARK    4  A    between atoms: C_22  and  C_23
REMARK                            x       y       z     vdW  Elec       q    Type
REMARK                         _______ _______ _______ _____ _____    ______ ____
ROOT
ATOM      1  C   UNL     1       6.069  17.416  19.342  0.00  0.00    +0.000 C 
ATOM      2  C   UNL     1       4.800  16.712  18.965  0.00  0.00    +0.000 C 
ATOM      3  O   UNL     1       4.202  16.983  17.928  0.00  0.00    +0.000 OA
ATOM      4  N   UNL     1       4.431  15.737  19.874  0.00  0.00    +0.000 N 
ATOM      5  C   UNL     1       3.175  15.236  19.975  0.00  0.00    +0.000 C 
ATOM      6  N   UNL     1       2.121  15.720  19.427  0.00  0.00    +0.000 NA
ATOM      7  N   UNL     1       1.013  14.973  19.752  0.00  0.00    +0.000 N 
ATOM      8  C   UNL     1      -0.220  15.604  19.768  0.00  0.00    +0.000 C 
ATOM      9  C   UNL     1      -0.176  17.123  19.897  0.00  0.00    +0.000 C 
ATOM     10  O   UNL     1      -1.296  15.012  19.843  0.00  0.00    +0.000 OA
ATOM     11  C   UNL     1       1.293  13.634  20.286  0.00  0.00    +0.000 C 
ATOM     12  S   UNL     1       2.994  13.881  21.042  0.00  0.00    +0.000 S 
ATOM     13  C   UNL     1       1.478  12.447  19.276  0.00  0.00    +0.000 C 
ATOM     14  O   UNL     1       2.147  12.477  18.249  0.00  0.00    +0.000 OA
ATOM     15  N   UNL     1       0.831  11.311  19.849  0.00  0.00    +0.000 N 
ATOM     16  C   UNL     1       1.007   9.971  19.508  0.00  0.00    +0.000 C 
ATOM     17  C   UNL     1       1.445   9.646  18.098  0.00  0.00    +0.000 C 
ATOM     18  O   UNL     1       0.888   9.039  20.312  0.00  0.00    +0.000 OA
ATOM     19  C   UNL     1       0.130  11.710  21.018  0.00  0.00    +0.000 A 
ATOM     20  C   UNL     1      -0.756  10.971  21.790  0.00  0.00    +0.000 A 
ATOM     21  C   UNL     1      -1.486  11.634  22.785  0.00  0.00    +0.000 A 
ATOM     22  C   UNL     1      -1.295  13.004  23.038  0.00  0.00    +0.000 A 
ATOM     23  C   UNL     1      -2.229  13.769  23.927  0.00  0.00    +0.000 C 
ATOM     24  C   UNL     1      -0.317  13.703  22.326  0.00  0.00    +0.000 A 
ATOM     25  C   UNL     1       0.349  13.062  21.299  0.00  0.00    +0.000 A 
ATOM     26  H   UNL     1       5.092  15.422  20.567  0.00  0.00    +0.000 HD
ENDROOT
TORSDOF 0
ENDMDL
MODEL 8
REMARK VINA RESULT:      -6.3      2.312      4.933
REMARK  Name = 
REMARK  4 active torsions:
REMARK  status: ('A' for Active; 'I' for Inactive)
REMARK    1  A    between atoms: C_1  and  C_2
REMARK    2  A    between atoms: C_8  and  C_9
REMARK    3  A    between atoms: C_16  and  C_17
REMARK    4  A    between atoms: C_22  and  C_23
REMARK                            x       y       z     vdW  Elec       q    Type
REMARK                         _______ _______ _______ _____ _____    ______ ____
ROOT
ATOM      1  C   UNL     1       2.778   7.207  18.728  0.00  0.00    +0.000 C 
ATOM      2  C   UNL     1       2.028   8.457  18.374  0.00  0.00    +0.000 C 
ATOM      3  O   UNL     1       2.067   8.926  17.242  0.00  0.00    +0.000 OA
ATOM      4  N   UNL     1       1.291   8.963  19.430  0.00  0.00    +0.000 N 
ATOM      5  C   UNL     1       0.849  10.243  19.495  0.00  0.00    +0.000 C 
ATOM      6  N   UNL     1       1.213  11.210  18.735  0.00  0.00    +0.000 NA
ATOM      7  N   UNL     1       0.578  12.377  19.089  0.00  0.00    +0.000 N 
ATOM      8  C   UNL     1       1.217  13.577  18.821  0.00  0.00    +0.000 C 
ATOM      9  C   UNL     1       2.725  13.482  18.612  0.00  0.00    +0.000 C 
ATOM     10  O   UNL     1       0.676  14.679  18.902  0.00  0.00    +0.000 OA
ATOM     11  C   UNL     1      -0.610  12.214  19.938  0.00  0.00    +0.000 C 
ATOM     12  S   UNL     1      -0.226  10.596  20.810  0.00  0.00    +0.000 S 
ATOM     13  C   UNL     1      -1.998  11.971  19.247  0.00  0.00    +0.000 C 
ATOM     14  O   UNL     1      -2.213  11.194  18.323  0.00  0.00    +0.000 OA
ATOM     15  N   UNL     1      -2.962  12.724  19.981  0.00  0.00    +0.000 N 
ATOM     16  C   UNL     1      -4.348  12.569  19.971  0.00  0.00    +0.000 C 
ATOM     17  C   UNL     1      -4.992  11.996  18.729  0.00  0.00    +0.000 C 
ATOM     18  O   UNL     1      -5.071  12.814  20.943  0.00  0.00    +0.000 OA
ATOM     19  C   UNL     1      -2.297  13.530  20.943  0.00  0.00    +0.000 A 
ATOM     20  C   UNL     1      -2.826  14.525  21.753  0.00  0.00    +0.000 A 
ATOM     21  C   UNL     1      -1.943  15.330  22.483  0.00  0.00    +0.000 A 
ATOM     22  C   UNL     1      -0.554  15.109  22.444  0.00  0.00    +0.000 A 
ATOM     23  C   UNL     1       0.409  16.100  23.025  0.00  0.00    +0.000 C 
ATOM     24  C   UNL     1      -0.052  14.031  21.711  0.00  0.00    +0.000 A 
ATOM     25  C   UNL     1      -0.920  13.286  20.937  0.00  0.00    +0.000 A 
ATOM     26  H   UNL     1       1.131   8.395  20.247  0.00  0.00    +0.000 HD
ENDROOT
TORSDOF 0
ENDMDL
MODEL 9
REMARK VINA RESULT:      -6.1      3.771      4.817
REMARK  Name = 
REMARK  4 active torsions:
REMARK  status: ('A' for Active; 'I' for Inactive)
REMARK    1  A    between atoms: C_1  and  C_2
REMARK    2  A    between atoms: C_8  and  C_9
REMARK    3  A    between atoms: C_16  and  C_17
REMARK    4  A    between atoms: C_22  and  C_23
REMARK                            x       y       z     vdW  Elec       q    Type
REMARK                         _______ _______ _______ _____ _____    ______ ____
ROOT
ATOM      1  C   UNL     1       0.375  18.618  16.444  0.00  0.00    +0.000 C 
ATOM      2  C   UNL     1       0.811  17.980  17.729  0.00  0.00    +0.000 C 
ATOM      3  O   UNL     1       1.856  18.306  18.282  0.00  0.00    +0.000 OA
ATOM      4  N   UNL     1      -0.097  17.052  18.207  0.00  0.00    +0.000 N 
ATOM      5  C   UNL     1       0.215  16.088  19.108  0.00  0.00    +0.000 C 
ATOM      6  N   UNL     1       1.396  15.749  19.477  0.00  0.00    +0.000 NA
ATOM      7  N   UNL     1       1.349  14.725  20.392  0.00  0.00    +0.000 N 
ATOM      8  C   UNL     1       2.431  13.862  20.465  0.00  0.00    +0.000 C 
ATOM      9  C   UNL     1       3.330  13.835  19.234  0.00  0.00    +0.000 C 
ATOM     10  O   UNL     1       2.597  13.041  21.366  0.00  0.00    +0.000 OA
ATOM     11  C   UNL     1       0.042  14.510  21.029  0.00  0.00    +0.000 C 
ATOM     12  S   UNL     1      -1.126  15.170  19.715  0.00  0.00    +0.000 S 
ATOM     13  C   UNL     1      -0.307  15.333  22.319  0.00  0.00    +0.000 C 
ATOM     14  O   UNL     1      -0.120  16.534  22.475  0.00  0.00    +0.000 OA
ATOM     15  N   UNL     1      -0.991  14.446  23.203  0.00  0.00    +0.000 N 
ATOM     16  C   UNL     1      -1.784  14.782  24.298  0.00  0.00    +0.000 C 
ATOM     17  C   UNL     1      -1.503  16.086  25.009  0.00  0.00    +0.000 C 
ATOM     18  O   UNL     1      -2.746  14.105  24.680  0.00  0.00    +0.000 OA
ATOM     19  C   UNL     1      -0.955  13.130  22.669  0.00  0.00    +0.000 A 
ATOM     20  C   UNL     1      -1.352  11.942  23.267  0.00  0.00    +0.000 A 
ATOM     21  C   UNL     1      -1.036  10.736  22.629  0.00  0.00    +0.000 A 
ATOM     22  C   UNL     1      -0.379  10.720  21.385  0.00  0.00    +0.000 A 
ATOM     23  C   UNL     1       0.171   9.449  20.811  0.00  0.00    +0.000 C 
ATOM     24  C   UNL     1      -0.090  11.929  20.747  0.00  0.00    +0.000 A 
ATOM     25  C   UNL     1      -0.339  13.113  21.413  0.00  0.00    +0.000 A 
ATOM     26  H   UNL     1      -1.027  17.015  17.821  0.00  0.00    +0.000 HD
ENDROOT
TORSDOF 0
ENDMDL
