MODEL 1
REMARK VINA RESULT:      -8.7      0.000      0.000
REMARK  Name = 
REMARK  9 active torsions:
REMARK  status: ('A' for Active; 'I' for Inactive)
REMARK    1  A    between atoms: C_1  and  C_2
REMARK    2  A    between atoms: C_2  and  C_3
REMARK    3  A    between atoms: C_3  and  C_4
REMARK    4  A    between atoms: C_3  and  N_11
REMARK    5  A    between atoms: C_4  and  C_5
REMARK    6  A    between atoms: C_12  and  C_14
REMARK    7  A    between atoms: C_14  and  N_15
REMARK    8  A    between atoms: N_25  and  C_26
REMARK    9  A    between atoms: C_26  and  C_27
REMARK                            x       y       z     vdW  Elec       q    Type
REMARK                         _______ _______ _______ _____ _____    ______ ____
ROOT
ATOM      1  N   UNL     1       1.630   8.525  19.355  0.00  0.00    +0.000 N 
ATOM      2  N   UNL     1       1.504   8.123  20.697  0.00  0.00    +0.000 NA
ATOM      3  C   UNL     1       0.761   8.825  21.500  0.00  0.00    +0.000 A 
ATOM      4  C   UNL     1       0.076   9.992  21.030  0.00  0.00    +0.000 A 
ATOM      5  C   UNL     1      -0.749  10.921  21.698  0.00  0.00    +0.000 A 
ATOM      6  C   UNL     1      -1.087  11.129  23.048  0.00  0.00    +0.000 A 
ATOM      7  C   UNL     1      -2.168  11.953  23.352  0.00  0.00    +0.000 A 
ATOM      8  C   UNL     1      -2.900  12.554  22.332  0.00  0.00    +0.000 A 
ATOM      9  C   UNL     1      -2.492  12.469  20.991  0.00  0.00    +0.000 A 
ATOM     10  C   UNL     1      -1.365  11.682  20.695  0.00  0.00    +0.000 A 
ATOM     11  N   UNL     1      -0.641  11.457  19.528  0.00  0.00    +0.000 N 
ATOM     12  C   UNL     1       0.121  10.325  19.700  0.00  0.00    +0.000 A 
ATOM     13  C   UNL     1       0.905   9.576  18.757  0.00  0.00    +0.000 A 
ATOM     14  O   UNL     1       0.936   9.815  17.550  0.00  0.00    +0.000 OA
ENDROOT
BRANCH   1  15
ATOM     15  C   UNL     1       2.596   7.786  18.549  0.00  0.00    +0.000 C 
BRANCH  15  17
ATOM     16  N   UNL     1       3.485   5.802  19.667  0.00  0.00    +0.000 N 
ATOM     17  C   UNL     1       2.540   6.281  18.786  0.00  0.00    +0.000 C 
ATOM     18  O   UNL     1       1.816   5.543  18.120  0.00  0.00    +0.000 OA
ATOM     19  H   UNL     1       3.989   6.497  20.213  0.00  0.00    +0.000 HD
BRANCH  16  20
ATOM     20  C   UNL     1       3.620   4.390  20.004  0.00  0.00    +0.000 C 
BRANCH  20  22
ATOM     21  C   UNL     1       1.734   2.656  20.245  0.00  0.00    +0.000 C 
ATOM     22  C   UNL     1       2.368   3.934  20.774  0.00  0.00    +0.000 C 
ENDBRANCH  20  22
BRANCH  20  23
ATOM     23  C   UNL     1       3.993   3.540  18.769  0.00  0.00    +0.000 C 
BRANCH  23  24
ATOM     24  C   UNL     1       5.030   4.108  17.825  0.00  0.00    +0.000 A 
ATOM     25  C   UNL     1       4.729   4.321  16.473  0.00  0.00    +0.000 A 
ATOM     26  C   UNL     1       5.652   4.946  15.629  0.00  0.00    +0.000 A 
ATOM     27  C   UNL     1       6.889   5.353  16.123  0.00  0.00    +0.000 A 
ATOM     28  C   UNL     1       7.212   5.122  17.457  0.00  0.00    +0.000 A 
ATOM     29  C   UNL     1       6.287   4.505  18.302  0.00  0.00    +0.000 A 
ENDBRANCH  23  24
ENDBRANCH  20  23
ENDBRANCH  16  20
ENDBRANCH  15  17
ENDBRANCH   1  15
BRANCH  11  30
ATOM     30  C   UNL     1      -0.603  12.321  18.343  0.00  0.00    +0.000 C 
BRANCH  30  31
ATOM     31  C   UNL     1       0.362  13.484  18.517  0.00  0.00    +0.000 A 
ATOM     32  C   UNL     1      -0.109  14.759  18.890  0.00  0.00    +0.000 A 
ATOM     33  C   UNL     1       0.771  15.834  19.042  0.00  0.00    +0.000 A 
ATOM     34  C   UNL     1       2.130  15.641  18.829  0.00  0.00    +0.000 A 
ATOM     35  F   UNL     1       2.976  16.666  18.968  0.00  0.00    +0.000 F 
ATOM     36  C   UNL     1       2.622  14.396  18.473  0.00  0.00    +0.000 A 
ATOM     37  C   UNL     1       1.744  13.316  18.320  0.00  0.00    +0.000 A 
ENDBRANCH  30  31
ENDBRANCH  11  30
TORSDOF 8
ENDMDL
MODEL 2
REMARK VINA RESULT:      -8.7      0.646      1.063
REMARK  Name = 
REMARK  9 active torsions:
REMARK  status: ('A' for Active; 'I' for Inactive)
REMARK    1  A    between atoms: C_1  and  C_2
REMARK    2  A    between atoms: C_2  and  C_3
REMARK    3  A    between atoms: C_3  and  C_4
REMARK    4  A    between atoms: C_3  and  N_11
REMARK    5  A    between atoms: C_4  and  C_5
REMARK    6  A    between atoms: C_12  and  C_14
REMARK    7  A    between atoms: C_14  and  N_15
REMARK    8  A    between atoms: N_25  and  C_26
REMARK    9  A    between atoms: C_26  and  C_27
REMARK                            x       y       z     vdW  Elec       q    Type
REMARK                         _______ _______ _______ _____ _____    ______ ____
ROOT
ATOM      1  N   UNL     1       1.921   8.269  19.209  0.00  0.00    +0.000 N 
ATOM      2  N   UNL     1       1.665   7.741  20.488  0.00  0.00    +0.000 NA
ATOM      3  C   UNL     1       0.919   8.415  21.312  0.00  0.00    +0.000 A 
ATOM      4  C   UNL     1       0.361   9.677  20.929  0.00  0.00    +0.000 A 
ATOM      5  C   UNL     1      -0.439  10.596  21.639  0.00  0.00    +0.000 A 
ATOM      6  C   UNL     1      -0.860  10.690  22.978  0.00  0.00    +0.000 A 
ATOM      7  C   UNL     1      -1.896  11.564  23.299  0.00  0.00    +0.000 A 
ATOM      8  C   UNL     1      -2.502  12.327  22.305  0.00  0.00    +0.000 A 
ATOM      9  C   UNL     1      -2.003  12.349  20.992  0.00  0.00    +0.000 A 
ATOM     10  C   UNL     1      -0.920  11.506  20.687  0.00  0.00    +0.000 A 
ATOM     11  N   UNL     1      -0.130  11.345  19.552  0.00  0.00    +0.000 N 
ATOM     12  C   UNL     1       0.529  10.141  19.649  0.00  0.00    +0.000 A 
ATOM     13  C   UNL     1       1.324   9.433  18.684  0.00  0.00    +0.000 A 
ATOM     14  O   UNL     1       1.462   9.792  17.515  0.00  0.00    +0.000 OA
ENDROOT
BRANCH   1  15
ATOM     15  C   UNL     1       2.886   7.540  18.393  0.00  0.00    +0.000 C 
BRANCH  15  17
ATOM     16  N   UNL     1       3.631   5.397  19.303  0.00  0.00    +0.000 N 
ATOM     17  C   UNL     1       2.719   6.027  18.484  0.00  0.00    +0.000 C 
ATOM     18  O   UNL     1       1.940   5.412  17.759  0.00  0.00    +0.000 OA
ATOM     19  H   UNL     1       4.187   5.997  19.908  0.00  0.00    +0.000 HD
BRANCH  16  20
ATOM     20  C   UNL     1       3.662   3.953  19.501  0.00  0.00    +0.000 C 
BRANCH  20  22
ATOM     21  C   UNL     1       2.131   3.836  21.565  0.00  0.00    +0.000 C 
ATOM     22  C   UNL     1       2.319   3.496  20.094  0.00  0.00    +0.000 C 
ENDBRANCH  20  22
BRANCH  20  23
ATOM     23  C   UNL     1       4.117   3.210  18.224  0.00  0.00    +0.000 C 
BRANCH  23  24
ATOM     24  C   UNL     1       5.108   3.920  17.326  0.00  0.00    +0.000 A 
ATOM     25  C   UNL     1       6.365   4.308  17.810  0.00  0.00    +0.000 A 
ATOM     26  C   UNL     1       7.316   4.864  16.951  0.00  0.00    +0.000 A 
ATOM     27  C   UNL     1       7.019   5.051  15.603  0.00  0.00    +0.000 A 
ATOM     28  C   UNL     1       5.764   4.696  15.115  0.00  0.00    +0.000 A 
ATOM     29  C   UNL     1       4.816   4.133  15.971  0.00  0.00    +0.000 A 
ENDBRANCH  23  24
ENDBRANCH  20  23
ENDBRANCH  16  20
ENDBRANCH  15  17
ENDBRANCH   1  15
BRANCH  11  30
ATOM     30  C   UNL     1       0.061  12.321  18.475  0.00  0.00    +0.000 C 
BRANCH  30  31
ATOM     31  C   UNL     1       0.981  13.458  18.893  0.00  0.00    +0.000 A 
ATOM     32  C   UNL     1       0.491  14.775  19.005  0.00  0.00    +0.000 A 
ATOM     33  C   UNL     1       1.333  15.826  19.379  0.00  0.00    +0.000 A 
ATOM     34  C   UNL     1       2.671  15.567  19.651  0.00  0.00    +0.000 A 
ATOM     35  F   UNL     1       3.481  16.568  20.005  0.00  0.00    +0.000 F 
ATOM     36  C   UNL     1       3.176  14.281  19.560  0.00  0.00    +0.000 A 
ATOM     37  C   UNL     1       2.337  13.225  19.186  0.00  0.00    +0.000 A 
ENDBRANCH  30  31
ENDBRANCH  11  30
TORSDOF 8
ENDMDL
MODEL 3
REMARK VINA RESULT:      -8.6      1.114      1.178
REMARK  Name = 
REMARK  9 active torsions:
REMARK  status: ('A' for Active; 'I' for Inactive)
REMARK    1  A    between atoms: C_1  and  C_2
REMARK    2  A    between atoms: C_2  and  C_3
REMARK    3  A    between atoms: C_3  and  C_4
REMARK    4  A    between atoms: C_3  and  N_11
REMARK    5  A    between atoms: C_4  and  C_5
REMARK    6  A    between atoms: C_12  and  C_14
REMARK    7  A    between atoms: C_14  and  N_15
REMARK    8  A    between atoms: N_25  and  C_26
REMARK    9  A    between atoms: C_26  and  C_27
REMARK                            x       y       z     vdW  Elec       q    Type
REMARK                         _______ _______ _______ _____ _____    ______ ____
ROOT
ATOM      1  N   UNL     1       2.028   8.388  18.959  0.00  0.00    +0.000 N 
ATOM      2  N   UNL     1       1.744   7.750  20.180  0.00  0.00    +0.000 NA
ATOM      3  C   UNL     1       1.003   8.362  21.056  0.00  0.00    +0.000 A 
ATOM      4  C   UNL     1       0.480   9.668  20.787  0.00  0.00    +0.000 A 
ATOM      5  C   UNL     1      -0.307  10.536  21.571  0.00  0.00    +0.000 A 
ATOM      6  C   UNL     1      -0.743  10.515  22.908  0.00  0.00    +0.000 A 
ATOM      7  C   UNL     1      -1.762  11.381  23.299  0.00  0.00    +0.000 A 
ATOM      8  C   UNL     1      -2.337  12.248  22.374  0.00  0.00    +0.000 A 
ATOM      9  C   UNL     1      -1.820  12.380  21.075  0.00  0.00    +0.000 A 
ATOM     10  C   UNL     1      -0.754  11.542  20.703  0.00  0.00    +0.000 A 
ATOM     11  N   UNL     1       0.047  11.468  19.567  0.00  0.00    +0.000 N 
ATOM     12  C   UNL     1       0.676  10.245  19.558  0.00  0.00    +0.000 A 
ATOM     13  C   UNL     1       1.465   9.610  18.539  0.00  0.00    +0.000 A 
ATOM     14  O   UNL     1       1.627  10.073  17.410  0.00  0.00    +0.000 OA
ENDROOT
BRANCH   1  15
ATOM     15  C   UNL     1       2.986   7.715  18.088  0.00  0.00    +0.000 C 
BRANCH  15  17
ATOM     16  N   UNL     1       2.626   5.298  18.020  0.00  0.00    +0.000 N 
ATOM     17  C   UNL     1       3.359   6.321  18.581  0.00  0.00    +0.000 C 
ATOM     18  O   UNL     1       4.137   6.147  19.517  0.00  0.00    +0.000 OA
ATOM     19  H   UNL     1       2.058   5.537  17.211  0.00  0.00    +0.000 HD
BRANCH  16  20
ATOM     20  C   UNL     1       2.806   3.896  18.381  0.00  0.00    +0.000 C 
BRANCH  20  22
ATOM     21  C   UNL     1       0.905   3.740  20.108  0.00  0.00    +0.000 C 
ATOM     22  C   UNL     1       1.442   3.293  18.756  0.00  0.00    +0.000 C 
ENDBRANCH  20  22
BRANCH  20  23
ATOM     23  C   UNL     1       3.605   3.126  17.305  0.00  0.00    +0.000 C 
BRANCH  23  24
ATOM     24  C   UNL     1       4.870   3.775  16.786  0.00  0.00    +0.000 A 
ATOM     25  C   UNL     1       4.947   4.240  15.466  0.00  0.00    +0.000 A 
ATOM     26  C   UNL     1       6.076   4.935  15.022  0.00  0.00    +0.000 A 
ATOM     27  C   UNL     1       7.144   5.161  15.888  0.00  0.00    +0.000 A 
ATOM     28  C   UNL     1       7.092   4.680  17.192  0.00  0.00    +0.000 A 
ATOM     29  C   UNL     1       5.961   3.992  17.638  0.00  0.00    +0.000 A 
ENDBRANCH  23  24
ENDBRANCH  20  23
ENDBRANCH  16  20
ENDBRANCH  15  17
ENDBRANCH   1  15
BRANCH  11  30
ATOM     30  C   UNL     1       0.274  12.536  18.587  0.00  0.00    +0.000 C 
BRANCH  30  31
ATOM     31  C   UNL     1       1.161  13.640  19.144  0.00  0.00    +0.000 A 
ATOM     32  C   UNL     1       0.684  14.962  19.243  0.00  0.00    +0.000 A 
ATOM     33  C   UNL     1       1.497  15.983  19.744  0.00  0.00    +0.000 A 
ATOM     34  C   UNL     1       2.791  15.688  20.156  0.00  0.00    +0.000 A 
ATOM     35  F   UNL     1       3.574  16.660  20.632  0.00  0.00    +0.000 F 
ATOM     36  C   UNL     1       3.281  14.394  20.080  0.00  0.00    +0.000 A 
ATOM     37  C   UNL     1       2.470  13.369  19.580  0.00  0.00    +0.000 A 
ENDBRANCH  30  31
ENDBRANCH  11  30
TORSDOF 8
ENDMDL
MODEL 4
REMARK VINA RESULT:      -8.6      0.841      1.440
REMARK  Name = 
REMARK  9 active torsions:
REMARK  status: ('A' for Active; 'I' for Inactive)
REMARK    1  A    between atoms: C_1  and  C_2
REMARK    2  A    between atoms: C_2  and  C_3
REMARK    3  A    between atoms: C_3  and  C_4
REMARK    4  A    between atoms: C_3  and  N_11
REMARK    5  A    between atoms: C_4  and  C_5
REMARK    6  A    between atoms: C_12  and  C_14
REMARK    7  A    between atoms: C_14  and  N_15
REMARK    8  A    between atoms: N_25  and  C_26
REMARK    9  A    between atoms: C_26  and  C_27
REMARK                            x       y       z     vdW  Elec       q    Type
REMARK                         _______ _______ _______ _____ _____    ______ ____
ROOT
ATOM      1  N   UNL     1       1.412   8.605  20.042  0.00  0.00    +0.000 N 
ATOM      2  N   UNL     1       1.193   8.368  21.412  0.00  0.00    +0.000 NA
ATOM      3  C   UNL     1       0.401   9.159  22.071  0.00  0.00    +0.000 A 
ATOM      4  C   UNL     1      -0.245  10.259  21.419  0.00  0.00    +0.000 A 
ATOM      5  C   UNL     1      -1.108  11.259  21.911  0.00  0.00    +0.000 A 
ATOM      6  C   UNL     1      -1.536  11.628  23.200  0.00  0.00    +0.000 A 
ATOM      7  C   UNL     1      -2.631  12.479  23.328  0.00  0.00    +0.000 A 
ATOM      8  C   UNL     1      -3.288  12.950  22.195  0.00  0.00    +0.000 A 
ATOM      9  C   UNL     1      -2.791  12.705  20.905  0.00  0.00    +0.000 A 
ATOM     10  C   UNL     1      -1.651  11.891  20.784  0.00  0.00    +0.000 A 
ATOM     11  N   UNL     1      -0.850  11.529  19.705  0.00  0.00    +0.000 N 
ATOM     12  C   UNL     1      -0.108  10.428  20.064  0.00  0.00    +0.000 A 
ATOM     13  C   UNL     1       0.735   9.574  19.274  0.00  0.00    +0.000 A 
ATOM     14  O   UNL     1       0.849   9.665  18.052  0.00  0.00    +0.000 OA
ENDROOT
BRANCH   1  15
ATOM     15  C   UNL     1       2.427   7.776  19.399  0.00  0.00    +0.000 C 
BRANCH  15  17
ATOM     16  N   UNL     1       2.846   5.440  18.815  0.00  0.00    +0.000 N 
ATOM     17  C   UNL     1       2.288   6.296  19.739  0.00  0.00    +0.000 C 
ATOM     18  O   UNL     1       1.596   5.905  20.676  0.00  0.00    +0.000 OA
ATOM     19  H   UNL     1       3.452   5.861  18.114  0.00  0.00    +0.000 HD
BRANCH  16  20
ATOM     20  C   UNL     1       2.792   3.988  18.938  0.00  0.00    +0.000 C 
BRANCH  20  22
ATOM     21  C   UNL     1       0.798   2.369  18.784  0.00  0.00    +0.000 C 
ATOM     22  C   UNL     1       1.617   3.454  18.101  0.00  0.00    +0.000 C 
ENDBRANCH  20  22
BRANCH  20  23
ATOM     23  C   UNL     1       4.166   3.338  18.654  0.00  0.00    +0.000 C 
BRANCH  23  24
ATOM     24  C   UNL     1       5.074   4.041  17.668  0.00  0.00    +0.000 A 
ATOM     25  C   UNL     1       6.271   4.633  18.091  0.00  0.00    +0.000 A 
ATOM     26  C   UNL     1       7.159   5.185  17.163  0.00  0.00    +0.000 A 
ATOM     27  C   UNL     1       6.853   5.164  15.804  0.00  0.00    +0.000 A 
ATOM     28  C   UNL     1       5.654   4.605  15.372  0.00  0.00    +0.000 A 
ATOM     29  C   UNL     1       4.771   4.046  16.298  0.00  0.00    +0.000 A 
ENDBRANCH  23  24
ENDBRANCH  20  23
ENDBRANCH  16  20
ENDBRANCH  15  17
ENDBRANCH   1  15
BRANCH  11  30
ATOM     30  C   UNL     1      -0.728  12.244  18.430  0.00  0.00    +0.000 C 
BRANCH  30  31
ATOM     31  C   UNL     1       0.256  13.401  18.518  0.00  0.00    +0.000 A 
ATOM     32  C   UNL     1       1.634  13.188  18.314  0.00  0.00    +0.000 A 
ATOM     33  C   UNL     1       2.545  14.245  18.402  0.00  0.00    +0.000 A 
ATOM     34  C   UNL     1       2.084  15.523  18.689  0.00  0.00    +0.000 A 
ATOM     35  F   UNL     1       2.950  16.537  18.780  0.00  0.00    +0.000 F 
ATOM     36  C   UNL     1       0.733  15.763  18.883  0.00  0.00    +0.000 A 
ATOM     37  C   UNL     1      -0.182  14.708  18.794  0.00  0.00    +0.000 A 
ENDBRANCH  30  31
ENDBRANCH  11  30
TORSDOF 8
ENDMDL
MODEL 5
REMARK VINA RESULT:      -8.5      1.485      3.158
REMARK  Name = 
REMARK  9 active torsions:
REMARK  status: ('A' for Active; 'I' for Inactive)
REMARK    1  A    between atoms: C_1  and  C_2
REMARK    2  A    between atoms: C_2  and  C_3
REMARK    3  A    between atoms: C_3  and  C_4
REMARK    4  A    between atoms: C_3  and  N_11
REMARK    5  A    between atoms: C_4  and  C_5
REMARK    6  A    between atoms: C_12  and  C_14
REMARK    7  A    between atoms: C_14  and  N_15
REMARK    8  A    between atoms: N_25  and  C_26
REMARK    9  A    between atoms: C_26  and  C_27
REMARK                            x       y       z     vdW  Elec       q    Type
REMARK                         _______ _______ _______ _____ _____    ______ ____
ROOT
ATOM      1  N   UNL     1       2.481   8.185  18.457  0.00  0.00    +0.000 N 
ATOM      2  N   UNL     1       2.285   7.376  19.591  0.00  0.00    +0.000 NA
ATOM      3  C   UNL     1       1.593   7.843  20.588  0.00  0.00    +0.000 A 
ATOM      4  C   UNL     1       1.035   9.161  20.538  0.00  0.00    +0.000 A 
ATOM      5  C   UNL     1       0.288   9.894  21.484  0.00  0.00    +0.000 A 
ATOM      6  C   UNL     1      -0.060   9.676  22.829  0.00  0.00    +0.000 A 
ATOM      7  C   UNL     1      -1.064  10.456  23.400  0.00  0.00    +0.000 A 
ATOM      8  C   UNL     1      -1.709  11.429  22.643  0.00  0.00    +0.000 A 
ATOM      9  C   UNL     1      -1.280  11.753  21.346  0.00  0.00    +0.000 A 
ATOM     10  C   UNL     1      -0.227  11.001  20.795  0.00  0.00    +0.000 A 
ATOM     11  N   UNL     1       0.499  11.104  19.613  0.00  0.00    +0.000 N 
ATOM     12  C   UNL     1       1.144   9.909  19.393  0.00  0.00    +0.000 A 
ATOM     13  C   UNL     1       1.875   9.440  18.248  0.00  0.00    +0.000 A 
ATOM     14  O   UNL     1       1.957  10.061  17.188  0.00  0.00    +0.000 OA
ENDROOT
BRANCH   1  15
ATOM     15  C   UNL     1       3.390   7.662  17.442  0.00  0.00    +0.000 C 
BRANCH  15  17
ATOM     16  N   UNL     1       4.925   5.959  18.291  0.00  0.00    +0.000 N 
ATOM     17  C   UNL     1       3.728   6.189  17.649  0.00  0.00    +0.000 C 
ATOM     18  O   UNL     1       3.062   5.290  17.139  0.00  0.00    +0.000 OA
ATOM     19  H   UNL     1       5.365   6.764  18.731  0.00  0.00    +0.000 HD
BRANCH  16  20
ATOM     20  C   UNL     1       5.445   4.623  18.556  0.00  0.00    +0.000 C 
BRANCH  20  22
ATOM     21  C   UNL     1       7.520   4.578  17.035  0.00  0.00    +0.000 C 
ATOM     22  C   UNL     1       6.979   4.650  18.456  0.00  0.00    +0.000 C 
ENDBRANCH  20  22
BRANCH  20  23
ATOM     23  C   UNL     1       4.870   4.033  19.864  0.00  0.00    +0.000 C 
BRANCH  23  24
ATOM     24  C   UNL     1       3.427   3.577  19.843  0.00  0.00    +0.000 A 
ATOM     25  C   UNL     1       3.026   2.504  19.035  0.00  0.00    +0.000 A 
ATOM     26  C   UNL     1       1.718   2.016  19.100  0.00  0.00    +0.000 A 
ATOM     27  C   UNL     1       0.794   2.603  19.961  0.00  0.00    +0.000 A 
ATOM     28  C   UNL     1       1.171   3.687  20.748  0.00  0.00    +0.000 A 
ATOM     29  C   UNL     1       2.479   4.170  20.690  0.00  0.00    +0.000 A 
ENDBRANCH  23  24
ENDBRANCH  20  23
ENDBRANCH  16  20
ENDBRANCH  15  17
ENDBRANCH   1  15
BRANCH  11  30
ATOM     30  C   UNL     1       0.648  12.303  18.781  0.00  0.00    +0.000 C 
BRANCH  30  31
ATOM     31  C   UNL     1       1.870  13.120  19.174  0.00  0.00    +0.000 A 
ATOM     32  C   UNL     1       2.694  13.699  18.187  0.00  0.00    +0.000 A 
ATOM     33  C   UNL     1       3.823  14.443  18.541  0.00  0.00    +0.000 A 
ATOM     34  C   UNL     1       4.134  14.620  19.883  0.00  0.00    +0.000 A 
ATOM     35  F   UNL     1       5.214  15.326  20.227  0.00  0.00    +0.000 F 
ATOM     36  C   UNL     1       3.334  14.072  20.874  0.00  0.00    +0.000 A 
ATOM     37  C   UNL     1       2.202  13.327  20.525  0.00  0.00    +0.000 A 
ENDBRANCH  30  31
ENDBRANCH  11  30
TORSDOF 8
ENDMDL
MODEL 6
REMARK VINA RESULT:      -8.4      0.900      1.247
REMARK  Name = 
REMARK  9 active torsions:
REMARK  status: ('A' for Active; 'I' for Inactive)
REMARK    1  A    between atoms: C_1  and  C_2
REMARK    2  A    between atoms: C_2  and  C_3
REMARK    3  A    between atoms: C_3  and  C_4
REMARK    4  A    between atoms: C_3  and  N_11
REMARK    5  A    between atoms: C_4  and  C_5
REMARK    6  A    between atoms: C_12  and  C_14
REMARK    7  A    between atoms: C_14  and  N_15
REMARK    8  A    between atoms: N_25  and  C_26
REMARK    9  A    between atoms: C_26  and  C_27
REMARK                            x       y       z     vdW  Elec       q    Type
REMARK                         _______ _______ _______ _____ _____    ______ ____
ROOT
ATOM      1  N   UNL     1       1.359   8.614  19.860  0.00  0.00    +0.000 N 
ATOM      2  N   UNL     1       1.181   8.341  21.229  0.00  0.00    +0.000 NA
ATOM      3  C   UNL     1       0.417   9.120  21.934  0.00  0.00    +0.000 A 
ATOM      4  C   UNL     1      -0.241  10.241  21.332  0.00  0.00    +0.000 A 
ATOM      5  C   UNL     1      -1.079  11.234  21.879  0.00  0.00    +0.000 A 
ATOM      6  C   UNL     1      -1.464  11.570  23.190  0.00  0.00    +0.000 A 
ATOM      7  C   UNL     1      -2.547  12.426  23.376  0.00  0.00    +0.000 A 
ATOM      8  C   UNL     1      -3.236  12.932  22.278  0.00  0.00    +0.000 A 
ATOM      9  C   UNL     1      -2.781  12.719  20.967  0.00  0.00    +0.000 A 
ATOM     10  C   UNL     1      -1.652  11.901  20.787  0.00  0.00    +0.000 A 
ATOM     11  N   UNL     1      -0.889  11.562  19.674  0.00  0.00    +0.000 N 
ATOM     12  C   UNL     1      -0.145  10.447  19.979  0.00  0.00    +0.000 A 
ATOM     13  C   UNL     1       0.666   9.608  19.140  0.00  0.00    +0.000 A 
ATOM     14  O   UNL     1       0.741   9.732  17.918  0.00  0.00    +0.000 OA
ENDROOT
BRANCH   1  15
ATOM     15  C   UNL     1       2.346   7.796  19.163  0.00  0.00    +0.000 C 
BRANCH  15  17
ATOM     16  N   UNL     1       2.873   5.453  18.708  0.00  0.00    +0.000 N 
ATOM     17  C   UNL     1       2.339   6.340  19.617  0.00  0.00    +0.000 C 
ATOM     18  O   UNL     1       1.757   5.979  20.637  0.00  0.00    +0.000 OA
ATOM     19  H   UNL     1       3.387   5.857  17.928  0.00  0.00    +0.000 HD
BRANCH  16  20
ATOM     20  C   UNL     1       2.930   4.014  18.936  0.00  0.00    +0.000 C 
BRANCH  20  22
ATOM     21  C   UNL     1       0.788   2.591  18.839  0.00  0.00    +0.000 C 
ATOM     22  C   UNL     1       1.871   3.322  18.060  0.00  0.00    +0.000 C 
ENDBRANCH  20  22
BRANCH  20  23
ATOM     23  C   UNL     1       4.370   3.469  18.802  0.00  0.00    +0.000 C 
BRANCH  23  24
ATOM     24  C   UNL     1       5.431   4.430  18.311  0.00  0.00    +0.000 A 
ATOM     25  C   UNL     1       6.186   5.188  19.216  0.00  0.00    +0.000 A 
ATOM     26  C   UNL     1       7.237   5.992  18.766  0.00  0.00    +0.000 A 
ATOM     27  C   UNL     1       7.537   6.058  17.407  0.00  0.00    +0.000 A 
ATOM     28  C   UNL     1       6.776   5.332  16.495  0.00  0.00    +0.000 A 
ATOM     29  C   UNL     1       5.731   4.523  16.944  0.00  0.00    +0.000 A 
ENDBRANCH  23  24
ENDBRANCH  20  23
ENDBRANCH  16  20
ENDBRANCH  15  17
ENDBRANCH   1  15
BRANCH  11  30
ATOM     30  C   UNL     1      -0.801  12.311  18.415  0.00  0.00    +0.000 C 
BRANCH  30  31
ATOM     31  C   UNL     1       0.206  13.448  18.498  0.00  0.00    +0.000 A 
ATOM     32  C   UNL     1      -0.213  14.757  18.809  0.00  0.00    +0.000 A 
ATOM     33  C   UNL     1       0.706  15.808  18.878  0.00  0.00    +0.000 A 
ATOM     34  C   UNL     1       2.052  15.557  18.641  0.00  0.00    +0.000 A 
ATOM     35  F   UNL     1       2.935  16.558  18.700  0.00  0.00    +0.000 F 
ATOM     36  C   UNL     1       2.493  14.277  18.344  0.00  0.00    +0.000 A 
ATOM     37  C   UNL     1       1.576  13.222  18.276  0.00  0.00    +0.000 A 
ENDBRANCH  30  31
ENDBRANCH  11  30
TORSDOF 8
ENDMDL
MODEL 7
REMARK VINA RESULT:      -8.3      2.370      4.289
REMARK  Name = 
REMARK  9 active torsions:
REMARK  status: ('A' for Active; 'I' for Inactive)
REMARK    1  A    between atoms: C_1  and  C_2
REMARK    2  A    between atoms: C_2  and  C_3
REMARK    3  A    between atoms: C_3  and  C_4
REMARK    4  A    between atoms: C_3  and  N_11
REMARK    5  A    between atoms: C_4  and  C_5
REMARK    6  A    between atoms: C_12  and  C_14
REMARK    7  A    between atoms: C_14  and  N_15
REMARK    8  A    between atoms: N_25  and  C_26
REMARK    9  A    between atoms: C_26  and  C_27
REMARK                            x       y       z     vdW  Elec       q    Type
REMARK                         _______ _______ _______ _____ _____    ______ ____
ROOT
ATOM      1  N   UNL     1       1.225  10.356  18.283  0.00  0.00    +0.000 N 
ATOM      2  N   UNL     1       2.376  11.138  18.078  0.00  0.00    +0.000 NA
ATOM      3  C   UNL     1       2.323  12.415  18.314  0.00  0.00    +0.000 A 
ATOM      4  C   UNL     1       1.112  13.024  18.778  0.00  0.00    +0.000 A 
ATOM      5  C   UNL     1       0.796  14.366  19.070  0.00  0.00    +0.000 A 
ATOM      6  C   UNL     1       1.474  15.587  18.895  0.00  0.00    +0.000 A 
ATOM      7  C   UNL     1       1.011  16.717  19.564  0.00  0.00    +0.000 A 
ATOM      8  C   UNL     1      -0.103  16.632  20.394  0.00  0.00    +0.000 A 
ATOM      9  C   UNL     1      -0.872  15.458  20.470  0.00  0.00    +0.000 A 
ATOM     10  C   UNL     1      -0.431  14.336  19.747  0.00  0.00    +0.000 A 
ATOM     11  N   UNL     1      -0.978  13.077  19.518  0.00  0.00    +0.000 N 
ATOM     12  C   UNL     1       0.021  12.244  19.070  0.00  0.00    +0.000 A 
ATOM     13  C   UNL     1       0.024  10.824  18.853  0.00  0.00    +0.000 A 
ATOM     14  O   UNL     1      -0.917  10.085  19.145  0.00  0.00    +0.000 OA
ENDROOT
BRANCH   1  15
ATOM     15  C   UNL     1       1.307   8.963  17.855  0.00  0.00    +0.000 C 
BRANCH  15  17
ATOM     16  N   UNL     1       2.423   6.863  18.422  0.00  0.00    +0.000 N 
ATOM     17  C   UNL     1       1.928   8.053  18.909  0.00  0.00    +0.000 C 
ATOM     18  O   UNL     1       1.844   8.297  20.111  0.00  0.00    +0.000 OA
ATOM     19  H   UNL     1       2.506   6.787  17.411  0.00  0.00    +0.000 HD
BRANCH  16  20
ATOM     20  C   UNL     1       3.026   5.842  19.271  0.00  0.00    +0.000 C 
BRANCH  20  22
ATOM     21  C   UNL     1       1.561   4.344  17.779  0.00  0.00    +0.000 C 
ATOM     22  C   UNL     1       2.227   4.536  19.133  0.00  0.00    +0.000 C 
ENDBRANCH  20  22
BRANCH  20  23
ATOM     23  C   UNL     1       4.548   5.724  19.030  0.00  0.00    +0.000 C 
BRANCH  23  24
ATOM     24  C   UNL     1       5.006   5.441  17.616  0.00  0.00    +0.000 A 
ATOM     25  C   UNL     1       5.330   4.138  17.214  0.00  0.00    +0.000 A 
ATOM     26  C   UNL     1       5.647   3.863  15.881  0.00  0.00    +0.000 A 
ATOM     27  C   UNL     1       5.656   4.888  14.938  0.00  0.00    +0.000 A 
ATOM     28  C   UNL     1       5.364   6.191  15.329  0.00  0.00    +0.000 A 
ATOM     29  C   UNL     1       5.040   6.465  16.659  0.00  0.00    +0.000 A 
ENDBRANCH  23  24
ENDBRANCH  20  23
ENDBRANCH  16  20
ENDBRANCH  15  17
ENDBRANCH   1  15
BRANCH  11  30
ATOM     30  C   UNL     1      -2.392  12.706  19.630  0.00  0.00    +0.000 C 
BRANCH  30  31
ATOM     31  C   UNL     1      -2.842  12.607  21.080  0.00  0.00    +0.000 A 
ATOM     32  C   UNL     1      -4.122  13.055  21.467  0.00  0.00    +0.000 A 
ATOM     33  C   UNL     1      -4.538  12.976  22.799  0.00  0.00    +0.000 A 
ATOM     34  C   UNL     1      -3.680  12.443  23.753  0.00  0.00    +0.000 A 
ATOM     35  F   UNL     1      -4.071  12.370  25.029  0.00  0.00    +0.000 F 
ATOM     36  C   UNL     1      -2.422  11.986  23.399  0.00  0.00    +0.000 A 
ATOM     37  C   UNL     1      -2.001  12.062  22.066  0.00  0.00    +0.000 A 
ENDBRANCH  30  31
ENDBRANCH  11  30
TORSDOF 8
ENDMDL
MODEL 8
REMARK VINA RESULT:      -8.3      1.209      3.147
REMARK  Name = 
REMARK  9 active torsions:
REMARK  status: ('A' for Active; 'I' for Inactive)
REMARK    1  A    between atoms: C_1  and  C_2
REMARK    2  A    between atoms: C_2  and  C_3
REMARK    3  A    between atoms: C_3  and  C_4
REMARK    4  A    between atoms: C_3  and  N_11
REMARK    5  A    between atoms: C_4  and  C_5
REMARK    6  A    between atoms: C_12  and  C_14
REMARK    7  A    between atoms: C_14  and  N_15
REMARK    8  A    between atoms: N_25  and  C_26
REMARK    9  A    between atoms: C_26  and  C_27
REMARK                            x       y       z     vdW  Elec       q    Type
REMARK                         _______ _______ _______ _____ _____    ______ ____
ROOT
ATOM      1  N   UNL     1       2.343   8.302  18.759  0.00  0.00    +0.000 N 
ATOM      2  N   UNL     1       2.087   7.581  19.940  0.00  0.00    +0.000 NA
ATOM      3  C   UNL     1       1.348   8.121  20.863  0.00  0.00    +0.000 A 
ATOM      4  C   UNL     1       0.798   9.432  20.686  0.00  0.00    +0.000 A 
ATOM      5  C   UNL     1       0.008  10.234  21.535  0.00  0.00    +0.000 A 
ATOM      6  C   UNL     1      -0.409  10.118  22.874  0.00  0.00    +0.000 A 
ATOM      7  C   UNL     1      -1.437  10.938  23.334  0.00  0.00    +0.000 A 
ATOM      8  C   UNL     1      -2.040  11.852  22.475  0.00  0.00    +0.000 A 
ATOM      9  C   UNL     1      -1.544  12.078  21.180  0.00  0.00    +0.000 A 
ATOM     10  C   UNL     1      -0.468  11.286  20.741  0.00  0.00    +0.000 A 
ATOM     11  N   UNL     1       0.317  11.300  19.592  0.00  0.00    +0.000 N 
ATOM     12  C   UNL     1       0.967  10.092  19.495  0.00  0.00    +0.000 A 
ATOM     13  C   UNL     1       1.753   9.539  18.427  0.00  0.00    +0.000 A 
ATOM     14  O   UNL     1       1.891  10.078  17.329  0.00  0.00    +0.000 OA
ENDROOT
BRANCH   1  15
ATOM     15  C   UNL     1       3.300   7.705  17.834  0.00  0.00    +0.000 C 
BRANCH  15  17
ATOM     16  N   UNL     1       4.311   5.520  17.410  0.00  0.00    +0.000 N 
ATOM     17  C   UNL     1       3.148   6.192  17.717  0.00  0.00    +0.000 C 
ATOM     18  O   UNL     1       2.048   5.644  17.735  0.00  0.00    +0.000 OA
ATOM     19  H   UNL     1       5.175   6.052  17.484  0.00  0.00    +0.000 HD
BRANCH  16  20
ATOM     20  C   UNL     1       4.373   4.075  17.222  0.00  0.00    +0.000 C 
BRANCH  20  22
ATOM     21  C   UNL     1       6.635   4.632  16.131  0.00  0.00    +0.000 C 
ATOM     22  C   UNL     1       5.392   3.754  16.117  0.00  0.00    +0.000 C 
ENDBRANCH  20  22
BRANCH  20  23
ATOM     23  C   UNL     1       4.580   3.332  18.561  0.00  0.00    +0.000 C 
BRANCH  23  24
ATOM     24  C   UNL     1       3.366   3.143  19.444  0.00  0.00    +0.000 A 
ATOM     25  C   UNL     1       3.243   3.840  20.654  0.00  0.00    +0.000 A 
ATOM     26  C   UNL     1       2.073   3.747  21.413  0.00  0.00    +0.000 A 
ATOM     27  C   UNL     1       1.019   2.948  20.978  0.00  0.00    +0.000 A 
ATOM     28  C   UNL     1       1.138   2.228  19.793  0.00  0.00    +0.000 A 
ATOM     29  C   UNL     1       2.303   2.327  19.030  0.00  0.00    +0.000 A 
ENDBRANCH  23  24
ENDBRANCH  20  23
ENDBRANCH  16  20
ENDBRANCH  15  17
ENDBRANCH   1  15
BRANCH  11  30
ATOM     30  C   UNL     1       0.513  12.434  18.682  0.00  0.00    +0.000 C 
BRANCH  30  31
ATOM     31  C   UNL     1       1.376  13.521  19.303  0.00  0.00    +0.000 A 
ATOM     32  C   UNL     1       2.220  13.231  20.395  0.00  0.00    +0.000 A 
ATOM     33  C   UNL     1       3.009  14.228  20.977  0.00  0.00    +0.000 A 
ATOM     34  C   UNL     1       2.965  15.520  20.468  0.00  0.00    +0.000 A 
ATOM     35  F   UNL     1       3.714  16.477  21.023  0.00  0.00    +0.000 F 
ATOM     36  C   UNL     1       2.154  15.829  19.388  0.00  0.00    +0.000 A 
ATOM     37  C   UNL     1       1.363  14.835  18.802  0.00  0.00    +0.000 A 
ENDBRANCH  30  31
ENDBRANCH  11  30
TORSDOF 8
ENDMDL
MODEL 9
REMARK VINA RESULT:      -8.2      2.366      4.346
REMARK  Name = 
REMARK  9 active torsions:
REMARK  status: ('A' for Active; 'I' for Inactive)
REMARK    1  A    between atoms: C_1  and  C_2
REMARK    2  A    between atoms: C_2  and  C_3
REMARK    3  A    between atoms: C_3  and  C_4
REMARK    4  A    between atoms: C_3  and  N_11
REMARK    5  A    between atoms: C_4  and  C_5
REMARK    6  A    between atoms: C_12  and  C_14
REMARK    7  A    between atoms: C_14  and  N_15
REMARK    8  A    between atoms: N_25  and  C_26
REMARK    9  A    between atoms: C_26  and  C_27
REMARK                            x       y       z     vdW  Elec       q    Type
REMARK                         _______ _______ _______ _____ _____    ______ ____
ROOT
ATOM      1  N   UNL     1       1.233  10.443  18.334  0.00  0.00    +0.000 N 
ATOM      2  N   UNL     1       2.370  11.247  18.138  0.00  0.00    +0.000 NA
ATOM      3  C   UNL     1       2.293  12.521  18.381  0.00  0.00    +0.000 A 
ATOM      4  C   UNL     1       1.070  13.106  18.844  0.00  0.00    +0.000 A 
ATOM      5  C   UNL     1       0.730  14.441  19.143  0.00  0.00    +0.000 A 
ATOM      6  C   UNL     1       1.386  15.674  18.977  0.00  0.00    +0.000 A 
ATOM      7  C   UNL     1       0.900  16.792  19.651  0.00  0.00    +0.000 A 
ATOM      8  C   UNL     1      -0.215  16.682  20.477  0.00  0.00    +0.000 A 
ATOM      9  C   UNL     1      -0.962  15.495  20.544  0.00  0.00    +0.000 A 
ATOM     10  C   UNL     1      -0.499  14.385  19.816  0.00  0.00    +0.000 A 
ATOM     11  N   UNL     1      -1.023  13.118  19.577  0.00  0.00    +0.000 N 
ATOM     12  C   UNL     1      -0.007  12.306  19.128  0.00  0.00    +0.000 A 
ATOM     13  C   UNL     1       0.021  10.887  18.903  0.00  0.00    +0.000 A 
ATOM     14  O   UNL     1      -0.907  10.130  19.187  0.00  0.00    +0.000 OA
ENDROOT
BRANCH   1  15
ATOM     15  C   UNL     1       1.341   9.055  17.898  0.00  0.00    +0.000 C 
BRANCH  15  17
ATOM     16  N   UNL     1       2.425   6.952  18.515  0.00  0.00    +0.000 N 
ATOM     17  C   UNL     1       1.891   8.134  18.982  0.00  0.00    +0.000 C 
ATOM     18  O   UNL     1       1.722   8.361  20.178  0.00  0.00    +0.000 OA
ATOM     19  H   UNL     1       2.579   6.890  17.511  0.00  0.00    +0.000 HD
BRANCH  16  20
ATOM     20  C   UNL     1       2.972   5.923  19.390  0.00  0.00    +0.000 C 
BRANCH  20  22
ATOM     21  C   UNL     1       1.512   4.314  20.769  0.00  0.00    +0.000 C 
ATOM     22  C   UNL     1       2.027   4.709  19.393  0.00  0.00    +0.000 C 
ENDBRANCH  20  22
BRANCH  20  23
ATOM     23  C   UNL     1       4.452   5.618  19.061  0.00  0.00    +0.000 C 
BRANCH  23  24
ATOM     24  C   UNL     1       4.800   5.364  17.611  0.00  0.00    +0.000 A 
ATOM     25  C   UNL     1       4.983   6.429  16.719  0.00  0.00    +0.000 A 
ATOM     26  C   UNL     1       5.411   6.195  15.410  0.00  0.00    +0.000 A 
ATOM     27  C   UNL     1       5.648   4.894  14.973  0.00  0.00    +0.000 A 
ATOM     28  C   UNL     1       5.443   3.824  15.839  0.00  0.00    +0.000 A 
ATOM     29  C   UNL     1       5.023   4.058  17.150  0.00  0.00    +0.000 A 
ENDBRANCH  23  24
ENDBRANCH  20  23
ENDBRANCH  16  20
ENDBRANCH  15  17
ENDBRANCH   1  15
BRANCH  11  30
ATOM     30  C   UNL     1      -2.431  12.721  19.682  0.00  0.00    +0.000 C 
BRANCH  30  31
ATOM     31  C   UNL     1      -2.889  12.625  21.130  0.00  0.00    +0.000 A 
ATOM     32  C   UNL     1      -2.040  12.085  22.117  0.00  0.00    +0.000 A 
ATOM     33  C   UNL     1      -2.458  11.984  23.447  0.00  0.00    +0.000 A 
ATOM     34  C   UNL     1      -3.725  12.430  23.802  0.00  0.00    +0.000 A 
ATOM     35  F   UNL     1      -4.131  12.333  25.071  0.00  0.00    +0.000 F 
ATOM     36  C   UNL     1      -4.575  12.976  22.854  0.00  0.00    +0.000 A 
ATOM     37  C   UNL     1      -4.161  13.079  21.521  0.00  0.00    +0.000 A 
ENDBRANCH  30  31
ENDBRANCH  11  30
TORSDOF 8
ENDMDL
