MODEL 1
REMARK VINA RESULT:      -7.2      0.000      0.000
REMARK  Name = 
REMARK  8 active torsions:
REMARK  status: ('A' for Active; 'I' for Inactive)
REMARK    1  A    between atoms: C_1  and  O_2
REMARK    2  A    between atoms: O_2  and  C_3
REMARK    3  A    between atoms: C_3  and  C_5
REMARK    4  A    between atoms: C_9  and  C_10
REMARK    5  A    between atoms: C_10  and  N_11
REMARK    6  A    between atoms: C_12  and  C_14
REMARK    7  A    between atoms: C_14  and  C_15
REMARK    8  A    between atoms: C_15  and  C_16
REMARK                            x       y       z     vdW  Elec       q    Type
REMARK                         _______ _______ _______ _____ _____    ______ ____
ROOT
ATOM      1  C   UNL     1       2.905   6.037  17.985  0.00  0.00    +0.000 C 
ENDROOT
BRANCH   1   6
ATOM      2  C   UNL     1       6.215   5.193  16.270  0.00  0.00    +0.000 A 
ATOM      3  C   UNL     1       7.037   4.957  17.379  0.00  0.00    +0.000 A 
ATOM      4  C   UNL     1       6.532   5.103  18.672  0.00  0.00    +0.000 A 
ATOM      5  C   UNL     1       5.200   5.475  18.864  0.00  0.00    +0.000 A 
ATOM      6  C   UNL     1       4.356   5.700  17.766  0.00  0.00    +0.000 A 
ATOM      7  C   UNL     1       4.880   5.580  16.469  0.00  0.00    +0.000 A 
BRANCH   2   8
ATOM      8  C   UNL     1       6.709   5.018  14.874  0.00  0.00    +0.000 C 
ATOM      9  O   UNL     1       7.829   5.332  14.505  0.00  0.00    +0.000 OA
BRANCH   8  11
ATOM     10  C   UNL     1       6.198   3.598  13.078  0.00  0.00    +0.000 C 
ATOM     11  O   UNL     1       5.733   4.487  14.094  0.00  0.00    +0.000 OA
ENDBRANCH   8  11
ENDBRANCH   2   8
ENDBRANCH   1   6
BRANCH   1  12
ATOM     12  N   UNL     1       2.202   5.005  18.711  0.00  0.00    +0.000 N 
ATOM     13  C   UNL     1       1.804   3.859  18.063  0.00  0.00    +0.000 C 
ATOM     14  O   UNL     1       1.934   3.684  16.856  0.00  0.00    +0.000 OA
ATOM     15  H   UNL     1       2.117   5.086  19.716  0.00  0.00    +0.000 HD
BRANCH  13  16
ATOM     16  C   UNL     1       1.161   2.829  18.964  0.00  0.00    +0.000 C 
BRANCH  16  17
ATOM     17  C   UNL     1       0.880   3.397  20.354  0.00  0.00    +0.000 C 
BRANCH  17  18
ATOM     18  C   UNL     1       1.907   2.970  21.388  0.00  0.00    +0.000 C 
ATOM     19  F   UNL     1       2.399   4.006  22.100  0.00  0.00    +0.000 F 
ATOM     20  F   UNL     1       1.340   2.119  22.278  0.00  0.00    +0.000 F 
ATOM     21  F   UNL     1       2.943   2.318  20.821  0.00  0.00    +0.000 F 
ENDBRANCH  17  18
ENDBRANCH  16  17
ENDBRANCH  13  16
ENDBRANCH   1  12
TORSDOF 7
ENDMDL
MODEL 2
REMARK VINA RESULT:      -7.2      0.702      1.332
REMARK  Name = 
REMARK  8 active torsions:
REMARK  status: ('A' for Active; 'I' for Inactive)
REMARK    1  A    between atoms: C_1  and  O_2
REMARK    2  A    between atoms: O_2  and  C_3
REMARK    3  A    between atoms: C_3  and  C_5
REMARK    4  A    between atoms: C_9  and  C_10
REMARK    5  A    between atoms: C_10  and  N_11
REMARK    6  A    between atoms: C_12  and  C_14
REMARK    7  A    between atoms: C_14  and  C_15
REMARK    8  A    between atoms: C_15  and  C_16
REMARK                            x       y       z     vdW  Elec       q    Type
REMARK                         _______ _______ _______ _____ _____    ______ ____
ROOT
ATOM      1  C   UNL     1       3.165   5.925  17.805  0.00  0.00    +0.000 C 
ENDROOT
BRANCH   1   6
ATOM      2  C   UNL     1       6.380   4.930  15.993  0.00  0.00    +0.000 A 
ATOM      3  C   UNL     1       7.259   4.782  17.074  0.00  0.00    +0.000 A 
ATOM      4  C   UNL     1       6.824   5.037  18.374  0.00  0.00    +0.000 A 
ATOM      5  C   UNL     1       5.503   5.429  18.605  0.00  0.00    +0.000 A 
ATOM      6  C   UNL     1       4.602   5.566  17.539  0.00  0.00    +0.000 A 
ATOM      7  C   UNL     1       5.057   5.338  16.230  0.00  0.00    +0.000 A 
BRANCH   2   8
ATOM      8  C   UNL     1       6.799   4.639  14.592  0.00  0.00    +0.000 C 
ATOM      9  O   UNL     1       6.296   3.769  13.900  0.00  0.00    +0.000 OA
BRANCH   8  11
ATOM     10  C   UNL     1       8.087   5.485  12.825  0.00  0.00    +0.000 C 
ATOM     11  O   UNL     1       7.816   5.459  14.226  0.00  0.00    +0.000 OA
ENDBRANCH   8  11
ENDBRANCH   2   8
ENDBRANCH   1   6
BRANCH   1  12
ATOM     12  N   UNL     1       2.507   4.970  18.665  0.00  0.00    +0.000 N 
ATOM     13  C   UNL     1       1.611   4.072  18.133  0.00  0.00    +0.000 C 
ATOM     14  O   UNL     1       1.259   4.082  16.958  0.00  0.00    +0.000 OA
ATOM     15  H   UNL     1       2.803   4.894  19.629  0.00  0.00    +0.000 HD
BRANCH  13  16
ATOM     16  C   UNL     1       1.068   3.074  19.131  0.00  0.00    +0.000 C 
BRANCH  16  17
ATOM     17  C   UNL     1       1.015   3.662  20.540  0.00  0.00    +0.000 C 
BRANCH  17  18
ATOM     18  C   UNL     1       2.019   3.026  21.486  0.00  0.00    +0.000 C 
ATOM     19  F   UNL     1       1.507   1.985  22.175  0.00  0.00    +0.000 F 
ATOM     20  F   UNL     1       3.076   2.548  20.783  0.00  0.00    +0.000 F 
ATOM     21  F   UNL     1       2.504   3.921  22.371  0.00  0.00    +0.000 F 
ENDBRANCH  17  18
ENDBRANCH  16  17
ENDBRANCH  13  16
ENDBRANCH   1  12
TORSDOF 7
ENDMDL
MODEL 3
REMARK VINA RESULT:      -7.2      4.656      7.505
REMARK  Name = 
REMARK  8 active torsions:
REMARK  status: ('A' for Active; 'I' for Inactive)
REMARK    1  A    between atoms: C_1  and  O_2
REMARK    2  A    between atoms: O_2  and  C_3
REMARK    3  A    between atoms: C_3  and  C_5
REMARK    4  A    between atoms: C_9  and  C_10
REMARK    5  A    between atoms: C_10  and  N_11
REMARK    6  A    between atoms: C_12  and  C_14
REMARK    7  A    between atoms: C_14  and  C_15
REMARK    8  A    between atoms: C_15  and  C_16
REMARK                            x       y       z     vdW  Elec       q    Type
REMARK                         _______ _______ _______ _____ _____    ______ ____
ROOT
ATOM      1  C   UNL     1       5.858   4.322  17.710  0.00  0.00    +0.000 C 
ENDROOT
BRANCH   1   6
ATOM      2  C   UNL     1       2.481   4.509  19.491  0.00  0.00    +0.000 A 
ATOM      3  C   UNL     1       1.639   3.944  18.524  0.00  0.00    +0.000 A 
ATOM      4  C   UNL     1       2.155   3.538  17.293  0.00  0.00    +0.000 A 
ATOM      5  C   UNL     1       3.518   3.683  17.024  0.00  0.00    +0.000 A 
ATOM      6  C   UNL     1       4.381   4.231  17.985  0.00  0.00    +0.000 A 
ATOM      7  C   UNL     1       3.848   4.665  19.210  0.00  0.00    +0.000 A 
BRANCH   2   8
ATOM      8  C   UNL     1       1.974   4.927  20.829  0.00  0.00    +0.000 C 
ATOM      9  O   UNL     1       1.374   5.970  21.032  0.00  0.00    +0.000 OA
BRANCH   8  11
ATOM     10  C   UNL     1       1.557   2.779  21.673  0.00  0.00    +0.000 C 
ATOM     11  O   UNL     1       2.294   3.998  21.764  0.00  0.00    +0.000 OA
ENDBRANCH   8  11
ENDBRANCH   2   8
ENDBRANCH   1   6
BRANCH   1  12
ATOM     12  N   UNL     1       6.175   4.110  16.317  0.00  0.00    +0.000 N 
ATOM     13  C   UNL     1       6.911   5.048  15.630  0.00  0.00    +0.000 C 
ATOM     14  O   UNL     1       7.254   6.123  16.110  0.00  0.00    +0.000 OA
ATOM     15  H   UNL     1       5.954   3.217  15.896  0.00  0.00    +0.000 HD
BRANCH  13  16
ATOM     16  C   UNL     1       7.244   4.653  14.208  0.00  0.00    +0.000 C 
BRANCH  16  17
ATOM     17  C   UNL     1       6.162   3.760  13.605  0.00  0.00    +0.000 C 
BRANCH  17  18
ATOM     18  C   UNL     1       6.348   3.527  12.115  0.00  0.00    +0.000 C 
ATOM     19  F   UNL     1       5.194   3.620  11.421  0.00  0.00    +0.000 F 
ATOM     20  F   UNL     1       7.188   4.460  11.604  0.00  0.00    +0.000 F 
ATOM     21  F   UNL     1       6.896   2.320  11.865  0.00  0.00    +0.000 F 
ENDBRANCH  17  18
ENDBRANCH  16  17
ENDBRANCH  13  16
ENDBRANCH   1  12
TORSDOF 7
ENDMDL
MODEL 4
REMARK VINA RESULT:      -7.1      4.390      7.184
REMARK  Name = 
REMARK  8 active torsions:
REMARK  status: ('A' for Active; 'I' for Inactive)
REMARK    1  A    between atoms: C_1  and  O_2
REMARK    2  A    between atoms: O_2  and  C_3
REMARK    3  A    between atoms: C_3  and  C_5
REMARK    4  A    between atoms: C_9  and  C_10
REMARK    5  A    between atoms: C_10  and  N_11
REMARK    6  A    between atoms: C_12  and  C_14
REMARK    7  A    between atoms: C_14  and  C_15
REMARK    8  A    between atoms: C_15  and  C_16
REMARK                            x       y       z     vdW  Elec       q    Type
REMARK                         _______ _______ _______ _____ _____    ______ ____
ROOT
ATOM      1  C   UNL     1       6.007   4.568  17.716  0.00  0.00    +0.000 C 
ENDROOT
BRANCH   1   6
ATOM      2  C   UNL     1       2.741   5.023  19.649  0.00  0.00    +0.000 A 
ATOM      3  C   UNL     1       2.269   6.221  19.098  0.00  0.00    +0.000 A 
ATOM      4  C   UNL     1       3.020   6.893  18.133  0.00  0.00    +0.000 A 
ATOM      5  C   UNL     1       4.240   6.367  17.705  0.00  0.00    +0.000 A 
ATOM      6  C   UNL     1       4.722   5.160  18.232  0.00  0.00    +0.000 A 
ATOM      7  C   UNL     1       3.975   4.505  19.225  0.00  0.00    +0.000 A 
BRANCH   2   8
ATOM      8  C   UNL     1       1.954   4.259  20.660  0.00  0.00    +0.000 C 
ATOM      9  O   UNL     1       2.383   3.947  21.759  0.00  0.00    +0.000 OA
BRANCH   8  11
ATOM     10  C   UNL     1       0.692   2.822  19.303  0.00  0.00    +0.000 C 
ATOM     11  O   UNL     1       0.726   3.956  20.169  0.00  0.00    +0.000 OA
ENDBRANCH   8  11
ENDBRANCH   2   8
ENDBRANCH   1   6
BRANCH   1  12
ATOM     12  N   UNL     1       6.010   4.423  16.279  0.00  0.00    +0.000 N 
ATOM     13  C   UNL     1       6.878   5.170  15.516  0.00  0.00    +0.000 C 
ATOM     14  O   UNL     1       7.611   6.038  15.979  0.00  0.00    +0.000 OA
ATOM     15  H   UNL     1       5.457   3.687  15.860  0.00  0.00    +0.000 HD
BRANCH  13  16
ATOM     16  C   UNL     1       6.836   4.851  14.039  0.00  0.00    +0.000 C 
BRANCH  16  17
ATOM     17  C   UNL     1       5.921   3.663  13.747  0.00  0.00    +0.000 C 
BRANCH  17  18
ATOM     18  C   UNL     1       5.850   3.319  12.269  0.00  0.00    +0.000 C 
ATOM     19  F   UNL     1       5.756   1.991  12.043  0.00  0.00    +0.000 F 
ATOM     20  F   UNL     1       4.750   3.888  11.716  0.00  0.00    +0.000 F 
ATOM     21  F   UNL     1       6.920   3.787  11.597  0.00  0.00    +0.000 F 
ENDBRANCH  17  18
ENDBRANCH  16  17
ENDBRANCH  13  16
ENDBRANCH   1  12
TORSDOF 7
ENDMDL
MODEL 5
REMARK VINA RESULT:      -7.0      1.960      2.943
REMARK  Name = 
REMARK  8 active torsions:
REMARK  status: ('A' for Active; 'I' for Inactive)
REMARK    1  A    between atoms: C_1  and  O_2
REMARK    2  A    between atoms: O_2  and  C_3
REMARK    3  A    between atoms: C_3  and  C_5
REMARK    4  A    between atoms: C_9  and  C_10
REMARK    5  A    between atoms: C_10  and  N_11
REMARK    6  A    between atoms: C_12  and  C_14
REMARK    7  A    between atoms: C_14  and  C_15
REMARK    8  A    between atoms: C_15  and  C_16
REMARK                            x       y       z     vdW  Elec       q    Type
REMARK                         _______ _______ _______ _____ _____    ______ ____
ROOT
ATOM      1  C   UNL     1       3.977   3.151  17.190  0.00  0.00    +0.000 C 
ENDROOT
BRANCH   1   6
ATOM      2  C   UNL     1       6.808   5.699  16.857  0.00  0.00    +0.000 A 
ATOM      3  C   UNL     1       7.120   5.573  15.497  0.00  0.00    +0.000 A 
ATOM      4  C   UNL     1       6.443   4.647  14.703  0.00  0.00    +0.000 A 
ATOM      5  C   UNL     1       5.442   3.848  15.260  0.00  0.00    +0.000 A 
ATOM      6  C   UNL     1       5.102   3.970  16.616  0.00  0.00    +0.000 A 
ATOM      7  C   UNL     1       5.810   4.883  17.415  0.00  0.00    +0.000 A 
BRANCH   2   8
ATOM      8  C   UNL     1       7.487   6.697  17.731  0.00  0.00    +0.000 C 
ATOM      9  O   UNL     1       8.044   6.414  18.779  0.00  0.00    +0.000 OA
BRANCH   8  11
ATOM     10  C   UNL     1       8.061   8.963  17.921  0.00  0.00    +0.000 C 
ATOM     11  O   UNL     1       7.373   7.941  17.200  0.00  0.00    +0.000 OA
ENDBRANCH   8  11
ENDBRANCH   2   8
ENDBRANCH   1   6
BRANCH   1  12
ATOM     12  N   UNL     1       3.366   3.780  18.337  0.00  0.00    +0.000 N 
ATOM     13  C   UNL     1       2.045   4.162  18.288  0.00  0.00    +0.000 C 
ATOM     14  O   UNL     1       1.354   4.079  17.278  0.00  0.00    +0.000 OA
ATOM     15  H   UNL     1       3.884   3.823  19.206  0.00  0.00    +0.000 HD
BRANCH  13  16
ATOM     16  C   UNL     1       1.513   4.723  19.588  0.00  0.00    +0.000 C 
BRANCH  16  17
ATOM     17  C   UNL     1       0.859   3.638  20.441  0.00  0.00    +0.000 C 
BRANCH  17  18
ATOM     18  C   UNL     1       1.782   3.096  21.520  0.00  0.00    +0.000 C 
ATOM     19  F   UNL     1       2.435   4.068  22.191  0.00  0.00    +0.000 F 
ATOM     20  F   UNL     1       1.061   2.405  22.438  0.00  0.00    +0.000 F 
ATOM     21  F   UNL     1       2.697   2.246  21.011  0.00  0.00    +0.000 F 
ENDBRANCH  17  18
ENDBRANCH  16  17
ENDBRANCH  13  16
ENDBRANCH   1  12
TORSDOF 7
ENDMDL
MODEL 6
REMARK VINA RESULT:      -7.0      1.711      2.139
REMARK  Name = 
REMARK  8 active torsions:
REMARK  status: ('A' for Active; 'I' for Inactive)
REMARK    1  A    between atoms: C_1  and  O_2
REMARK    2  A    between atoms: O_2  and  C_3
REMARK    3  A    between atoms: C_3  and  C_5
REMARK    4  A    between atoms: C_9  and  C_10
REMARK    5  A    between atoms: C_10  and  N_11
REMARK    6  A    between atoms: C_12  and  C_14
REMARK    7  A    between atoms: C_14  and  C_15
REMARK    8  A    between atoms: C_15  and  C_16
REMARK                            x       y       z     vdW  Elec       q    Type
REMARK                         _______ _______ _______ _____ _____    ______ ____
ROOT
ATOM      1  C   UNL     1       3.548   6.338  17.781  0.00  0.00    +0.000 C 
ENDROOT
BRANCH   1   6
ATOM      2  C   UNL     1       6.548   4.939  15.868  0.00  0.00    +0.000 A 
ATOM      3  C   UNL     1       7.420   4.641  16.923  0.00  0.00    +0.000 A 
ATOM      4  C   UNL     1       7.054   4.922  18.239  0.00  0.00    +0.000 A 
ATOM      5  C   UNL     1       5.808   5.493  18.511  0.00  0.00    +0.000 A 
ATOM      6  C   UNL     1       4.913   5.784  17.471  0.00  0.00    +0.000 A 
ATOM      7  C   UNL     1       5.302   5.526  16.147  0.00  0.00    +0.000 A 
BRANCH   2   8
ATOM      8  C   UNL     1       6.890   4.626  14.451  0.00  0.00    +0.000 C 
ATOM      9  O   UNL     1       6.350   3.746  13.801  0.00  0.00    +0.000 OA
BRANCH   8  11
ATOM     10  C   UNL     1       8.020   5.516  12.598  0.00  0.00    +0.000 C 
ATOM     11  O   UNL     1       7.885   5.440  14.017  0.00  0.00    +0.000 OA
ENDBRANCH   8  11
ENDBRANCH   2   8
ENDBRANCH   1   6
BRANCH   1  12
ATOM     12  N   UNL     1       2.928   5.681  18.907  0.00  0.00    +0.000 N 
ATOM     13  C   UNL     1       2.228   6.420  19.833  0.00  0.00    +0.000 C 
ATOM     14  O   UNL     1       2.165   7.645  19.813  0.00  0.00    +0.000 OA
ATOM     15  H   UNL     1       2.914   4.670  18.936  0.00  0.00    +0.000 HD
BRANCH  13  16
ATOM     16  C   UNL     1       1.557   5.593  20.906  0.00  0.00    +0.000 C 
BRANCH  16  17
ATOM     17  C   UNL     1       2.277   4.263  21.122  0.00  0.00    +0.000 C 
BRANCH  17  18
ATOM     18  C   UNL     1       1.403   3.059  20.815  0.00  0.00    +0.000 C 
ATOM     19  F   UNL     1       0.361   3.358  20.011  0.00  0.00    +0.000 F 
ATOM     20  F   UNL     1       2.132   2.112  20.175  0.00  0.00    +0.000 F 
ATOM     21  F   UNL     1       0.920   2.495  21.941  0.00  0.00    +0.000 F 
ENDBRANCH  17  18
ENDBRANCH  16  17
ENDBRANCH  13  16
ENDBRANCH   1  12
TORSDOF 7
ENDMDL
MODEL 7
REMARK VINA RESULT:      -6.9      4.427      7.220
REMARK  Name = 
REMARK  8 active torsions:
REMARK  status: ('A' for Active; 'I' for Inactive)
REMARK    1  A    between atoms: C_1  and  O_2
REMARK    2  A    between atoms: O_2  and  C_3
REMARK    3  A    between atoms: C_3  and  C_5
REMARK    4  A    between atoms: C_9  and  C_10
REMARK    5  A    between atoms: C_10  and  N_11
REMARK    6  A    between atoms: C_12  and  C_14
REMARK    7  A    between atoms: C_14  and  C_15
REMARK    8  A    between atoms: C_15  and  C_16
REMARK                            x       y       z     vdW  Elec       q    Type
REMARK                         _______ _______ _______ _____ _____    ______ ____
ROOT
ATOM      1  C   UNL     1       5.811   5.889  17.433  0.00  0.00    +0.000 C 
ENDROOT
BRANCH   1   6
ATOM      2  C   UNL     1       2.206   5.129  18.452  0.00  0.00    +0.000 A 
ATOM      3  C   UNL     1       1.633   6.405  18.375  0.00  0.00    +0.000 A 
ATOM      4  C   UNL     1       2.416   7.507  18.031  0.00  0.00    +0.000 A 
ATOM      5  C   UNL     1       3.774   7.339  17.748  0.00  0.00    +0.000 A 
ATOM      6  C   UNL     1       4.363   6.068  17.803  0.00  0.00    +0.000 A 
ATOM      7  C   UNL     1       3.574   4.968  18.180  0.00  0.00    +0.000 A 
BRANCH   2   8
ATOM      8  C   UNL     1       1.397   3.922  18.787  0.00  0.00    +0.000 C 
ATOM      9  O   UNL     1       1.244   2.976  18.031  0.00  0.00    +0.000 OA
BRANCH   8  11
ATOM     10  C   UNL     1       1.551   3.350  21.056  0.00  0.00    +0.000 C 
ATOM     11  O   UNL     1       0.855   4.049  20.024  0.00  0.00    +0.000 OA
ENDBRANCH   8  11
ENDBRANCH   2   8
ENDBRANCH   1   6
BRANCH   1  12
ATOM     12  N   UNL     1       6.000   5.699  16.014  0.00  0.00    +0.000 N 
ATOM     13  C   UNL     1       7.047   4.933  15.558  0.00  0.00    +0.000 C 
ATOM     14  O   UNL     1       7.906   4.455  16.291  0.00  0.00    +0.000 OA
ATOM     15  H   UNL     1       5.288   6.033  15.377  0.00  0.00    +0.000 HD
BRANCH  13  16
ATOM     16  C   UNL     1       7.069   4.745  14.057  0.00  0.00    +0.000 C 
BRANCH  16  17
ATOM     17  C   UNL     1       6.079   3.671  13.611  0.00  0.00    +0.000 C 
BRANCH  17  18
ATOM     18  C   UNL     1       6.102   3.430  12.111  0.00  0.00    +0.000 C 
ATOM     19  F   UNL     1       6.375   2.148  11.789  0.00  0.00    +0.000 F 
ATOM     20  F   UNL     1       4.888   3.717  11.579  0.00  0.00    +0.000 F 
ATOM     21  F   UNL     1       7.003   4.221  11.494  0.00  0.00    +0.000 F 
ENDBRANCH  17  18
ENDBRANCH  16  17
ENDBRANCH  13  16
ENDBRANCH   1  12
TORSDOF 7
ENDMDL
MODEL 8
REMARK VINA RESULT:      -6.9      1.153      1.293
REMARK  Name = 
REMARK  8 active torsions:
REMARK  status: ('A' for Active; 'I' for Inactive)
REMARK    1  A    between atoms: C_1  and  O_2
REMARK    2  A    between atoms: O_2  and  C_3
REMARK    3  A    between atoms: C_3  and  C_5
REMARK    4  A    between atoms: C_9  and  C_10
REMARK    5  A    between atoms: C_10  and  N_11
REMARK    6  A    between atoms: C_12  and  C_14
REMARK    7  A    between atoms: C_14  and  C_15
REMARK    8  A    between atoms: C_15  and  C_16
REMARK                            x       y       z     vdW  Elec       q    Type
REMARK                         _______ _______ _______ _____ _____    ______ ____
ROOT
ATOM      1  C   UNL     1       3.770   6.931  17.643  0.00  0.00    +0.000 C 
ENDROOT
BRANCH   1   6
ATOM      2  C   UNL     1       6.691   5.174  15.912  0.00  0.00    +0.000 A 
ATOM      3  C   UNL     1       7.403   4.691  17.017  0.00  0.00    +0.000 A 
ATOM      4  C   UNL     1       6.960   4.961  18.311  0.00  0.00    +0.000 A 
ATOM      5  C   UNL     1       5.795   5.706  18.511  0.00  0.00    +0.000 A 
ATOM      6  C   UNL     1       5.058   6.185  17.418  0.00  0.00    +0.000 A 
ATOM      7  C   UNL     1       5.528   5.935  16.118  0.00  0.00    +0.000 A 
BRANCH   2   8
ATOM      8  C   UNL     1       7.116   4.882  14.513  0.00  0.00    +0.000 C 
ATOM      9  O   UNL     1       7.824   5.623  13.849  0.00  0.00    +0.000 OA
BRANCH   8  11
ATOM     10  C   UNL     1       5.493   3.827  13.188  0.00  0.00    +0.000 C 
ATOM     11  O   UNL     1       6.587   3.704  14.098  0.00  0.00    +0.000 OA
ENDBRANCH   8  11
ENDBRANCH   2   8
ENDBRANCH   1   6
BRANCH   1  12
ATOM     12  N   UNL     1       3.178   6.635  18.926  0.00  0.00    +0.000 N 
ATOM     13  C   UNL     1       2.243   5.631  19.035  0.00  0.00    +0.000 C 
ATOM     14  O   UNL     1       1.803   5.009  18.074  0.00  0.00    +0.000 OA
ATOM     15  H   UNL     1       3.546   7.090  19.751  0.00  0.00    +0.000 HD
BRANCH  13  16
ATOM     16  C   UNL     1       1.776   5.371  20.450  0.00  0.00    +0.000 C 
BRANCH  16  17
ATOM     17  C   UNL     1       0.900   4.123  20.531  0.00  0.00    +0.000 C 
BRANCH  17  18
ATOM     18  C   UNL     1       1.672   2.883  20.949  0.00  0.00    +0.000 C 
ATOM     19  F   UNL     1       2.988   3.121  21.134  0.00  0.00    +0.000 F 
ATOM     20  F   UNL     1       1.190   2.415  22.127  0.00  0.00    +0.000 F 
ATOM     21  F   UNL     1       1.545   1.889  20.046  0.00  0.00    +0.000 F 
ENDBRANCH  17  18
ENDBRANCH  16  17
ENDBRANCH  13  16
ENDBRANCH   1  12
TORSDOF 7
ENDMDL
MODEL 9
REMARK VINA RESULT:      -6.9      4.702      7.316
REMARK  Name = 
REMARK  8 active torsions:
REMARK  status: ('A' for Active; 'I' for Inactive)
REMARK    1  A    between atoms: C_1  and  O_2
REMARK    2  A    between atoms: O_2  and  C_3
REMARK    3  A    between atoms: C_3  and  C_5
REMARK    4  A    between atoms: C_9  and  C_10
REMARK    5  A    between atoms: C_10  and  N_11
REMARK    6  A    between atoms: C_12  and  C_14
REMARK    7  A    between atoms: C_14  and  C_15
REMARK    8  A    between atoms: C_15  and  C_16
REMARK                            x       y       z     vdW  Elec       q    Type
REMARK                         _______ _______ _______ _____ _____    ______ ____
ROOT
ATOM      1  C   UNL     1       5.916   4.337  17.710  0.00  0.00    +0.000 C 
ENDROOT
BRANCH   1   6
ATOM      2  C   UNL     1       2.634   6.124  18.514  0.00  0.00    +0.000 A 
ATOM      3  C   UNL     1       1.702   5.137  18.166  0.00  0.00    +0.000 A 
ATOM      4  C   UNL     1       2.132   3.917  17.643  0.00  0.00    +0.000 A 
ATOM      5  C   UNL     1       3.497   3.671  17.476  0.00  0.00    +0.000 A 
ATOM      6  C   UNL     1       4.447   4.639  17.833  0.00  0.00    +0.000 A 
ATOM      7  C   UNL     1       4.004   5.875  18.330  0.00  0.00    +0.000 A 
BRANCH   2   8
ATOM      8  C   UNL     1       2.216   7.428  19.103  0.00  0.00    +0.000 C 
ATOM      9  O   UNL     1       2.203   8.479  18.484  0.00  0.00    +0.000 OA
BRANCH   8  11
ATOM     10  C   UNL     1       1.215   8.386  20.995  0.00  0.00    +0.000 C 
ATOM     11  O   UNL     1       1.881   7.268  20.408  0.00  0.00    +0.000 OA
ENDBRANCH   8  11
ENDBRANCH   2   8
ENDBRANCH   1   6
BRANCH   1  12
ATOM     12  N   UNL     1       6.320   4.103  16.344  0.00  0.00    +0.000 N 
ATOM     13  C   UNL     1       6.644   5.165  15.532  0.00  0.00    +0.000 C 
ATOM     14  O   UNL     1       6.529   6.338  15.873  0.00  0.00    +0.000 OA
ATOM     15  H   UNL     1       6.475   3.151  16.036  0.00  0.00    +0.000 HD
BRANCH  13  16
ATOM     16  C   UNL     1       7.134   4.768  14.158  0.00  0.00    +0.000 C 
BRANCH  16  17
ATOM     17  C   UNL     1       6.351   3.579  13.604  0.00  0.00    +0.000 C 
BRANCH  17  18
ATOM     18  C   UNL     1       6.408   3.485  12.089  0.00  0.00    +0.000 C 
ATOM     19  F   UNL     1       6.806   2.272  11.652  0.00  0.00    +0.000 F 
ATOM     20  F   UNL     1       5.175   3.702  11.568  0.00  0.00    +0.000 F 
ATOM     21  F   UNL     1       7.231   4.415  11.563  0.00  0.00    +0.000 F 
ENDBRANCH  17  18
ENDBRANCH  16  17
ENDBRANCH  13  16
ENDBRANCH   1  12
TORSDOF 7
ENDMDL
