MODEL 1
REMARK VINA RESULT:      -7.7      0.000      0.000
REMARK  Name = 
REMARK  7 active torsions:
REMARK  status: ('A' for Active; 'I' for Inactive)
REMARK    1  A    between atoms: C_2  and  C_3
REMARK    2  A    between atoms: C_3  and  C_4
REMARK    3  A    between atoms: C_4  and  N_5
REMARK    4  A    between atoms: N_5  and  C_6
REMARK    5  A    between atoms: N_5  and  C_20
REMARK    6  A    between atoms: C_6  and  C_7
REMARK    7  A    between atoms: C_10  and  C_11
REMARK                            x       y       z     vdW  Elec       q    Type
REMARK                         _______ _______ _______ _____ _____    ______ ____
ROOT
ATOM      1  C   UNL     1       2.846   7.011  18.270  0.00  0.00    +0.000 A 
ATOM      2  C   UNL     1       2.950   8.222  17.610  0.00  0.00    +0.000 A 
ATOM      3  O   UNL     1       2.215   9.140  18.292  0.00  0.00    +0.000 OA
ATOM      4  C   UNL     1       1.691   8.442  19.353  0.00  0.00    +0.000 A 
ATOM      5  N   UNL     1       2.011   7.166  19.352  0.00  0.00    +0.000 NA
ENDROOT
BRANCH   4   6
ATOM      6  C   UNL     1       0.880   9.218  20.293  0.00  0.00    +0.000 A 
ATOM      7  C   UNL     1       1.105   9.077  21.676  0.00  0.00    +0.000 A 
ATOM      8  C   UNL     1       0.354   9.791  22.612  0.00  0.00    +0.000 A 
ATOM      9  C   UNL     1      -0.639  10.662  22.175  0.00  0.00    +0.000 A 
ATOM     10 CL   UNL     1      -1.567  11.543  23.322  0.00  0.00    +0.000 Cl
ATOM     11  C   UNL     1      -0.885  10.821  20.814  0.00  0.00    +0.000 A 
ATOM     12  C   UNL     1      -0.128  10.105  19.877  0.00  0.00    +0.000 A 
ATOM     13 CL   UNL     1      -0.547  10.350  18.215  0.00  0.00    +0.000 Cl
ENDBRANCH   4   6
BRANCH   1  14
ATOM     14  C   UNL     1       3.431   5.679  17.903  0.00  0.00    +0.000 C 
BRANCH  14  15
ATOM     15  N   UNL     1       3.774   4.801  19.066  0.00  0.00    +0.000 NA
BRANCH  15  16
ATOM     16  C   UNL     1       3.222   3.421  18.945  0.00  0.00    +0.000 C 
ATOM     17  C   UNL     1       3.553   2.438  20.107  0.00  0.00    +0.000 C 
ATOM     18  C   UNL     1       2.778   2.649  21.415  0.00  0.00    +0.000 C 
ATOM     19  C   UNL     1       1.283   2.869  21.204  0.00  0.00    +0.000 C 
ATOM     20  C   UNL     1       1.002   3.879  20.100  0.00  0.00    +0.000 C 
ATOM     21  C   UNL     1       1.679   3.433  18.807  0.00  0.00    +0.000 C 
ENDBRANCH  15  16
BRANCH  15  22
ATOM     22  C   UNL     1       5.232   4.803  19.350  0.00  0.00    +0.000 C 
BRANCH  22  23
ATOM     23  C   UNL     1       6.032   5.695  18.400  0.00  0.00    +0.000 C 
BRANCH  23  25
ATOM     24  N   UNL     1       7.974   4.250  17.031  0.00  0.00    +0.000 NA
ATOM     25  C   UNL     1       7.094   4.905  17.651  0.00  0.00    +0.000 C 
ENDBRANCH  23  25
ENDBRANCH  22  23
ENDBRANCH  15  22
ENDBRANCH  14  15
ENDBRANCH   1  14
TORSDOF 7
ENDMDL
MODEL 2
REMARK VINA RESULT:      -7.4      1.921      2.416
REMARK  Name = 
REMARK  7 active torsions:
REMARK  status: ('A' for Active; 'I' for Inactive)
REMARK    1  A    between atoms: C_2  and  C_3
REMARK    2  A    between atoms: C_3  and  C_4
REMARK    3  A    between atoms: C_4  and  N_5
REMARK    4  A    between atoms: N_5  and  C_6
REMARK    5  A    between atoms: N_5  and  C_20
REMARK    6  A    between atoms: C_6  and  C_7
REMARK    7  A    between atoms: C_10  and  C_11
REMARK                            x       y       z     vdW  Elec       q    Type
REMARK                         _______ _______ _______ _____ _____    ______ ____
ROOT
ATOM      1  C   UNL     1       2.294   7.587  18.732  0.00  0.00    +0.000 A 
ATOM      2  C   UNL     1       1.825   7.710  20.028  0.00  0.00    +0.000 A 
ATOM      3  O   UNL     1       1.339   8.971  20.184  0.00  0.00    +0.000 OA
ATOM      4  C   UNL     1       1.531   9.567  18.961  0.00  0.00    +0.000 A 
ATOM      5  N   UNL     1       2.132   8.790  18.085  0.00  0.00    +0.000 NA
ENDROOT
BRANCH   4   6
ATOM      6  C   UNL     1       1.044  10.942  18.835  0.00  0.00    +0.000 A 
ATOM      7  C   UNL     1       1.961  12.008  18.915  0.00  0.00    +0.000 A 
ATOM      8  C   UNL     1       1.543  13.337  18.806  0.00  0.00    +0.000 A 
ATOM      9  C   UNL     1       0.194  13.619  18.616  0.00  0.00    +0.000 A 
ATOM     10 CL   UNL     1      -0.326  15.251  18.482  0.00  0.00    +0.000 Cl
ATOM     11  C   UNL     1      -0.735  12.586  18.535  0.00  0.00    +0.000 A 
ATOM     12  C   UNL     1      -0.314  11.254  18.642  0.00  0.00    +0.000 A 
ATOM     13 CL   UNL     1      -1.559  10.053  18.568  0.00  0.00    +0.000 Cl
ENDBRANCH   4   6
BRANCH   1  14
ATOM     14  C   UNL     1       2.962   6.416  18.074  0.00  0.00    +0.000 C 
BRANCH  14  15
ATOM     15  N   UNL     1       3.466   5.369  19.018  0.00  0.00    +0.000 NA
BRANCH  15  16
ATOM     16  C   UNL     1       2.954   4.003  18.711  0.00  0.00    +0.000 C 
ATOM     17  C   UNL     1       3.497   2.843  19.598  0.00  0.00    +0.000 C 
ATOM     18  C   UNL     1       2.926   2.753  21.020  0.00  0.00    +0.000 C 
ATOM     19  C   UNL     1       1.410   2.909  21.075  0.00  0.00    +0.000 C 
ATOM     20  C   UNL     1       0.924   4.088  20.243  0.00  0.00    +0.000 C 
ATOM     21  C   UNL     1       1.408   3.939  18.804  0.00  0.00    +0.000 C 
ENDBRANCH  15  16
BRANCH  15  22
ATOM     22  C   UNL     1       4.947   5.402  19.142  0.00  0.00    +0.000 C 
BRANCH  22  23
ATOM     23  C   UNL     1       5.647   5.924  17.887  0.00  0.00    +0.000 C 
BRANCH  23  25
ATOM     24  N   UNL     1       7.901   4.418  17.268  0.00  0.00    +0.000 NA
ATOM     25  C   UNL     1       6.879   5.101  17.549  0.00  0.00    +0.000 C 
ENDBRANCH  23  25
ENDBRANCH  22  23
ENDBRANCH  15  22
ENDBRANCH  14  15
ENDBRANCH   1  14
TORSDOF 7
ENDMDL
MODEL 3
REMARK VINA RESULT:      -7.3      1.552      1.859
REMARK  Name = 
REMARK  7 active torsions:
REMARK  status: ('A' for Active; 'I' for Inactive)
REMARK    1  A    between atoms: C_2  and  C_3
REMARK    2  A    between atoms: C_3  and  C_4
REMARK    3  A    between atoms: C_4  and  N_5
REMARK    4  A    between atoms: N_5  and  C_6
REMARK    5  A    between atoms: N_5  and  C_20
REMARK    6  A    between atoms: C_6  and  C_7
REMARK    7  A    between atoms: C_10  and  C_11
REMARK                            x       y       z     vdW  Elec       q    Type
REMARK                         _______ _______ _______ _____ _____    ______ ____
ROOT
ATOM      1  C   UNL     1       2.243   7.173  19.578  0.00  0.00    +0.000 A 
ATOM      2  C   UNL     1       1.751   6.492  20.678  0.00  0.00    +0.000 A 
ATOM      3  O   UNL     1       1.052   7.373  21.442  0.00  0.00    +0.000 OA
ATOM      4  C   UNL     1       1.144   8.565  20.766  0.00  0.00    +0.000 A 
ATOM      5  N   UNL     1       1.877   8.495  19.675  0.00  0.00    +0.000 NA
ENDROOT
BRANCH   4   6
ATOM      6  C   UNL     1       0.425   9.695  21.357  0.00  0.00    +0.000 A 
ATOM      7  C   UNL     1      -0.328   9.495  22.530  0.00  0.00    +0.000 A 
ATOM      8  C   UNL     1      -1.035  10.541  23.128  0.00  0.00    +0.000 A 
ATOM      9  C   UNL     1      -1.000  11.809  22.556  0.00  0.00    +0.000 A 
ATOM     10 CL   UNL     1      -1.869  13.098  23.286  0.00  0.00    +0.000 Cl
ATOM     11  C   UNL     1      -0.265  12.036  21.396  0.00  0.00    +0.000 A 
ATOM     12  C   UNL     1       0.446  10.986  20.799  0.00  0.00    +0.000 A 
ATOM     13 CL   UNL     1       1.290  11.373  19.338  0.00  0.00    +0.000 Cl
ENDBRANCH   4   6
BRANCH   1  14
ATOM     14  C   UNL     1       3.109   6.668  18.462  0.00  0.00    +0.000 C 
BRANCH  14  15
ATOM     15  N   UNL     1       3.608   5.267  18.638  0.00  0.00    +0.000 NA
BRANCH  15  16
ATOM     16  C   UNL     1       3.114   4.330  17.590  0.00  0.00    +0.000 C 
ATOM     17  C   UNL     1       3.734   2.901  17.589  0.00  0.00    +0.000 C 
ATOM     18  C   UNL     1       3.245   1.950  18.690  0.00  0.00    +0.000 C 
ATOM     19  C   UNL     1       1.730   1.961  18.871  0.00  0.00    +0.000 C 
ATOM     20  C   UNL     1       1.170   3.375  18.925  0.00  0.00    +0.000 C 
ATOM     21  C   UNL     1       1.578   4.141  17.670  0.00  0.00    +0.000 C 
ENDBRANCH  15  16
BRANCH  15  22
ATOM     22  C   UNL     1       5.085   5.220  18.788  0.00  0.00    +0.000 C 
BRANCH  22  23
ATOM     23  C   UNL     1       5.832   5.859  17.616  0.00  0.00    +0.000 C 
BRANCH  23  25
ATOM     24  N   UNL     1       8.010   4.320  16.827  0.00  0.00    +0.000 NA
ATOM     25  C   UNL     1       7.023   5.017  17.184  0.00  0.00    +0.000 C 
ENDBRANCH  23  25
ENDBRANCH  22  23
ENDBRANCH  15  22
ENDBRANCH  14  15
ENDBRANCH   1  14
TORSDOF 7
ENDMDL
MODEL 4
REMARK VINA RESULT:      -7.2      1.602      1.913
REMARK  Name = 
REMARK  7 active torsions:
REMARK  status: ('A' for Active; 'I' for Inactive)
REMARK    1  A    between atoms: C_2  and  C_3
REMARK    2  A    between atoms: C_3  and  C_4
REMARK    3  A    between atoms: C_4  and  N_5
REMARK    4  A    between atoms: N_5  and  C_6
REMARK    5  A    between atoms: N_5  and  C_20
REMARK    6  A    between atoms: C_6  and  C_7
REMARK    7  A    between atoms: C_10  and  C_11
REMARK                            x       y       z     vdW  Elec       q    Type
REMARK                         _______ _______ _______ _____ _____    ______ ____
ROOT
ATOM      1  C   UNL     1       2.411   7.536  18.903  0.00  0.00    +0.000 A 
ATOM      2  C   UNL     1       2.023   7.191  20.186  0.00  0.00    +0.000 A 
ATOM      3  O   UNL     1       1.227   8.182  20.668  0.00  0.00    +0.000 OA
ATOM      4  C   UNL     1       1.159   9.097  19.647  0.00  0.00    +0.000 A 
ATOM      5  N   UNL     1       1.881   8.768  18.597  0.00  0.00    +0.000 NA
ENDROOT
BRANCH   4   6
ATOM      6  C   UNL     1       0.309  10.265  19.887  0.00  0.00    +0.000 A 
ATOM      7  C   UNL     1       0.502  11.029  21.055  0.00  0.00    +0.000 A 
ATOM      8  C   UNL     1      -0.288  12.148  21.331  0.00  0.00    +0.000 A 
ATOM      9  C   UNL     1      -1.288  12.520  20.438  0.00  0.00    +0.000 A 
ATOM     10 CL   UNL     1      -2.262  13.894  20.773  0.00  0.00    +0.000 Cl
ATOM     11  C   UNL     1      -1.502  11.783  19.277  0.00  0.00    +0.000 A 
ATOM     12  C   UNL     1      -0.708  10.662  19.001  0.00  0.00    +0.000 A 
ATOM     13 CL   UNL     1      -1.090   9.797  17.550  0.00  0.00    +0.000 Cl
ENDBRANCH   4   6
BRANCH   1  14
ATOM     14  C   UNL     1       3.321   6.806  17.960  0.00  0.00    +0.000 C 
BRANCH  14  15
ATOM     15  N   UNL     1       3.698   5.424  18.395  0.00  0.00    +0.000 NA
BRANCH  15  16
ATOM     16  C   UNL     1       3.157   4.358  17.504  0.00  0.00    +0.000 C 
ATOM     17  C   UNL     1       3.786   2.941  17.657  0.00  0.00    +0.000 C 
ATOM     18  C   UNL     1       3.361   2.141  18.895  0.00  0.00    +0.000 C 
ATOM     19  C   UNL     1       1.858   2.176  19.152  0.00  0.00    +0.000 C 
ATOM     20  C   UNL     1       1.291   3.585  19.051  0.00  0.00    +0.000 C 
ATOM     21  C   UNL     1       1.629   4.181  17.688  0.00  0.00    +0.000 C 
ENDBRANCH  15  16
BRANCH  15  22
ATOM     22  C   UNL     1       5.162   5.291  18.611  0.00  0.00    +0.000 C 
BRANCH  22  23
ATOM     23  C   UNL     1       5.990   6.217  17.720  0.00  0.00    +0.000 C 
BRANCH  23  25
ATOM     24  N   UNL     1       7.454   4.790  15.836  0.00  0.00    +0.000 NA
ATOM     25  C   UNL     1       6.791   5.437  16.690  0.00  0.00    +0.000 C 
ENDBRANCH  23  25
ENDBRANCH  22  23
ENDBRANCH  15  22
ENDBRANCH  14  15
ENDBRANCH   1  14
TORSDOF 7
ENDMDL
MODEL 5
REMARK VINA RESULT:      -7.1      2.229      3.899
REMARK  Name = 
REMARK  7 active torsions:
REMARK  status: ('A' for Active; 'I' for Inactive)
REMARK    1  A    between atoms: C_2  and  C_3
REMARK    2  A    between atoms: C_3  and  C_4
REMARK    3  A    between atoms: C_4  and  N_5
REMARK    4  A    between atoms: N_5  and  C_6
REMARK    5  A    between atoms: N_5  and  C_20
REMARK    6  A    between atoms: C_6  and  C_7
REMARK    7  A    between atoms: C_10  and  C_11
REMARK                            x       y       z     vdW  Elec       q    Type
REMARK                         _______ _______ _______ _____ _____    ______ ____
ROOT
ATOM      1  C   UNL     1       2.115   7.832  19.138  0.00  0.00    +0.000 A 
ATOM      2  C   UNL     1       2.218   8.273  17.831  0.00  0.00    +0.000 A 
ATOM      3  O   UNL     1       1.625   9.494  17.749  0.00  0.00    +0.000 OA
ATOM      4  C   UNL     1       1.185   9.750  19.025  0.00  0.00    +0.000 A 
ATOM      5  N   UNL     1       1.422   8.769  19.869  0.00  0.00    +0.000 NA
ENDROOT
BRANCH   4   6
ATOM      6  C   UNL     1       0.539  11.047  19.232  0.00  0.00    +0.000 A 
ATOM      7  C   UNL     1       1.225  12.053  19.940  0.00  0.00    +0.000 A 
ATOM      8  C   UNL     1       0.648  13.305  20.168  0.00  0.00    +0.000 A 
ATOM      9  C   UNL     1      -0.631  13.569  19.689  0.00  0.00    +0.000 A 
ATOM     10 CL   UNL     1      -1.346  15.106  19.968  0.00  0.00    +0.000 Cl
ATOM     11  C   UNL     1      -1.333  12.593  18.988  0.00  0.00    +0.000 A 
ATOM     12  C   UNL     1      -0.752  11.339  18.758  0.00  0.00    +0.000 A 
ATOM     13 CL   UNL     1      -1.732  10.190  17.911  0.00  0.00    +0.000 Cl
ENDBRANCH   4   6
BRANCH   1  14
ATOM     14  C   UNL     1       2.569   6.534  19.738  0.00  0.00    +0.000 C 
BRANCH  14  15
ATOM     15  N   UNL     1       2.776   5.426  18.752  0.00  0.00    +0.000 NA
BRANCH  15  16
ATOM     16  C   UNL     1       4.172   4.901  18.742  0.00  0.00    +0.000 C 
ATOM     17  C   UNL     1       4.416   3.596  17.927  0.00  0.00    +0.000 C 
ATOM     18  C   UNL     1       4.445   3.745  16.400  0.00  0.00    +0.000 C 
ATOM     19  C   UNL     1       5.279   4.931  15.923  0.00  0.00    +0.000 C 
ATOM     20  C   UNL     1       4.970   6.200  16.705  0.00  0.00    +0.000 C 
ATOM     21  C   UNL     1       5.172   5.951  18.197  0.00  0.00    +0.000 C 
ENDBRANCH  15  16
BRANCH  15  22
ATOM     22  C   UNL     1       1.768   4.346  18.913  0.00  0.00    +0.000 C 
BRANCH  22  23
ATOM     23  C   UNL     1       1.138   4.309  20.306  0.00  0.00    +0.000 C 
BRANCH  23  25
ATOM     24  N   UNL     1       2.515   2.595  22.009  0.00  0.00    +0.000 NA
ATOM     25  C   UNL     1       1.891   3.372  21.237  0.00  0.00    +0.000 C 
ENDBRANCH  23  25
ENDBRANCH  22  23
ENDBRANCH  15  22
ENDBRANCH  14  15
ENDBRANCH   1  14
TORSDOF 7
ENDMDL
MODEL 6
REMARK VINA RESULT:      -7.0      1.588      1.846
REMARK  Name = 
REMARK  7 active torsions:
REMARK  status: ('A' for Active; 'I' for Inactive)
REMARK    1  A    between atoms: C_2  and  C_3
REMARK    2  A    between atoms: C_3  and  C_4
REMARK    3  A    between atoms: C_4  and  N_5
REMARK    4  A    between atoms: N_5  and  C_6
REMARK    5  A    between atoms: N_5  and  C_20
REMARK    6  A    between atoms: C_6  and  C_7
REMARK    7  A    between atoms: C_10  and  C_11
REMARK                            x       y       z     vdW  Elec       q    Type
REMARK                         _______ _______ _______ _____ _____    ______ ____
ROOT
ATOM      1  C   UNL     1       2.564   6.494  19.553  0.00  0.00    +0.000 A 
ATOM      2  C   UNL     1       1.924   5.829  20.583  0.00  0.00    +0.000 A 
ATOM      3  O   UNL     1       1.142   6.724  21.243  0.00  0.00    +0.000 OA
ATOM      4  C   UNL     1       1.337   7.909  20.577  0.00  0.00    +0.000 A 
ATOM      5  N   UNL     1       2.206   7.822  19.592  0.00  0.00    +0.000 NA
ENDROOT
BRANCH   4   6
ATOM      6  C   UNL     1       0.561   9.052  21.061  0.00  0.00    +0.000 A 
ATOM      7  C   UNL     1       0.317   9.184  22.442  0.00  0.00    +0.000 A 
ATOM      8  C   UNL     1      -0.424  10.254  22.950  0.00  0.00    +0.000 A 
ATOM      9  C   UNL     1      -0.933  11.212  22.080  0.00  0.00    +0.000 A 
ATOM     10 CL   UNL     1      -1.845  12.530  22.700  0.00  0.00    +0.000 Cl
ATOM     11  C   UNL     1      -0.709  11.107  20.710  0.00  0.00    +0.000 A 
ATOM     12  C   UNL     1       0.036  10.034  20.202  0.00  0.00    +0.000 A 
ATOM     13 CL   UNL     1       0.217   9.981  18.481  0.00  0.00    +0.000 Cl
ENDBRANCH   4   6
BRANCH   1  14
ATOM     14  C   UNL     1       3.563   5.970  18.564  0.00  0.00    +0.000 C 
BRANCH  14  15
ATOM     15  N   UNL     1       4.425   4.856  19.071  0.00  0.00    +0.000 NA
BRANCH  15  16
ATOM     16  C   UNL     1       4.313   3.609  18.261  0.00  0.00    +0.000 C 
ATOM     17  C   UNL     1       3.947   2.309  19.037  0.00  0.00    +0.000 C 
ATOM     18  C   UNL     1       2.484   2.171  19.477  0.00  0.00    +0.000 C 
ATOM     19  C   UNL     1       1.485   2.534  18.383  0.00  0.00    +0.000 C 
ATOM     20  C   UNL     1       1.845   3.840  17.689  0.00  0.00    +0.000 C 
ATOM     21  C   UNL     1       3.262   3.755  17.131  0.00  0.00    +0.000 C 
ENDBRANCH  15  16
BRANCH  15  22
ATOM     22  C   UNL     1       5.835   5.285  19.255  0.00  0.00    +0.000 C 
BRANCH  22  23
ATOM     23  C   UNL     1       6.678   5.151  17.987  0.00  0.00    +0.000 C 
BRANCH  23  25
ATOM     24  N   UNL     1       7.598   7.621  17.101  0.00  0.00    +0.000 NA
ATOM     25  C   UNL     1       7.181   6.502  17.502  0.00  0.00    +0.000 C 
ENDBRANCH  23  25
ENDBRANCH  22  23
ENDBRANCH  15  22
ENDBRANCH  14  15
ENDBRANCH   1  14
TORSDOF 7
ENDMDL
MODEL 7
REMARK VINA RESULT:      -7.0      1.773      2.258
REMARK  Name = 
REMARK  7 active torsions:
REMARK  status: ('A' for Active; 'I' for Inactive)
REMARK    1  A    between atoms: C_2  and  C_3
REMARK    2  A    between atoms: C_3  and  C_4
REMARK    3  A    between atoms: C_4  and  N_5
REMARK    4  A    between atoms: N_5  and  C_6
REMARK    5  A    between atoms: N_5  and  C_20
REMARK    6  A    between atoms: C_6  and  C_7
REMARK    7  A    between atoms: C_10  and  C_11
REMARK                            x       y       z     vdW  Elec       q    Type
REMARK                         _______ _______ _______ _____ _____    ______ ____
ROOT
ATOM      1  C   UNL     1       2.406   7.283  19.268  0.00  0.00    +0.000 A 
ATOM      2  C   UNL     1       1.950   6.790  20.477  0.00  0.00    +0.000 A 
ATOM      3  O   UNL     1       1.106   7.708  21.018  0.00  0.00    +0.000 OA
ATOM      4  C   UNL     1       1.079   8.733  20.103  0.00  0.00    +0.000 A 
ATOM      5  N   UNL     1       1.869   8.535  19.069  0.00  0.00    +0.000 NA
ENDROOT
BRANCH   4   6
ATOM      6  C   UNL     1       0.193   9.853  20.421  0.00  0.00    +0.000 A 
ATOM      7  C   UNL     1      -0.373  10.603  19.371  0.00  0.00    +0.000 A 
ATOM      8  C   UNL     1      -1.220  11.685  19.625  0.00  0.00    +0.000 A 
ATOM      9  C   UNL     1      -1.515  12.033  20.939  0.00  0.00    +0.000 A 
ATOM     10 CL   UNL     1      -2.556  13.363  21.256  0.00  0.00    +0.000 Cl
ATOM     11  C   UNL     1      -0.970  11.311  21.996  0.00  0.00    +0.000 A 
ATOM     12  C   UNL     1      -0.122  10.225  21.740  0.00  0.00    +0.000 A 
ATOM     13 CL   UNL     1       0.531   9.425  23.130  0.00  0.00    +0.000 Cl
ENDBRANCH   4   6
BRANCH   1  14
ATOM     14  C   UNL     1       3.385   6.678  18.306  0.00  0.00    +0.000 C 
BRANCH  14  15
ATOM     15  N   UNL     1       3.727   5.246  18.577  0.00  0.00    +0.000 NA
BRANCH  15  16
ATOM     16  C   UNL     1       3.139   4.302  17.585  0.00  0.00    +0.000 C 
ATOM     17  C   UNL     1       3.713   2.853  17.582  0.00  0.00    +0.000 C 
ATOM     18  C   UNL     1       3.264   1.944  18.734  0.00  0.00    +0.000 C 
ATOM     19  C   UNL     1       1.765   2.010  19.009  0.00  0.00    +0.000 C 
ATOM     20  C   UNL     1       1.254   3.443  19.062  0.00  0.00    +0.000 C 
ATOM     21  C   UNL     1       1.606   4.165  17.765  0.00  0.00    +0.000 C 
ENDBRANCH  15  16
BRANCH  15  22
ATOM     22  C   UNL     1       5.191   5.049  18.746  0.00  0.00    +0.000 C 
BRANCH  22  23
ATOM     23  C   UNL     1       6.031   6.044  17.946  0.00  0.00    +0.000 C 
BRANCH  23  25
ATOM     24  N   UNL     1       7.340   4.810  15.825  0.00  0.00    +0.000 NA
ATOM     25  C   UNL     1       6.747   5.369  16.786  0.00  0.00    +0.000 C 
ENDBRANCH  23  25
ENDBRANCH  22  23
ENDBRANCH  15  22
ENDBRANCH  14  15
ENDBRANCH   1  14
TORSDOF 7
ENDMDL
MODEL 8
REMARK VINA RESULT:      -7.0      1.453      1.856
REMARK  Name = 
REMARK  7 active torsions:
REMARK  status: ('A' for Active; 'I' for Inactive)
REMARK    1  A    between atoms: C_2  and  C_3
REMARK    2  A    between atoms: C_3  and  C_4
REMARK    3  A    between atoms: C_4  and  N_5
REMARK    4  A    between atoms: N_5  and  C_6
REMARK    5  A    between atoms: N_5  and  C_20
REMARK    6  A    between atoms: C_6  and  C_7
REMARK    7  A    between atoms: C_10  and  C_11
REMARK                            x       y       z     vdW  Elec       q    Type
REMARK                         _______ _______ _______ _____ _____    ______ ____
ROOT
ATOM      1  C   UNL     1       3.196   6.694  17.828  0.00  0.00    +0.000 A 
ATOM      2  C   UNL     1       3.720   7.843  17.264  0.00  0.00    +0.000 A 
ATOM      3  O   UNL     1       2.931   8.890  17.626  0.00  0.00    +0.000 OA
ATOM      4  C   UNL     1       1.951   8.329  18.407  0.00  0.00    +0.000 A 
ATOM      5  N   UNL     1       2.051   7.021  18.517  0.00  0.00    +0.000 NA
ENDROOT
BRANCH   4   6
ATOM      6  C   UNL     1       0.976   9.259  18.978  0.00  0.00    +0.000 A 
ATOM      7  C   UNL     1       0.262  10.121  18.123  0.00  0.00    +0.000 A 
ATOM      8  C   UNL     1      -0.675  11.030  18.622  0.00  0.00    +0.000 A 
ATOM      9  C   UNL     1      -0.911  11.089  19.992  0.00  0.00    +0.000 A 
ATOM     10 CL   UNL     1      -2.061  12.206  20.611  0.00  0.00    +0.000 Cl
ATOM     11  C   UNL     1      -0.220  10.251  20.861  0.00  0.00    +0.000 A 
ATOM     12  C   UNL     1       0.718   9.338  20.358  0.00  0.00    +0.000 A 
ATOM     13 CL   UNL     1       1.547   8.375  21.533  0.00  0.00    +0.000 Cl
ENDBRANCH   4   6
BRANCH   1  14
ATOM     14  C   UNL     1       3.666   5.276  17.698  0.00  0.00    +0.000 C 
BRANCH  14  15
ATOM     15  N   UNL     1       3.928   4.579  18.998  0.00  0.00    +0.000 NA
BRANCH  15  16
ATOM     16  C   UNL     1       3.411   3.182  19.031  0.00  0.00    +0.000 C 
ATOM     17  C   UNL     1       3.586   2.409  20.373  0.00  0.00    +0.000 C 
ATOM     18  C   UNL     1       2.636   2.803  21.511  0.00  0.00    +0.000 C 
ATOM     19  C   UNL     1       1.182   2.939  21.067  0.00  0.00    +0.000 C 
ATOM     20  C   UNL     1       1.049   3.749  19.785  0.00  0.00    +0.000 C 
ATOM     21  C   UNL     1       1.902   3.123  18.686  0.00  0.00    +0.000 C 
ENDBRANCH  15  16
BRANCH  15  22
ATOM     22  C   UNL     1       5.358   4.662  19.392  0.00  0.00    +0.000 C 
BRANCH  22  23
ATOM     23  C   UNL     1       6.310   4.763  18.200  0.00  0.00    +0.000 C 
BRANCH  23  25
ATOM     24  N   UNL     1       8.005   6.956  18.423  0.00  0.00    +0.000 NA
ATOM     25  C   UNL     1       7.237   5.962  18.322  0.00  0.00    +0.000 C 
ENDBRANCH  23  25
ENDBRANCH  22  23
ENDBRANCH  15  22
ENDBRANCH  14  15
ENDBRANCH   1  14
TORSDOF 7
ENDMDL
MODEL 9
REMARK VINA RESULT:      -6.9      2.089      3.920
REMARK  Name = 
REMARK  7 active torsions:
REMARK  status: ('A' for Active; 'I' for Inactive)
REMARK    1  A    between atoms: C_2  and  C_3
REMARK    2  A    between atoms: C_3  and  C_4
REMARK    3  A    between atoms: C_4  and  N_5
REMARK    4  A    between atoms: N_5  and  C_6
REMARK    5  A    between atoms: N_5  and  C_20
REMARK    6  A    between atoms: C_6  and  C_7
REMARK    7  A    between atoms: C_10  and  C_11
REMARK                            x       y       z     vdW  Elec       q    Type
REMARK                         _______ _______ _______ _____ _____    ______ ____
ROOT
ATOM      1  C   UNL     1       2.257   7.622  19.130  0.00  0.00    +0.000 A 
ATOM      2  C   UNL     1       2.173   8.056  17.819  0.00  0.00    +0.000 A 
ATOM      3  O   UNL     1       1.512   9.244  17.808  0.00  0.00    +0.000 OA
ATOM      4  C   UNL     1       1.221   9.488  19.128  0.00  0.00    +0.000 A 
ATOM      5  N   UNL     1       1.612   8.528  19.939  0.00  0.00    +0.000 NA
ENDROOT
BRANCH   4   6
ATOM      6  C   UNL     1       0.540  10.753  19.412  0.00  0.00    +0.000 A 
ATOM      7  C   UNL     1      -0.697  10.732  20.085  0.00  0.00    +0.000 A 
ATOM      8  C   UNL     1      -1.388  11.912  20.373  0.00  0.00    +0.000 A 
ATOM      9  C   UNL     1      -0.848  13.135  19.988  0.00  0.00    +0.000 A 
ATOM     10 CL   UNL     1      -1.694  14.589  20.339  0.00  0.00    +0.000 Cl
ATOM     11  C   UNL     1       0.371  13.186  19.320  0.00  0.00    +0.000 A 
ATOM     12  C   UNL     1       1.064  12.001  19.034  0.00  0.00    +0.000 A 
ATOM     13 CL   UNL     1       2.550  12.180  18.164  0.00  0.00    +0.000 Cl
ENDBRANCH   4   6
BRANCH   1  14
ATOM     14  C   UNL     1       2.848   6.354  19.671  0.00  0.00    +0.000 C 
BRANCH  14  15
ATOM     15  N   UNL     1       2.880   5.212  18.703  0.00  0.00    +0.000 NA
BRANCH  15  16
ATOM     16  C   UNL     1       4.203   4.526  18.645  0.00  0.00    +0.000 C 
ATOM     17  C   UNL     1       4.434   3.569  17.438  0.00  0.00    +0.000 C 
ATOM     18  C   UNL     1       4.707   4.238  16.084  0.00  0.00    +0.000 C 
ATOM     19  C   UNL     1       5.716   5.379  16.165  0.00  0.00    +0.000 C 
ATOM     20  C   UNL     1       5.421   6.324  17.321  0.00  0.00    +0.000 C 
ATOM     21  C   UNL     1       5.373   5.542  18.630  0.00  0.00    +0.000 C 
ENDBRANCH  15  16
BRANCH  15  22
ATOM     22  C   UNL     1       1.760   4.262  18.929  0.00  0.00    +0.000 C 
BRANCH  22  23
ATOM     23  C   UNL     1       1.188   4.329  20.346  0.00  0.00    +0.000 C 
BRANCH  23  25
ATOM     24  N   UNL     1       2.496   2.578  22.064  0.00  0.00    +0.000 NA
ATOM     25  C   UNL     1       1.903   3.372  21.285  0.00  0.00    +0.000 C 
ENDBRANCH  23  25
ENDBRANCH  22  23
ENDBRANCH  15  22
ENDBRANCH  14  15
ENDBRANCH   1  14
TORSDOF 7
ENDMDL
