MODEL 1
REMARK VINA RESULT:      -8.8      0.000      0.000
REMARK  Name = 
REMARK  4 active torsions:
REMARK  status: ('A' for Active; 'I' for Inactive)
REMARK    1  A    between atoms: C_4  and  C_5
REMARK    2  A    between atoms: C_15  and  C_16
REMARK    3  A    between atoms: C_19  and  C_20
REMARK    4  A    between atoms: C_20  and  N_21
REMARK                            x       y       z     vdW  Elec       q    Type
REMARK                         _______ _______ _______ _____ _____    ______ ____
ROOT
ATOM      1  C   UNL     1      -0.072  15.636  19.742  0.00  0.00    +0.000 A 
ATOM      2  C   UNL     1       0.333  14.312  19.592  0.00  0.00    +0.000 A 
ATOM      3  C   UNL     1      -0.042  13.401  20.588  0.00  0.00    +0.000 A 
ATOM      4  C   UNL     1      -0.780  13.862  21.675  0.00  0.00    +0.000 A 
ATOM      5  C   UNL     1      -1.139  15.193  21.799  0.00  0.00    +0.000 A 
ATOM      6  N   UNL     1      -0.774  16.064  20.826  0.00  0.00    +0.000 NA
ATOM      7  N   UNL     1      -1.022  12.779  22.488  0.00  0.00    +0.000 N 
ATOM      8  C   UNL     1      -0.466  11.652  21.952  0.00  0.00    +0.000 A 
ATOM      9  N   UNL     1      -0.538  10.428  22.503  0.00  0.00    +0.000 NA
ATOM     10  C   UNL     1       0.110   9.490  21.763  0.00  0.00    +0.000 A 
ATOM     11  C   UNL     1       0.811   9.686  20.560  0.00  0.00    +0.000 A 
ATOM     12  C   UNL     1       0.825  10.993  20.053  0.00  0.00    +0.000 A 
ATOM     13  C   UNL     1       0.166  12.006  20.770  0.00  0.00    +0.000 A 
ATOM     14  H   UNL     1      -1.533  12.785  23.359  0.00  0.00    +0.000 HD
ENDROOT
BRANCH   1  18
ATOM     15  C   UNL     1       0.777  18.569  16.878  0.00  0.00    +0.000 A 
ATOM     16  N   UNL     1       1.826  17.961  17.449  0.00  0.00    +0.000 NA
ATOM     17  C   UNL     1       1.520  17.015  18.364  0.00  0.00    +0.000 A 
ATOM     18  C   UNL     1       0.232  16.660  18.739  0.00  0.00    +0.000 A 
ATOM     19  C   UNL     1      -0.750  17.362  18.062  0.00  0.00    +0.000 A 
ATOM     20  N   UNL     1      -0.513  18.320  17.137  0.00  0.00    +0.000 NA
ENDBRANCH   1  18
BRANCH  11  21
ATOM     21  C   UNL     1       1.498   8.581  19.866  0.00  0.00    +0.000 A 
ATOM     22  C   UNL     1       1.932   8.701  18.533  0.00  0.00    +0.000 A 
ATOM     23  C   UNL     1       2.540   7.632  17.867  0.00  0.00    +0.000 A 
ATOM     24  C   UNL     1       2.723   6.408  18.516  0.00  0.00    +0.000 A 
ATOM     25  C   UNL     1       2.331   6.287  19.852  0.00  0.00    +0.000 A 
ATOM     26  C   UNL     1       1.737   7.359  20.518  0.00  0.00    +0.000 A 
BRANCH  24  27
ATOM     27  C   UNL     1       3.267   5.214  17.769  0.00  0.00    +0.000 C 
BRANCH  27  28
ATOM     28  N   UNL     1       4.563   5.440  17.093  0.00  0.00    +0.000 NA
ATOM     29  C   UNL     1       5.580   5.871  18.069  0.00  0.00    +0.000 C 
ATOM     30  C   UNL     1       7.008   5.861  17.522  0.00  0.00    +0.000 C 
ATOM     31  C   UNL     1       7.353   4.509  16.921  0.00  0.00    +0.000 C 
ATOM     32  C   UNL     1       6.345   4.178  15.833  0.00  0.00    +0.000 C 
ATOM     33  C   UNL     1       4.923   4.198  16.387  0.00  0.00    +0.000 C 
ENDBRANCH  27  28
ENDBRANCH  24  27
ENDBRANCH  11  21
TORSDOF 4
ENDMDL
MODEL 2
REMARK VINA RESULT:      -8.7      0.390      1.250
REMARK  Name = 
REMARK  4 active torsions:
REMARK  status: ('A' for Active; 'I' for Inactive)
REMARK    1  A    between atoms: C_4  and  C_5
REMARK    2  A    between atoms: C_15  and  C_16
REMARK    3  A    between atoms: C_19  and  C_20
REMARK    4  A    between atoms: C_20  and  N_21
REMARK                            x       y       z     vdW  Elec       q    Type
REMARK                         _______ _______ _______ _____ _____    ______ ____
ROOT
ATOM      1  C   UNL     1       0.008  15.488  19.824  0.00  0.00    +0.000 A 
ATOM      2  C   UNL     1       0.374  14.150  19.710  0.00  0.00    +0.000 A 
ATOM      3  C   UNL     1      -0.022  13.279  20.733  0.00  0.00    +0.000 A 
ATOM      4  C   UNL     1      -0.741  13.791  21.810  0.00  0.00    +0.000 A 
ATOM      5  C   UNL     1      -1.061  15.135  21.897  0.00  0.00    +0.000 A 
ATOM      6  N   UNL     1      -0.675  15.967  20.899  0.00  0.00    +0.000 NA
ATOM      7  N   UNL     1      -1.010  12.740  22.654  0.00  0.00    +0.000 N 
ATOM      8  C   UNL     1      -0.489  11.581  22.147  0.00  0.00    +0.000 A 
ATOM      9  N   UNL     1      -0.594  10.377  22.733  0.00  0.00    +0.000 NA
ATOM     10  C   UNL     1       0.022   9.400  22.017  0.00  0.00    +0.000 A 
ATOM     11  C   UNL     1       0.723   9.541  20.806  0.00  0.00    +0.000 A 
ATOM     12  C   UNL     1       0.772  10.832  20.262  0.00  0.00    +0.000 A 
ATOM     13  C   UNL     1       0.146  11.884  20.953  0.00  0.00    +0.000 A 
ATOM     14  H   UNL     1      -1.516  12.785  23.527  0.00  0.00    +0.000 HD
ENDROOT
BRANCH   1  18
ATOM     15  C   UNL     1       0.967  18.299  16.873  0.00  0.00    +0.000 A 
ATOM     16  N   UNL     1      -0.334  18.042  17.062  0.00  0.00    +0.000 NA
ATOM     17  C   UNL     1      -0.612  17.136  18.025  0.00  0.00    +0.000 A 
ATOM     18  C   UNL     1       0.337  16.475  18.791  0.00  0.00    +0.000 A 
ATOM     19  C   UNL     1       1.637  16.846  18.494  0.00  0.00    +0.000 A 
ATOM     20  N   UNL     1       1.984  17.744  17.544  0.00  0.00    +0.000 NA
ENDBRANCH   1  18
BRANCH  11  21
ATOM     21  C   UNL     1       1.374   8.397  20.141  0.00  0.00    +0.000 A 
ATOM     22  C   UNL     1       1.509   7.150  20.777  0.00  0.00    +0.000 A 
ATOM     23  C   UNL     1       2.169   6.084  20.157  0.00  0.00    +0.000 A 
ATOM     24  C   UNL     1       2.722   6.241  18.884  0.00  0.00    +0.000 A 
ATOM     25  C   UNL     1       2.562   7.463  18.224  0.00  0.00    +0.000 A 
ATOM     26  C   UNL     1       1.891   8.520  18.840  0.00  0.00    +0.000 A 
BRANCH  24  27
ATOM     27  C   UNL     1       3.540   5.137  18.257  0.00  0.00    +0.000 C 
BRANCH  27  28
ATOM     28  N   UNL     1       4.557   5.592  17.285  0.00  0.00    +0.000 NA
ATOM     29  C   UNL     1       5.837   5.851  17.968  0.00  0.00    +0.000 C 
ATOM     30  C   UNL     1       7.017   6.056  17.017  0.00  0.00    +0.000 C 
ATOM     31  C   UNL     1       7.134   4.900  16.037  0.00  0.00    +0.000 C 
ATOM     32  C   UNL     1       5.829   4.765  15.271  0.00  0.00    +0.000 C 
ATOM     33  C   UNL     1       4.657   4.569  16.229  0.00  0.00    +0.000 C 
ENDBRANCH  27  28
ENDBRANCH  24  27
ENDBRANCH  11  21
TORSDOF 4
ENDMDL
MODEL 3
REMARK VINA RESULT:      -8.5      0.893      1.034
REMARK  Name = 
REMARK  4 active torsions:
REMARK  status: ('A' for Active; 'I' for Inactive)
REMARK    1  A    between atoms: C_4  and  C_5
REMARK    2  A    between atoms: C_15  and  C_16
REMARK    3  A    between atoms: C_19  and  C_20
REMARK    4  A    between atoms: C_20  and  N_21
REMARK                            x       y       z     vdW  Elec       q    Type
REMARK                         _______ _______ _______ _____ _____    ______ ____
ROOT
ATOM      1  C   UNL     1      -1.043  15.140  20.533  0.00  0.00    +0.000 A 
ATOM      2  C   UNL     1      -0.492  13.888  20.280  0.00  0.00    +0.000 A 
ATOM      3  C   UNL     1      -0.656  12.896  21.256  0.00  0.00    +0.000 A 
ATOM      4  C   UNL     1      -1.343  13.213  22.426  0.00  0.00    +0.000 A 
ATOM      5  C   UNL     1      -1.852  14.481  22.648  0.00  0.00    +0.000 A 
ATOM      6  N   UNL     1      -1.689  15.430  21.694  0.00  0.00    +0.000 NA
ATOM      7  N   UNL     1      -1.372  12.077  23.199  0.00  0.00    +0.000 N 
ATOM      8  C   UNL     1      -0.732  11.053  22.559  0.00  0.00    +0.000 A 
ATOM      9  N   UNL     1      -0.600   9.809  23.049  0.00  0.00    +0.000 NA
ATOM     10  C   UNL     1       0.089   8.993  22.208  0.00  0.00    +0.000 A 
ATOM     11  C   UNL     1       0.646   9.326  20.962  0.00  0.00    +0.000 A 
ATOM     12  C   UNL     1       0.450  10.643  20.524  0.00  0.00    +0.000 A 
ATOM     13  C   UNL     1      -0.261  11.533  21.346  0.00  0.00    +0.000 A 
ATOM     14  H   UNL     1      -1.798  11.981  24.110  0.00  0.00    +0.000 HD
ENDROOT
BRANCH   1  18
ATOM     15  C   UNL     1      -0.828  18.279  17.770  0.00  0.00    +0.000 A 
ATOM     16  N   UNL     1       0.185  17.402  17.769  0.00  0.00    +0.000 NA
ATOM     17  C   UNL     1       0.084  16.398  18.666  0.00  0.00    +0.000 A 
ATOM     18  C   UNL     1      -0.962  16.236  19.562  0.00  0.00    +0.000 A 
ATOM     19  C   UNL     1      -1.941  17.208  19.444  0.00  0.00    +0.000 A 
ATOM     20  N   UNL     1      -1.902  18.239  18.570  0.00  0.00    +0.000 NA
ENDBRANCH   1  18
BRANCH  11  21
ATOM     21  C   UNL     1       1.399   8.347  20.154  0.00  0.00    +0.000 A 
ATOM     22  C   UNL     1       1.830   8.642  18.848  0.00  0.00    +0.000 A 
ATOM     23  C   UNL     1       2.502   7.692  18.072  0.00  0.00    +0.000 A 
ATOM     24  C   UNL     1       2.753   6.415  18.580  0.00  0.00    +0.000 A 
ATOM     25  C   UNL     1       2.364   6.121  19.890  0.00  0.00    +0.000 A 
ATOM     26  C   UNL     1       1.705   7.075  20.666  0.00  0.00    +0.000 A 
BRANCH  24  27
ATOM     27  C   UNL     1       3.368   5.346  17.709  0.00  0.00    +0.000 C 
BRANCH  27  28
ATOM     28  N   UNL     1       4.756   5.618  17.278  0.00  0.00    +0.000 NA
ATOM     29  C   UNL     1       5.645   5.720  18.449  0.00  0.00    +0.000 C 
ATOM     30  C   UNL     1       7.134   5.722  18.099  0.00  0.00    +0.000 C 
ATOM     31  C   UNL     1       7.492   4.526  17.233  0.00  0.00    +0.000 C 
ATOM     32  C   UNL     1       6.633   4.547  15.979  0.00  0.00    +0.000 C 
ATOM     33  C   UNL     1       5.150   4.553  16.339  0.00  0.00    +0.000 C 
ENDBRANCH  27  28
ENDBRANCH  24  27
ENDBRANCH  11  21
TORSDOF 4
ENDMDL
MODEL 4
REMARK VINA RESULT:      -8.5      0.770      1.350
REMARK  Name = 
REMARK  4 active torsions:
REMARK  status: ('A' for Active; 'I' for Inactive)
REMARK    1  A    between atoms: C_4  and  C_5
REMARK    2  A    between atoms: C_15  and  C_16
REMARK    3  A    between atoms: C_19  and  C_20
REMARK    4  A    between atoms: C_20  and  N_21
REMARK                            x       y       z     vdW  Elec       q    Type
REMARK                         _______ _______ _______ _____ _____    ______ ____
ROOT
ATOM      1  C   UNL     1       0.000  15.374  19.544  0.00  0.00    +0.000 A 
ATOM      2  C   UNL     1       0.447  14.064  19.406  0.00  0.00    +0.000 A 
ATOM      3  C   UNL     1       0.025  13.129  20.360  0.00  0.00    +0.000 A 
ATOM      4  C   UNL     1      -0.802  13.555  21.397  0.00  0.00    +0.000 A 
ATOM      5  C   UNL     1      -1.202  14.875  21.512  0.00  0.00    +0.000 A 
ATOM      6  N   UNL     1      -0.788  15.769  20.580  0.00  0.00    +0.000 NA
ATOM      7  N   UNL     1      -1.075  12.455  22.175  0.00  0.00    +0.000 N 
ATOM      8  C   UNL     1      -0.454  11.349  21.665  0.00  0.00    +0.000 A 
ATOM      9  N   UNL     1      -0.535  10.116  22.193  0.00  0.00    +0.000 NA
ATOM     10  C   UNL     1       0.187   9.205  21.489  0.00  0.00    +0.000 A 
ATOM     11  C   UNL     1       0.969   9.436  20.343  0.00  0.00    +0.000 A 
ATOM     12  C   UNL     1       0.987  10.750  19.856  0.00  0.00    +0.000 A 
ATOM     13  C   UNL     1       0.253  11.736  20.537  0.00  0.00    +0.000 A 
ATOM     14  H   UNL     1      -1.648  12.435  23.006  0.00  0.00    +0.000 HD
ENDROOT
BRANCH   1  18
ATOM     15  C   UNL     1       1.021  18.355  16.787  0.00  0.00    +0.000 A 
ATOM     16  N   UNL     1      -0.284  18.184  17.037  0.00  0.00    +0.000 NA
ATOM     17  C   UNL     1      -0.581  17.220  17.934  0.00  0.00    +0.000 A 
ATOM     18  C   UNL     1       0.351  16.421  18.580  0.00  0.00    +0.000 A 
ATOM     19  C   UNL     1       1.659  16.715  18.234  0.00  0.00    +0.000 A 
ATOM     20  N   UNL     1       2.025  17.665  17.343  0.00  0.00    +0.000 NA
ENDBRANCH   1  18
BRANCH  11  21
ATOM     21  C   UNL     1       1.731   8.358  19.686  0.00  0.00    +0.000 A 
ATOM     22  C   UNL     1       2.266   8.512  18.394  0.00  0.00    +0.000 A 
ATOM     23  C   UNL     1       2.947   7.469  17.759  0.00  0.00    +0.000 A 
ATOM     24  C   UNL     1       3.105   6.236  18.398  0.00  0.00    +0.000 A 
ATOM     25  C   UNL     1       2.611   6.081  19.697  0.00  0.00    +0.000 A 
ATOM     26  C   UNL     1       1.944   7.128  20.332  0.00  0.00    +0.000 A 
BRANCH  24  27
ATOM     27  C   UNL     1       3.731   5.067  17.675  0.00  0.00    +0.000 C 
BRANCH  27  28
ATOM     28  N   UNL     1       5.209   5.073  17.649  0.00  0.00    +0.000 NA
ATOM     29  C   UNL     1       5.700   6.096  16.708  0.00  0.00    +0.000 C 
ATOM     30  C   UNL     1       7.201   6.368  16.816  0.00  0.00    +0.000 C 
ATOM     31  C   UNL     1       7.594   6.696  18.246  0.00  0.00    +0.000 C 
ATOM     32  C   UNL     1       7.178   5.547  19.150  0.00  0.00    +0.000 C 
ATOM     33  C   UNL     1       5.681   5.278  19.030  0.00  0.00    +0.000 C 
ENDBRANCH  27  28
ENDBRANCH  24  27
ENDBRANCH  11  21
TORSDOF 4
ENDMDL
MODEL 5
REMARK VINA RESULT:      -8.4      2.017     10.517
REMARK  Name = 
REMARK  4 active torsions:
REMARK  status: ('A' for Active; 'I' for Inactive)
REMARK    1  A    between atoms: C_4  and  C_5
REMARK    2  A    between atoms: C_15  and  C_16
REMARK    3  A    between atoms: C_19  and  C_20
REMARK    4  A    between atoms: C_20  and  N_21
REMARK                            x       y       z     vdW  Elec       q    Type
REMARK                         _______ _______ _______ _____ _____    ______ ____
ROOT
ATOM      1  C   UNL     1       4.925   4.581  16.530  0.00  0.00    +0.000 A 
ATOM      2  C   UNL     1       4.257   5.701  17.016  0.00  0.00    +0.000 A 
ATOM      3  C   UNL     1       3.500   5.550  18.185  0.00  0.00    +0.000 A 
ATOM      4  C   UNL     1       3.441   4.297  18.789  0.00  0.00    +0.000 A 
ATOM      5  C   UNL     1       4.100   3.202  18.257  0.00  0.00    +0.000 A 
ATOM      6  N   UNL     1       4.832   3.362  17.128  0.00  0.00    +0.000 NA
ATOM      7  N   UNL     1       2.653   4.424  19.909  0.00  0.00    +0.000 N 
ATOM      8  C   UNL     1       2.214   5.713  20.035  0.00  0.00    +0.000 A 
ATOM      9  N   UNL     1       1.434   6.160  21.033  0.00  0.00    +0.000 NA
ATOM     10  C   UNL     1       1.142   7.481  20.907  0.00  0.00    +0.000 A 
ATOM     11  C   UNL     1       1.550   8.352  19.882  0.00  0.00    +0.000 A 
ATOM     12  C   UNL     1       2.371   7.802  18.888  0.00  0.00    +0.000 A 
ATOM     13  C   UNL     1       2.714   6.442  18.967  0.00  0.00    +0.000 A 
ATOM     14  H   UNL     1       2.415   3.691  20.562  0.00  0.00    +0.000 HD
ENDROOT
BRANCH   1  18
ATOM     15  C   UNL     1       7.340   4.739  13.114  0.00  0.00    +0.000 A 
ATOM     16  N   UNL     1       7.731   5.472  14.165  0.00  0.00    +0.000 NA
ATOM     17  C   UNL     1       6.936   5.395  15.254  0.00  0.00    +0.000 A 
ATOM     18  C   UNL     1       5.776   4.639  15.338  0.00  0.00    +0.000 A 
ATOM     19  C   UNL     1       5.500   3.928  14.183  0.00  0.00    +0.000 A 
ATOM     20  N   UNL     1       6.252   3.959  13.060  0.00  0.00    +0.000 NA
ENDBRANCH   1  18
BRANCH  11  21
ATOM     21  C   UNL     1       1.139   9.768  19.848  0.00  0.00    +0.000 A 
ATOM     22  C   UNL     1       0.796  10.467  21.020  0.00  0.00    +0.000 A 
ATOM     23  C   UNL     1       0.362  11.795  20.974  0.00  0.00    +0.000 A 
ATOM     24  C   UNL     1       0.249  12.460  19.750  0.00  0.00    +0.000 A 
ATOM     25  C   UNL     1       0.623  11.789  18.581  0.00  0.00    +0.000 A 
ATOM     26  C   UNL     1       1.068  10.468  18.632  0.00  0.00    +0.000 A 
BRANCH  24  27
ATOM     27  C   UNL     1      -0.332  13.851  19.678  0.00  0.00    +0.000 C 
BRANCH  27  28
ATOM     28  N   UNL     1       0.474  14.824  18.910  0.00  0.00    +0.000 NA
ATOM     29  C   UNL     1      -0.306  16.048  18.657  0.00  0.00    +0.000 C 
ATOM     30  C   UNL     1       0.526  17.213  18.117  0.00  0.00    +0.000 C 
ATOM     31  C   UNL     1       1.721  17.491  19.013  0.00  0.00    +0.000 C 
ATOM     32  C   UNL     1       2.557  16.227  19.131  0.00  0.00    +0.000 C 
ATOM     33  C   UNL     1       1.716  15.070  19.664  0.00  0.00    +0.000 C 
ENDBRANCH  27  28
ENDBRANCH  24  27
ENDBRANCH  11  21
TORSDOF 4
ENDMDL
MODEL 6
REMARK VINA RESULT:      -8.4      1.685      2.261
REMARK  Name = 
REMARK  4 active torsions:
REMARK  status: ('A' for Active; 'I' for Inactive)
REMARK    1  A    between atoms: C_4  and  C_5
REMARK    2  A    between atoms: C_15  and  C_16
REMARK    3  A    between atoms: C_19  and  C_20
REMARK    4  A    between atoms: C_20  and  N_21
REMARK                            x       y       z     vdW  Elec       q    Type
REMARK                         _______ _______ _______ _____ _____    ______ ____
ROOT
ATOM      1  C   UNL     1      -1.037  15.724  20.428  0.00  0.00    +0.000 A 
ATOM      2  C   UNL     1      -0.559  14.429  20.248  0.00  0.00    +0.000 A 
ATOM      3  C   UNL     1      -0.724  13.524  21.304  0.00  0.00    +0.000 A 
ATOM      4  C   UNL     1      -1.337  13.962  22.475  0.00  0.00    +0.000 A 
ATOM      5  C   UNL     1      -1.774  15.268  22.621  0.00  0.00    +0.000 A 
ATOM      6  N   UNL     1      -1.612  16.133  21.591  0.00  0.00    +0.000 NA
ATOM      7  N   UNL     1      -1.384  12.890  23.334  0.00  0.00    +0.000 N 
ATOM      8  C   UNL     1      -0.824  11.789  22.747  0.00  0.00    +0.000 A 
ATOM      9  N   UNL     1      -0.729  10.580  23.326  0.00  0.00    +0.000 NA
ATOM     10  C   UNL     1      -0.121   9.669  22.521  0.00  0.00    +0.000 A 
ATOM     11  C   UNL     1       0.391   9.879  21.229  0.00  0.00    +0.000 A 
ATOM     12  C   UNL     1       0.238  11.168  20.699  0.00  0.00    +0.000 A 
ATOM     13  C   UNL     1      -0.390  12.152  21.482  0.00  0.00    +0.000 A 
ATOM     14  H   UNL     1      -1.769  12.885  24.268  0.00  0.00    +0.000 HD
ENDROOT
BRANCH   1  18
ATOM     15  C   UNL     1      -0.807  18.630  17.423  0.00  0.00    +0.000 A 
ATOM     16  N   UNL     1       0.236  17.798  17.540  0.00  0.00    +0.000 NA
ATOM     17  C   UNL     1       0.130  16.868  18.513  0.00  0.00    +0.000 A 
ATOM     18  C   UNL     1      -0.951  16.738  19.372  0.00  0.00    +0.000 A 
ATOM     19  C   UNL     1      -1.958  17.657  19.131  0.00  0.00    +0.000 A 
ATOM     20  N   UNL     1      -1.916  18.613  18.175  0.00  0.00    +0.000 NA
ENDBRANCH   1  18
BRANCH  11  21
ATOM     21  C   UNL     1       1.056   8.806  20.467  0.00  0.00    +0.000 A 
ATOM     22  C   UNL     1       1.357   7.561  21.050  0.00  0.00    +0.000 A 
ATOM     23  C   UNL     1       2.029   6.566  20.335  0.00  0.00    +0.000 A 
ATOM     24  C   UNL     1       2.429   6.792  19.016  0.00  0.00    +0.000 A 
ATOM     25  C   UNL     1       2.104   8.010  18.411  0.00  0.00    +0.000 A 
ATOM     26  C   UNL     1       1.421   8.996  19.123  0.00  0.00    +0.000 A 
BRANCH  24  27
ATOM     27  C   UNL     1       3.261   5.771  18.276  0.00  0.00    +0.000 C 
BRANCH  27  28
ATOM     28  N   UNL     1       2.934   4.362  18.584  0.00  0.00    +0.000 NA
ATOM     29  C   UNL     1       2.570   3.641  17.352  0.00  0.00    +0.000 C 
ATOM     30  C   UNL     1       2.487   2.123  17.523  0.00  0.00    +0.000 C 
ATOM     31  C   UNL     1       3.766   1.572  18.132  0.00  0.00    +0.000 C 
ATOM     32  C   UNL     1       4.019   2.262  19.462  0.00  0.00    +0.000 C 
ATOM     33  C   UNL     1       4.093   3.776  19.281  0.00  0.00    +0.000 C 
ENDBRANCH  27  28
ENDBRANCH  24  27
ENDBRANCH  11  21
TORSDOF 4
ENDMDL
MODEL 7
REMARK VINA RESULT:      -8.3      1.700     10.229
REMARK  Name = 
REMARK  4 active torsions:
REMARK  status: ('A' for Active; 'I' for Inactive)
REMARK    1  A    between atoms: C_4  and  C_5
REMARK    2  A    between atoms: C_15  and  C_16
REMARK    3  A    between atoms: C_19  and  C_20
REMARK    4  A    between atoms: C_20  and  N_21
REMARK                            x       y       z     vdW  Elec       q    Type
REMARK                         _______ _______ _______ _____ _____    ______ ____
ROOT
ATOM      1  C   UNL     1       4.313   5.339  17.619  0.00  0.00    +0.000 A 
ATOM      2  C   UNL     1       3.717   6.551  17.955  0.00  0.00    +0.000 A 
ATOM      3  C   UNL     1       2.838   6.562  19.046  0.00  0.00    +0.000 A 
ATOM      4  C   UNL     1       2.594   5.370  19.723  0.00  0.00    +0.000 A 
ATOM      5  C   UNL     1       3.188   4.181  19.338  0.00  0.00    +0.000 A 
ATOM      6  N   UNL     1       4.039   4.184  18.283  0.00  0.00    +0.000 NA
ATOM      7  N   UNL     1       1.717   5.656  20.743  0.00  0.00    +0.000 N 
ATOM      8  C   UNL     1       1.401   6.986  20.736  0.00  0.00    +0.000 A 
ATOM      9  N   UNL     1       0.576   7.580  21.615  0.00  0.00    +0.000 NA
ATOM     10  C   UNL     1       0.433   8.909  21.371  0.00  0.00    +0.000 A 
ATOM     11  C   UNL     1       1.025   9.657  20.338  0.00  0.00    +0.000 A 
ATOM     12  C   UNL     1       1.880   8.958  19.475  0.00  0.00    +0.000 A 
ATOM     13  C   UNL     1       2.074   7.581  19.680  0.00  0.00    +0.000 A 
ATOM     14  H   UNL     1       1.344   5.001  21.415  0.00  0.00    +0.000 HD
ENDROOT
BRANCH   1  18
ATOM     15  C   UNL     1       7.054   5.007  14.471  0.00  0.00    +0.000 A 
ATOM     16  N   UNL     1       7.387   5.824  15.479  0.00  0.00    +0.000 NA
ATOM     17  C   UNL     1       6.486   5.906  16.482  0.00  0.00    +0.000 A 
ATOM     18  C   UNL     1       5.278   5.226  16.521  0.00  0.00    +0.000 A 
ATOM     19  C   UNL     1       5.071   4.412  15.420  0.00  0.00    +0.000 A 
ATOM     20  N   UNL     1       5.929   4.285  14.383  0.00  0.00    +0.000 NA
ENDBRANCH   1  18
BRANCH  11  21
ATOM     21  C   UNL     1       0.764  11.098  20.167  0.00  0.00    +0.000 A 
ATOM     22  C   UNL     1       1.017  11.756  18.949  0.00  0.00    +0.000 A 
ATOM     23  C   UNL     1       0.812  13.132  18.809  0.00  0.00    +0.000 A 
ATOM     24  C   UNL     1       0.355  13.891  19.889  0.00  0.00    +0.000 A 
ATOM     25  C   UNL     1       0.064  13.245  21.094  0.00  0.00    +0.000 A 
ATOM     26  C   UNL     1       0.257  11.869  21.226  0.00  0.00    +0.000 A 
BRANCH  24  27
ATOM     27  C   UNL     1       0.246  15.394  19.784  0.00  0.00    +0.000 C 
BRANCH  27  28
ATOM     28  N   UNL     1       0.524  15.945  18.441  0.00  0.00    +0.000 NA
ATOM     29  C   UNL     1      -0.480  16.965  18.089  0.00  0.00    +0.000 C 
ATOM     30  C   UNL     1      -0.121  17.786  16.849  0.00  0.00    +0.000 C 
ATOM     31  C   UNL     1       1.265  18.393  16.979  0.00  0.00    +0.000 C 
ATOM     32  C   UNL     1       2.274  17.280  17.211  0.00  0.00    +0.000 C 
ATOM     33  C   UNL     1       1.904  16.463  18.446  0.00  0.00    +0.000 C 
ENDBRANCH  27  28
ENDBRANCH  24  27
ENDBRANCH  11  21
TORSDOF 4
ENDMDL
MODEL 8
REMARK VINA RESULT:      -8.3      2.633      3.876
REMARK  Name = 
REMARK  4 active torsions:
REMARK  status: ('A' for Active; 'I' for Inactive)
REMARK    1  A    between atoms: C_4  and  C_5
REMARK    2  A    between atoms: C_15  and  C_16
REMARK    3  A    between atoms: C_19  and  C_20
REMARK    4  A    between atoms: C_20  and  N_21
REMARK                            x       y       z     vdW  Elec       q    Type
REMARK                         _______ _______ _______ _____ _____    ______ ____
ROOT
ATOM      1  C   UNL     1       2.291  16.001  19.506  0.00  0.00    +0.000 A 
ATOM      2  C   UNL     1       2.369  14.613  19.443  0.00  0.00    +0.000 A 
ATOM      3  C   UNL     1       1.213  13.913  19.074  0.00  0.00    +0.000 A 
ATOM      4  C   UNL     1       0.051  14.632  18.805  0.00  0.00    +0.000 A 
ATOM      5  C   UNL     1       0.010  16.012  18.906  0.00  0.00    +0.000 A 
ATOM      6  N   UNL     1       1.137  16.677  19.261  0.00  0.00    +0.000 NA
ATOM      7  N   UNL     1      -0.919  13.720  18.461  0.00  0.00    +0.000 N 
ATOM      8  C   UNL     1      -0.410  12.452  18.499  0.00  0.00    +0.000 A 
ATOM      9  N   UNL     1      -1.106  11.341  18.202  0.00  0.00    +0.000 NA
ATOM     10  C   UNL     1      -0.357  10.214  18.331  0.00  0.00    +0.000 A 
ATOM     11  C   UNL     1       0.987  10.123  18.734  0.00  0.00    +0.000 A 
ATOM     12  C   UNL     1       1.637  11.333  19.012  0.00  0.00    +0.000 A 
ATOM     13  C   UNL     1       0.917  12.534  18.891  0.00  0.00    +0.000 A 
ATOM     14  H   UNL     1      -1.875  13.927  18.210  0.00  0.00    +0.000 HD
ENDROOT
BRANCH   1  18
ATOM     15  C   UNL     1       5.614  18.368  20.448  0.00  0.00    +0.000 A 
ATOM     16  N   UNL     1       4.596  18.383  21.318  0.00  0.00    +0.000 NA
ATOM     17  C   UNL     1       3.541  17.605  20.990  0.00  0.00    +0.000 A 
ATOM     18  C   UNL     1       3.453  16.830  19.843  0.00  0.00    +0.000 A 
ATOM     19  C   UNL     1       4.580  16.904  19.042  0.00  0.00    +0.000 A 
ATOM     20  N   UNL     1       5.667  17.662  19.310  0.00  0.00    +0.000 NA
ENDBRANCH   1  18
BRANCH  11  21
ATOM     21  C   UNL     1       1.680   8.827  18.860  0.00  0.00    +0.000 A 
ATOM     22  C   UNL     1       1.569   8.039  20.019  0.00  0.00    +0.000 A 
ATOM     23  C   UNL     1       2.267   6.834  20.149  0.00  0.00    +0.000 A 
ATOM     24  C   UNL     1       3.105   6.389  19.123  0.00  0.00    +0.000 A 
ATOM     25  C   UNL     1       3.195   7.144  17.950  0.00  0.00    +0.000 A 
ATOM     26  C   UNL     1       2.487   8.339  17.818  0.00  0.00    +0.000 A 
BRANCH  24  27
ATOM     27  C   UNL     1       3.955   5.154  19.303  0.00  0.00    +0.000 C 
BRANCH  27  28
ATOM     28  N   UNL     1       3.196   3.896  19.469  0.00  0.00    +0.000 NA
ATOM     29  C   UNL     1       2.502   3.886  20.770  0.00  0.00    +0.000 C 
ATOM     30  C   UNL     1       1.475   2.761  20.916  0.00  0.00    +0.000 C 
ATOM     31  C   UNL     1       0.489   2.770  19.761  0.00  0.00    +0.000 C 
ATOM     32  C   UNL     1       1.254   2.648  18.454  0.00  0.00    +0.000 C 
ATOM     33  C   UNL     1       2.281   3.769  18.321  0.00  0.00    +0.000 C 
ENDBRANCH  27  28
ENDBRANCH  24  27
ENDBRANCH  11  21
TORSDOF 4
ENDMDL
MODEL 9
REMARK VINA RESULT:      -8.3      2.037     10.640
REMARK  Name = 
REMARK  4 active torsions:
REMARK  status: ('A' for Active; 'I' for Inactive)
REMARK    1  A    between atoms: C_4  and  C_5
REMARK    2  A    between atoms: C_15  and  C_16
REMARK    3  A    between atoms: C_19  and  C_20
REMARK    4  A    between atoms: C_20  and  N_21
REMARK                            x       y       z     vdW  Elec       q    Type
REMARK                         _______ _______ _______ _____ _____    ______ ____
ROOT
ATOM      1  C   UNL     1       4.658   5.168  17.243  0.00  0.00    +0.000 A 
ATOM      2  C   UNL     1       3.982   6.363  17.471  0.00  0.00    +0.000 A 
ATOM      3  C   UNL     1       3.195   6.453  18.626  0.00  0.00    +0.000 A 
ATOM      4  C   UNL     1       3.117   5.350  19.473  0.00  0.00    +0.000 A 
ATOM      5  C   UNL     1       3.785   4.171  19.194  0.00  0.00    +0.000 A 
ATOM      6  N   UNL     1       4.546   4.097  18.074  0.00  0.00    +0.000 NA
ATOM      7  N   UNL     1       2.300   5.702  20.522  0.00  0.00    +0.000 N 
ATOM      8  C   UNL     1       1.863   6.989  20.370  0.00  0.00    +0.000 A 
ATOM      9  N   UNL     1       1.060   7.629  21.235  0.00  0.00    +0.000 NA
ATOM     10  C   UNL     1       0.775   8.896  20.834  0.00  0.00    +0.000 A 
ATOM     11  C   UNL     1       1.212   9.539  19.663  0.00  0.00    +0.000 A 
ATOM     12  C   UNL     1       2.057   8.799  18.824  0.00  0.00    +0.000 A 
ATOM     13  C   UNL     1       2.393   7.485  19.189  0.00  0.00    +0.000 A 
ATOM     14  H   UNL     1       2.044   5.118  21.305  0.00  0.00    +0.000 HD
ENDROOT
BRANCH   1  18
ATOM     15  C   UNL     1       7.192   4.644  13.950  0.00  0.00    +0.000 A 
ATOM     16  N   UNL     1       5.999   4.035  13.899  0.00  0.00    +0.000 NA
ATOM     17  C   UNL     1       5.203   4.228  14.972  0.00  0.00    +0.000 A 
ATOM     18  C   UNL     1       5.540   4.982  16.086  0.00  0.00    +0.000 A 
ATOM     19  C   UNL     1       6.795   5.560  15.998  0.00  0.00    +0.000 A 
ATOM     20  N   UNL     1       7.642   5.407  14.955  0.00  0.00    +0.000 NA
ENDBRANCH   1  18
BRANCH  11  21
ATOM     21  C   UNL     1       0.807  10.918  19.329  0.00  0.00    +0.000 A 
ATOM     22  C   UNL     1       1.686  11.814  18.695  0.00  0.00    +0.000 A 
ATOM     23  C   UNL     1       1.310  13.133  18.424  0.00  0.00    +0.000 A 
ATOM     24  C   UNL     1       0.043  13.596  18.790  0.00  0.00    +0.000 A 
ATOM     25  C   UNL     1      -0.854  12.705  19.388  0.00  0.00    +0.000 A 
ATOM     26  C   UNL     1      -0.480  11.386  19.644  0.00  0.00    +0.000 A 
BRANCH  24  27
ATOM     27  C   UNL     1      -0.328  15.048  18.613  0.00  0.00    +0.000 C 
BRANCH  27  28
ATOM     28  N   UNL     1      -0.438  15.820  19.870  0.00  0.00    +0.000 NA
ATOM     29  C   UNL     1       0.892  16.288  20.300  0.00  0.00    +0.000 C 
ATOM     30  C   UNL     1       0.851  17.321  21.427  0.00  0.00    +0.000 C 
ATOM     31  C   UNL     1      -0.058  18.485  21.067  0.00  0.00    +0.000 C 
ATOM     32  C   UNL     1      -1.447  17.953  20.760  0.00  0.00    +0.000 C 
ATOM     33  C   UNL     1      -1.395  16.917  19.639  0.00  0.00    +0.000 C 
ENDBRANCH  27  28
ENDBRANCH  24  27
ENDBRANCH  11  21
TORSDOF 4
ENDMDL
