MODEL 1
REMARK VINA RESULT:      -6.9      0.000      0.000
REMARK  Name = 
REMARK  1 active torsions:
REMARK  status: ('A' for Active; 'I' for Inactive)
REMARK    1  A    between atoms: C_2  and  C_9
REMARK                            x       y       z     vdW  Elec       q    Type
REMARK                         _______ _______ _______ _____ _____    ______ ____
ROOT
ATOM      1  C   UNL     1       4.417   4.692  17.759  0.00  0.00    +0.000 A 
ATOM      2  C   UNL     1       3.183   5.118  17.431  0.00  0.00    +0.000 A 
ATOM      3  N   UNL     1       2.025   4.865  18.125  0.00  0.00    +0.000 NA
ATOM      4  C   UNL     1       2.156   4.128  19.174  0.00  0.00    +0.000 A 
ATOM      5  S   UNL     1       0.821   3.598  20.174  0.00  0.00    +0.000 S 
ATOM      6  C   UNL     1       1.913   2.704  21.190  0.00  0.00    +0.000 A 
ATOM      7  C   UNL     1       3.185   2.844  20.791  0.00  0.00    +0.000 A 
ATOM      8  N   UNL     1       3.341   3.625  19.658  0.00  0.00    +0.000 N 
ATOM      9  C   UNL     1       4.540   3.902  19.021  0.00  0.00    +0.000 A 
ATOM     10  O   UNL     1       5.646   3.530  19.417  0.00  0.00    +0.000 OA
ENDROOT
BRANCH   1  12
ATOM     11  O   UNL     1       6.340   5.878  17.067  0.00  0.00    +0.000 OA
ATOM     12  C   UNL     1       5.527   4.999  16.791  0.00  0.00    +0.000 C 
ATOM     13  N   UNL     1       5.498   4.279  15.624  0.00  0.00    +0.000 N 
ATOM     14  C   UNL     1       6.350   4.520  14.576  0.00  0.00    +0.000 A 
ATOM     15  N   UNL     1       7.383   5.322  14.477  0.00  0.00    +0.000 NA
ATOM     16  C   UNL     1       7.906   5.252  13.199  0.00  0.00    +0.000 A 
ATOM     17  C   UNL     1       7.238   4.413  12.332  0.00  0.00    +0.000 A 
ATOM     18  S   UNL     1       5.952   3.639  13.162  0.00  0.00    +0.000 S 
ATOM     19  H   UNL     1       4.782   3.576  15.468  0.00  0.00    +0.000 HD
ENDBRANCH   1  12
TORSDOF 1
ENDMDL
MODEL 2
REMARK VINA RESULT:      -6.9      1.221      1.288
REMARK  Name = 
REMARK  1 active torsions:
REMARK  status: ('A' for Active; 'I' for Inactive)
REMARK    1  A    between atoms: C_2  and  C_9
REMARK                            x       y       z     vdW  Elec       q    Type
REMARK                         _______ _______ _______ _____ _____    ______ ____
ROOT
ATOM      1  C   UNL     1       4.865   4.703  17.772  0.00  0.00    +0.000 A 
ATOM      2  C   UNL     1       4.623   5.665  18.681  0.00  0.00    +0.000 A 
ATOM      3  N   UNL     1       3.665   5.633  19.665  0.00  0.00    +0.000 NA
ATOM      4  C   UNL     1       2.925   4.578  19.683  0.00  0.00    +0.000 A 
ATOM      5  S   UNL     1       1.585   4.340  20.784  0.00  0.00    +0.000 S 
ATOM      6  C   UNL     1       1.232   2.803  20.050  0.00  0.00    +0.000 A 
ATOM      7  C   UNL     1       2.101   2.512  19.071  0.00  0.00    +0.000 A 
ATOM      8  N   UNL     1       3.046   3.497  18.841  0.00  0.00    +0.000 N 
ATOM      9  C   UNL     1       4.035   3.464  17.870  0.00  0.00    +0.000 A 
ATOM     10  O   UNL     1       4.240   2.516  17.111  0.00  0.00    +0.000 OA
ENDROOT
BRANCH   1  12
ATOM     11  O   UNL     1       6.731   5.876  16.922  0.00  0.00    +0.000 OA
ATOM     12  C   UNL     1       5.894   5.001  16.717  0.00  0.00    +0.000 C 
ATOM     13  N   UNL     1       5.768   4.276  15.559  0.00  0.00    +0.000 N 
ATOM     14  C   UNL     1       6.534   4.509  14.445  0.00  0.00    +0.000 A 
ATOM     15  N   UNL     1       7.559   5.305  14.259  0.00  0.00    +0.000 NA
ATOM     16  C   UNL     1       7.978   5.227  12.944  0.00  0.00    +0.000 A 
ATOM     17  C   UNL     1       7.238   4.388  12.137  0.00  0.00    +0.000 A 
ATOM     18  S   UNL     1       6.020   3.623  13.072  0.00  0.00    +0.000 S 
ATOM     19  H   UNL     1       5.039   3.576  15.465  0.00  0.00    +0.000 HD
ENDBRANCH   1  12
TORSDOF 1
ENDMDL
MODEL 3
REMARK VINA RESULT:      -6.7      1.188      1.188
REMARK  Name = 
REMARK  1 active torsions:
REMARK  status: ('A' for Active; 'I' for Inactive)
REMARK    1  A    between atoms: C_2  and  C_9
REMARK                            x       y       z     vdW  Elec       q    Type
REMARK                         _______ _______ _______ _____ _____    ______ ____
ROOT
ATOM      1  C   UNL     1       4.965   5.664  17.666  0.00  0.00    +0.000 A 
ATOM      2  C   UNL     1       4.066   6.664  17.720  0.00  0.00    +0.000 A 
ATOM      3  N   UNL     1       3.005   6.758  18.588  0.00  0.00    +0.000 NA
ATOM      4  C   UNL     1       2.867   5.770  19.403  0.00  0.00    +0.000 A 
ATOM      5  S   UNL     1       1.548   5.618  20.544  0.00  0.00    +0.000 S 
ATOM      6  C   UNL     1       2.165   4.082  21.080  0.00  0.00    +0.000 A 
ATOM      7  C   UNL     1       3.299   3.757  20.443  0.00  0.00    +0.000 A 
ATOM      8  N   UNL     1       3.701   4.680  19.492  0.00  0.00    +0.000 N 
ATOM      9  C   UNL     1       4.814   4.572  18.674  0.00  0.00    +0.000 A 
ATOM     10  O   UNL     1       5.634   3.654  18.725  0.00  0.00    +0.000 OA
ENDROOT
BRANCH   1  12
ATOM     11  O   UNL     1       6.856   6.580  16.586  0.00  0.00    +0.000 OA
ATOM     12  C   UNL     1       5.982   5.717  16.560  0.00  0.00    +0.000 C 
ATOM     13  N   UNL     1       5.804   4.795  15.560  0.00  0.00    +0.000 N 
ATOM     14  C   UNL     1       6.555   4.783  14.411  0.00  0.00    +0.000 A 
ATOM     15  N   UNL     1       7.605   5.488  14.066  0.00  0.00    +0.000 NA
ATOM     16  C   UNL     1       7.992   5.149  12.783  0.00  0.00    +0.000 A 
ATOM     17  C   UNL     1       7.205   4.205  12.157  0.00  0.00    +0.000 A 
ATOM     18  S   UNL     1       5.978   3.680  13.236  0.00  0.00    +0.000 S 
ATOM     19  H   UNL     1       5.047   4.120  15.608  0.00  0.00    +0.000 HD
ENDBRANCH   1  12
TORSDOF 1
ENDMDL
MODEL 4
REMARK VINA RESULT:      -6.6      1.282      1.602
REMARK  Name = 
REMARK  1 active torsions:
REMARK  status: ('A' for Active; 'I' for Inactive)
REMARK    1  A    between atoms: C_2  and  C_9
REMARK                            x       y       z     vdW  Elec       q    Type
REMARK                         _______ _______ _______ _____ _____    ______ ____
ROOT
ATOM      1  C   UNL     1       4.482   4.320  17.358  0.00  0.00    +0.000 A 
ATOM      2  C   UNL     1       4.233   3.002  17.464  0.00  0.00    +0.000 A 
ATOM      3  N   UNL     1       3.338   2.410  18.320  0.00  0.00    +0.000 NA
ATOM      4  C   UNL     1       2.704   3.214  19.103  0.00  0.00    +0.000 A 
ATOM      5  S   UNL     1       1.576   2.696  20.336  0.00  0.00    +0.000 S 
ATOM      6  C   UNL     1       1.331   4.346  20.831  0.00  0.00    +0.000 A 
ATOM      7  C   UNL     1       2.042   5.197  20.078  0.00  0.00    +0.000 A 
ATOM      8  N   UNL     1       2.826   4.584  19.115  0.00  0.00    +0.000 N 
ATOM      9  C   UNL     1       3.676   5.227  18.230  0.00  0.00    +0.000 A 
ATOM     10  O   UNL     1       3.806   6.449  18.145  0.00  0.00    +0.000 OA
ENDROOT
BRANCH   1  12
ATOM     11  O   UNL     1       6.346   5.642  16.757  0.00  0.00    +0.000 OA
ATOM     12  C   UNL     1       5.586   4.736  16.425  0.00  0.00    +0.000 C 
ATOM     13  N   UNL     1       5.612   4.077  15.222  0.00  0.00    +0.000 N 
ATOM     14  C   UNL     1       6.464   4.418  14.201  0.00  0.00    +0.000 A 
ATOM     15  N   UNL     1       7.452   5.278  14.160  0.00  0.00    +0.000 NA
ATOM     16  C   UNL     1       7.996   5.302  12.889  0.00  0.00    +0.000 A 
ATOM     17  C   UNL     1       7.386   4.474  11.969  0.00  0.00    +0.000 A 
ATOM     18  S   UNL     1       6.133   3.590  12.739  0.00  0.00    +0.000 S 
ATOM     19  H   UNL     1       4.938   3.346  15.019  0.00  0.00    +0.000 HD
ENDBRANCH   1  12
TORSDOF 1
ENDMDL
MODEL 5
REMARK VINA RESULT:      -6.3      4.236      5.208
REMARK  Name = 
REMARK  1 active torsions:
REMARK  status: ('A' for Active; 'I' for Inactive)
REMARK    1  A    between atoms: C_2  and  C_9
REMARK                            x       y       z     vdW  Elec       q    Type
REMARK                         _______ _______ _______ _____ _____    ______ ____
ROOT
ATOM      1  C   UNL     1       2.229   7.271  18.851  0.00  0.00    +0.000 A 
ATOM      2  C   UNL     1       1.904   6.948  20.116  0.00  0.00    +0.000 A 
ATOM      3  N   UNL     1       1.326   7.779  21.045  0.00  0.00    +0.000 NA
ATOM      4  C   UNL     1       1.106   8.985  20.648  0.00  0.00    +0.000 A 
ATOM      5  S   UNL     1       0.458  10.250  21.670  0.00  0.00    +0.000 S 
ATOM      6  C   UNL     1       0.578  11.392  20.363  0.00  0.00    +0.000 A 
ATOM      7  C   UNL     1       1.048  10.817  19.247  0.00  0.00    +0.000 A 
ATOM      8  N   UNL     1       1.362   9.476  19.389  0.00  0.00    +0.000 N 
ATOM      9  C   UNL     1       1.893   8.657  18.405  0.00  0.00    +0.000 A 
ATOM     10  O   UNL     1       2.105   9.005  17.243  0.00  0.00    +0.000 OA
ENDROOT
BRANCH   1  12
ATOM     11  O   UNL     1       2.395   5.166  17.791  0.00  0.00    +0.000 OA
ATOM     12  C   UNL     1       2.954   6.230  18.043  0.00  0.00    +0.000 C 
ATOM     13  N   UNL     1       4.241   6.555  17.693  0.00  0.00    +0.000 N 
ATOM     14  C   UNL     1       5.092   5.675  17.074  0.00  0.00    +0.000 A 
ATOM     15  N   UNL     1       4.881   4.475  16.590  0.00  0.00    +0.000 NA
ATOM     16  C   UNL     1       6.064   3.959  16.094  0.00  0.00    +0.000 A 
ATOM     17  C   UNL     1       7.170   4.771  16.236  0.00  0.00    +0.000 A 
ATOM     18  S   UNL     1       6.699   6.255  16.958  0.00  0.00    +0.000 S 
ATOM     19  H   UNL     1       4.634   7.455  17.952  0.00  0.00    +0.000 HD
ENDBRANCH   1  12
TORSDOF 1
ENDMDL
MODEL 6
REMARK VINA RESULT:      -6.3      4.433      6.190
REMARK  Name = 
REMARK  1 active torsions:
REMARK  status: ('A' for Active; 'I' for Inactive)
REMARK    1  A    between atoms: C_2  and  C_9
REMARK                            x       y       z     vdW  Elec       q    Type
REMARK                         _______ _______ _______ _____ _____    ______ ____
ROOT
ATOM      1  C   UNL     1       2.332   7.813  18.697  0.00  0.00    +0.000 A 
ATOM      2  C   UNL     1       2.407   8.716  17.703  0.00  0.00    +0.000 A 
ATOM      3  N   UNL     1       1.835   9.965  17.694  0.00  0.00    +0.000 NA
ATOM      4  C   UNL     1       1.147  10.267  18.741  0.00  0.00    +0.000 A 
ATOM      5  S   UNL     1       0.256  11.762  18.931  0.00  0.00    +0.000 S 
ATOM      6  C   UNL     1      -0.319  11.242  20.488  0.00  0.00    +0.000 A 
ATOM      7  C   UNL     1       0.171  10.039  20.819  0.00  0.00    +0.000 A 
ATOM      8  N   UNL     1       0.981   9.471  19.850  0.00  0.00    +0.000 N 
ATOM      9  C   UNL     1       1.587   8.226  19.925  0.00  0.00    +0.000 A 
ATOM     10  O   UNL     1       1.528   7.475  20.899  0.00  0.00    +0.000 OA
ENDROOT
BRANCH   1  12
ATOM     11  O   UNL     1       3.959   6.383  17.754  0.00  0.00    +0.000 OA
ATOM     12  C   UNL     1       2.946   6.463  18.444  0.00  0.00    +0.000 C 
ATOM     13  N   UNL     1       2.265   5.402  18.984  0.00  0.00    +0.000 N 
ATOM     14  C   UNL     1       2.605   4.095  18.743  0.00  0.00    +0.000 A 
ATOM     15  N   UNL     1       3.632   3.578  18.113  0.00  0.00    +0.000 NA
ATOM     16  C   UNL     1       3.519   2.200  18.092  0.00  0.00    +0.000 A 
ATOM     17  C   UNL     1       2.384   1.689  18.686  0.00  0.00    +0.000 A 
ATOM     18  S   UNL     1       1.460   2.974  19.348  0.00  0.00    +0.000 S 
ATOM     19  H   UNL     1       1.426   5.554  19.535  0.00  0.00    +0.000 HD
ENDBRANCH   1  12
TORSDOF 1
ENDMDL
MODEL 7
REMARK VINA RESULT:      -6.2      4.990      7.821
REMARK  Name = 
REMARK  1 active torsions:
REMARK  status: ('A' for Active; 'I' for Inactive)
REMARK    1  A    between atoms: C_2  and  C_9
REMARK                            x       y       z     vdW  Elec       q    Type
REMARK                         _______ _______ _______ _____ _____    ______ ____
ROOT
ATOM      1  C   UNL     1       2.268   7.722  18.919  0.00  0.00    +0.000 A 
ATOM      2  C   UNL     1       3.065   7.962  17.861  0.00  0.00    +0.000 A 
ATOM      3  N   UNL     1       4.050   7.134  17.381  0.00  0.00    +0.000 NA
ATOM      4  C   UNL     1       4.221   6.038  18.036  0.00  0.00    +0.000 A 
ATOM      5  S   UNL     1       5.466   4.862  17.671  0.00  0.00    +0.000 S 
ATOM      6  C   UNL     1       4.957   3.881  19.015  0.00  0.00    +0.000 A 
ATOM      7  C   UNL     1       3.905   4.419  19.648  0.00  0.00    +0.000 A 
ATOM      8  N   UNL     1       3.487   5.631  19.126  0.00  0.00    +0.000 N 
ATOM      9  C   UNL     1       2.448   6.410  19.610  0.00  0.00    +0.000 A 
ATOM     10  O   UNL     1       1.714   6.094  20.547  0.00  0.00    +0.000 OA
ENDROOT
BRANCH   1  12
ATOM     11  O   UNL     1       1.050   9.709  18.530  0.00  0.00    +0.000 OA
ATOM     12  C   UNL     1       1.330   8.822  19.333  0.00  0.00    +0.000 C 
ATOM     13  N   UNL     1       0.897   8.760  20.633  0.00  0.00    +0.000 N 
ATOM     14  C   UNL     1       0.146   9.748  21.219  0.00  0.00    +0.000 A 
ATOM     15  N   UNL     1      -0.402  10.825  20.709  0.00  0.00    +0.000 NA
ATOM     16  C   UNL     1      -1.032  11.543  21.708  0.00  0.00    +0.000 A 
ATOM     17  C   UNL     1      -0.926  11.013  22.977  0.00  0.00    +0.000 A 
ATOM     18  S   UNL     1      -0.063   9.531  22.905  0.00  0.00    +0.000 S 
ATOM     19  H   UNL     1       1.185   7.997  21.238  0.00  0.00    +0.000 HD
ENDBRANCH   1  12
TORSDOF 1
ENDMDL
MODEL 8
REMARK VINA RESULT:      -6.1      4.654      6.801
REMARK  Name = 
REMARK  1 active torsions:
REMARK  status: ('A' for Active; 'I' for Inactive)
REMARK    1  A    between atoms: C_2  and  C_9
REMARK                            x       y       z     vdW  Elec       q    Type
REMARK                         _______ _______ _______ _____ _____    ______ ____
ROOT
ATOM      1  C   UNL     1       2.122   8.015  19.137  0.00  0.00    +0.000 A 
ATOM      2  C   UNL     1       2.134   8.712  17.986  0.00  0.00    +0.000 A 
ATOM      3  N   UNL     1       1.456   9.880  17.735  0.00  0.00    +0.000 NA
ATOM      4  C   UNL     1       0.728  10.317  18.704  0.00  0.00    +0.000 A 
ATOM      5  S   UNL     1      -0.294  11.735  18.601  0.00  0.00    +0.000 S 
ATOM      6  C   UNL     1      -0.846  11.477  20.231  0.00  0.00    +0.000 A 
ATOM      7  C   UNL     1      -0.258  10.409  20.788  0.00  0.00    +0.000 A 
ATOM      8  N   UNL     1       0.614   9.739  19.947  0.00  0.00    +0.000 N 
ATOM      9  C   UNL     1       1.324   8.591  20.261  0.00  0.00    +0.000 A 
ATOM     10  O   UNL     1       1.316   8.041  21.363  0.00  0.00    +0.000 OA
ENDROOT
BRANCH   1  12
ATOM     11  O   UNL     1       3.680   6.464  18.270  0.00  0.00    +0.000 OA
ATOM     12  C   UNL     1       2.856   6.702  19.150  0.00  0.00    +0.000 C 
ATOM     13  N   UNL     1       2.488   5.839  20.150  0.00  0.00    +0.000 N 
ATOM     14  C   UNL     1       2.954   4.551  20.236  0.00  0.00    +0.000 A 
ATOM     15  N   UNL     1       3.870   3.923  19.539  0.00  0.00    +0.000 NA
ATOM     16  C   UNL     1       3.965   2.612  19.970  0.00  0.00    +0.000 A 
ATOM     17  C   UNL     1       3.091   2.255  20.975  0.00  0.00    +0.000 A 
ATOM     18  S   UNL     1       2.165   3.623  21.439  0.00  0.00    +0.000 S 
ATOM     19  H   UNL     1       1.788   6.109  20.834  0.00  0.00    +0.000 HD
ENDBRANCH   1  12
TORSDOF 1
ENDMDL
MODEL 9
REMARK VINA RESULT:      -6.1      3.764      7.284
REMARK  Name = 
REMARK  1 active torsions:
REMARK  status: ('A' for Active; 'I' for Inactive)
REMARK    1  A    between atoms: C_2  and  C_9
REMARK                            x       y       z     vdW  Elec       q    Type
REMARK                         _______ _______ _______ _____ _____    ______ ____
ROOT
ATOM      1  C   UNL     1       3.300   5.925  18.947  0.00  0.00    +0.000 A 
ATOM      2  C   UNL     1       3.676   4.642  19.098  0.00  0.00    +0.000 A 
ATOM      3  N   UNL     1       4.475   3.922  18.244  0.00  0.00    +0.000 NA
ATOM      4  C   UNL     1       4.872   4.553  17.193  0.00  0.00    +0.000 A 
ATOM      5  S   UNL     1       5.827   3.829  15.917  0.00  0.00    +0.000 S 
ATOM      6  C   UNL     1       5.796   5.321  15.022  0.00  0.00    +0.000 A 
ATOM      7  C   UNL     1       5.131   6.278  15.684  0.00  0.00    +0.000 A 
ATOM      8  N   UNL     1       4.595   5.866  16.892  0.00  0.00    +0.000 N 
ATOM      9  C   UNL     1       3.839   6.645  17.754  0.00  0.00    +0.000 A 
ATOM     10  O   UNL     1       3.588   7.839  17.582  0.00  0.00    +0.000 OA
ENDROOT
BRANCH   1  12
ATOM     11  O   UNL     1       1.789   5.715  20.751  0.00  0.00    +0.000 OA
ATOM     12  C   UNL     1       2.330   6.478  19.954  0.00  0.00    +0.000 C 
ATOM     13  N   UNL     1       2.089   7.825  19.853  0.00  0.00    +0.000 N 
ATOM     14  C   UNL     1       1.136   8.472  20.599  0.00  0.00    +0.000 A 
ATOM     15  N   UNL     1       0.384   8.046  21.585  0.00  0.00    +0.000 NA
ATOM     16  C   UNL     1      -0.461   9.060  21.997  0.00  0.00    +0.000 A 
ATOM     17  C   UNL     1      -0.357  10.240  21.291  0.00  0.00    +0.000 A 
ATOM     18  S   UNL     1       0.885  10.095  20.116  0.00  0.00    +0.000 S 
ATOM     19  H   UNL     1       2.570   8.384  19.156  0.00  0.00    +0.000 HD
ENDBRANCH   1  12
TORSDOF 1
ENDMDL
