MODEL 1
REMARK VINA RESULT:      -8.8      0.000      0.000
REMARK  Name = 
REMARK  3 active torsions:
REMARK  status: ('A' for Active; 'I' for Inactive)
REMARK    1  A    between atoms: C_2  and  C_3
REMARK    2  A    between atoms: C_2  and  C_8
REMARK    3  A    between atoms: C_21  and  C_22
REMARK                            x       y       z     vdW  Elec       q    Type
REMARK                         _______ _______ _______ _____ _____    ______ ____
ROOT
ATOM      1  C   UNL     1       4.524   4.882  19.492  0.00  0.00    +0.000 C 
ATOM      2  O   UNL     1       5.813   5.505  19.567  0.00  0.00    +0.000 OA
ATOM      3  C   UNL     1       6.024   6.003  18.304  0.00  0.00    +0.000 A 
ATOM      4  C   UNL     1       7.213   6.553  17.883  0.00  0.00    +0.000 A 
ATOM      5  C   UNL     1       7.500   6.470  16.528  0.00  0.00    +0.000 A 
ATOM      6  C   UNL     1       6.660   5.712  15.694  0.00  0.00    +0.000 A 
ATOM      7  C   UNL     1       7.154   5.221  14.480  0.00  0.00    +0.000 A 
ATOM      8  C   UNL     1       6.416   4.288  13.759  0.00  0.00    +0.000 A 
ATOM      9 BR   UNL     1       7.202   3.436  12.263  0.00  0.00    +0.000 Br
ATOM     10  C   UNL     1       5.136   3.921  14.170  0.00  0.00    +0.000 A 
ATOM     11  C   UNL     1       4.589   4.474  15.333  0.00  0.00    +0.000 A 
ATOM     12  C   UNL     1       5.360   5.328  16.140  0.00  0.00    +0.000 A 
ATOM     13  C   UNL     1       4.997   5.673  17.440  0.00  0.00    +0.000 A 
ATOM     14  C   UNL     1       3.764   5.488  18.278  0.00  0.00    +0.000 C 
ENDROOT
BRANCH  14  15
ATOM     15  C   UNL     1       3.035   6.777  18.724  0.00  0.00    +0.000 A 
ATOM     16  C   UNL     1       2.412   6.902  19.973  0.00  0.00    +0.000 A 
ATOM     17  C   UNL     1       1.622   8.028  20.264  0.00  0.00    +0.000 A 
ATOM     18  C   UNL     1       1.445   9.038  19.320  0.00  0.00    +0.000 A 
ATOM     19  C   UNL     1       2.117   8.967  18.110  0.00  0.00    +0.000 A 
ATOM     20  C   UNL     1       2.938   7.871  17.836  0.00  0.00    +0.000 A 
ENDBRANCH  14  15
BRANCH   1  22
ATOM     21  O   UNL     1       5.003   2.577  19.828  0.00  0.00    +0.000 OA
ATOM     22  C   UNL     1       4.116   3.387  19.527  0.00  0.00    +0.000 C 
BRANCH  22  23
ATOM     23  C   UNL     1       2.748   2.932  19.405  0.00  0.00    +0.000 A 
ATOM     24  C   UNL     1       2.184   2.218  18.356  0.00  0.00    +0.000 A 
ATOM     25  C   UNL     1       0.807   2.065  18.653  0.00  0.00    +0.000 A 
ATOM     26  C   UNL     1       0.630   2.666  19.876  0.00  0.00    +0.000 A 
ATOM     27  O   UNL     1       1.801   3.189  20.341  0.00  0.00    +0.000 OA
ENDBRANCH  22  23
ENDBRANCH   1  22
TORSDOF 3
ENDMDL
MODEL 2
REMARK VINA RESULT:      -8.2      0.538      1.180
REMARK  Name = 
REMARK  3 active torsions:
REMARK  status: ('A' for Active; 'I' for Inactive)
REMARK    1  A    between atoms: C_2  and  C_3
REMARK    2  A    between atoms: C_2  and  C_8
REMARK    3  A    between atoms: C_21  and  C_22
REMARK                            x       y       z     vdW  Elec       q    Type
REMARK                         _______ _______ _______ _____ _____    ______ ____
ROOT
ATOM      1  C   UNL     1       4.390   4.966  19.416  0.00  0.00    +0.000 C 
ATOM      2  O   UNL     1       5.652   5.640  19.505  0.00  0.00    +0.000 OA
ATOM      3  C   UNL     1       5.878   6.108  18.233  0.00  0.00    +0.000 A 
ATOM      4  C   UNL     1       7.056   6.691  17.827  0.00  0.00    +0.000 A 
ATOM      5  C   UNL     1       7.383   6.579  16.483  0.00  0.00    +0.000 A 
ATOM      6  C   UNL     1       6.595   5.766  15.651  0.00  0.00    +0.000 A 
ATOM      7  C   UNL     1       7.140   5.259  14.466  0.00  0.00    +0.000 A 
ATOM      8  C   UNL     1       6.457   4.277  13.754  0.00  0.00    +0.000 A 
ATOM      9 BR   UNL     1       7.315   3.413  12.306  0.00  0.00    +0.000 Br
ATOM     10  C   UNL     1       5.181   3.874  14.143  0.00  0.00    +0.000 A 
ATOM     11  C   UNL     1       4.583   4.439  15.274  0.00  0.00    +0.000 A 
ATOM     12  C   UNL     1       5.299   5.346  16.075  0.00  0.00    +0.000 A 
ATOM     13  C   UNL     1       4.888   5.714  17.354  0.00  0.00    +0.000 A 
ATOM     14  C   UNL     1       3.641   5.507  18.165  0.00  0.00    +0.000 C 
ENDROOT
BRANCH  14  15
ATOM     15  C   UNL     1       2.853   6.780  18.552  0.00  0.00    +0.000 A 
ATOM     16  C   UNL     1       2.721   7.880  17.695  0.00  0.00    +0.000 A 
ATOM     17  C   UNL     1       2.140   9.075  18.155  0.00  0.00    +0.000 A 
ATOM     18  C   UNL     1       1.685   9.188  19.468  0.00  0.00    +0.000 A 
ATOM     19  C   UNL     1       1.737   8.084  20.305  0.00  0.00    +0.000 A 
ATOM     20  C   UNL     1       2.273   6.883  19.837  0.00  0.00    +0.000 A 
ENDBRANCH  14  15
BRANCH   1  22
ATOM     21  O   UNL     1       4.949   2.690  19.820  0.00  0.00    +0.000 OA
ATOM     22  C   UNL     1       4.037   3.458  19.485  0.00  0.00    +0.000 C 
BRANCH  22  23
ATOM     23  C   UNL     1       2.689   2.949  19.356  0.00  0.00    +0.000 A 
ATOM     24  C   UNL     1       1.605   3.205  20.185  0.00  0.00    +0.000 A 
ATOM     25  C   UNL     1       0.521   2.432  19.699  0.00  0.00    +0.000 A 
ATOM     26  C   UNL     1       1.006   1.783  18.589  0.00  0.00    +0.000 A 
ATOM     27  O   UNL     1       2.316   2.095  18.371  0.00  0.00    +0.000 OA
ENDBRANCH  22  23
ENDBRANCH   1  22
TORSDOF 3
ENDMDL
MODEL 3
REMARK VINA RESULT:      -7.4      3.033      6.223
REMARK  Name = 
REMARK  3 active torsions:
REMARK  status: ('A' for Active; 'I' for Inactive)
REMARK    1  A    between atoms: C_2  and  C_3
REMARK    2  A    between atoms: C_2  and  C_8
REMARK    3  A    between atoms: C_21  and  C_22
REMARK                            x       y       z     vdW  Elec       q    Type
REMARK                         _______ _______ _______ _____ _____    ______ ____
ROOT
ATOM      1  C   UNL     1       5.712   6.121  16.105  0.00  0.00    +0.000 C 
ATOM      2  O   UNL     1       4.566   6.982  16.132  0.00  0.00    +0.000 OA
ATOM      3  C   UNL     1       4.149   6.951  17.440  0.00  0.00    +0.000 A 
ATOM      4  C   UNL     1       2.981   7.523  17.888  0.00  0.00    +0.000 A 
ATOM      5  C   UNL     1       2.391   6.955  19.009  0.00  0.00    +0.000 A 
ATOM      6  C   UNL     1       2.917   5.761  19.530  0.00  0.00    +0.000 A 
ATOM      7  C   UNL     1       2.106   4.934  20.316  0.00  0.00    +0.000 A 
ATOM      8  C   UNL     1       2.535   3.652  20.645  0.00  0.00    +0.000 A 
ATOM      9 BR   UNL     1       1.331   2.454  21.478  0.00  0.00    +0.000 Br
ATOM     10  C   UNL     1       3.814   3.220  20.300  0.00  0.00    +0.000 A 
ATOM     11  C   UNL     1       4.673   4.068  19.594  0.00  0.00    +0.000 A 
ATOM     12  C   UNL     1       4.221   5.322  19.149  0.00  0.00    +0.000 A 
ATOM     13  C   UNL     1       4.906   6.083  18.204  0.00  0.00    +0.000 A 
ATOM     14  C   UNL     1       6.258   5.996  17.556  0.00  0.00    +0.000 C 
ENDROOT
BRANCH  14  15
ATOM     15  C   UNL     1       7.232   7.164  17.837  0.00  0.00    +0.000 A 
ATOM     16  C   UNL     1       8.216   7.107  18.832  0.00  0.00    +0.000 A 
ATOM     17  C   UNL     1       8.963   8.253  19.161  0.00  0.00    +0.000 A 
ATOM     18  C   UNL     1       8.740   9.462  18.505  0.00  0.00    +0.000 A 
ATOM     19  C   UNL     1       7.825   9.515  17.465  0.00  0.00    +0.000 A 
ATOM     20  C   UNL     1       7.114   8.368  17.107  0.00  0.00    +0.000 A 
ENDBRANCH  14  15
BRANCH   1  22
ATOM     21  O   UNL     1       5.499   3.752  16.116  0.00  0.00    +0.000 OA
ATOM     22  C   UNL     1       5.917   4.722  15.468  0.00  0.00    +0.000 C 
BRANCH  22  23
ATOM     23  C   UNL     1       6.393   4.524  14.117  0.00  0.00    +0.000 A 
ATOM     24  C   UNL     1       5.950   3.589  13.192  0.00  0.00    +0.000 A 
ATOM     25  C   UNL     1       6.762   3.730  12.039  0.00  0.00    +0.000 A 
ATOM     26  C   UNL     1       7.624   4.762  12.325  0.00  0.00    +0.000 A 
ATOM     27  O   UNL     1       7.403   5.252  13.579  0.00  0.00    +0.000 OA
ENDBRANCH  22  23
ENDBRANCH   1  22
TORSDOF 3
ENDMDL
MODEL 4
REMARK VINA RESULT:      -7.4      8.000     10.319
REMARK  Name = 
REMARK  3 active torsions:
REMARK  status: ('A' for Active; 'I' for Inactive)
REMARK    1  A    between atoms: C_2  and  C_3
REMARK    2  A    between atoms: C_2  and  C_8
REMARK    3  A    between atoms: C_21  and  C_22
REMARK                            x       y       z     vdW  Elec       q    Type
REMARK                         _______ _______ _______ _____ _____    ______ ____
ROOT
ATOM      1  C   UNL     1       0.321  11.077  21.159  0.00  0.00    +0.000 C 
ATOM      2  O   UNL     1       0.410  10.086  20.126  0.00  0.00    +0.000 OA
ATOM      3  C   UNL     1      -0.405  10.562  19.128  0.00  0.00    +0.000 A 
ATOM      4  C   UNL     1      -0.735   9.847  18.000  0.00  0.00    +0.000 A 
ATOM      5  C   UNL     1      -1.951  10.145  17.400  0.00  0.00    +0.000 A 
ATOM      6  C   UNL     1      -2.835  11.028  18.042  0.00  0.00    +0.000 A 
ATOM      7  C   UNL     1      -4.201  10.981  17.739  0.00  0.00    +0.000 A 
ATOM      8  C   UNL     1      -5.109  11.684  18.524  0.00  0.00    +0.000 A 
ATOM      9 BR   UNL     1      -6.964  11.406  18.271  0.00  0.00    +0.000 Br
ATOM     10  C   UNL     1      -4.668  12.529  19.539  0.00  0.00    +0.000 A 
ATOM     11  C   UNL     1      -3.299  12.660  19.796  0.00  0.00    +0.000 A 
ATOM     12  C   UNL     1      -2.370  11.873  19.095  0.00  0.00    +0.000 A 
ATOM     13  C   UNL     1      -1.043  11.732  19.494  0.00  0.00    +0.000 A 
ATOM     14  C   UNL     1      -0.168  12.405  20.514  0.00  0.00    +0.000 C 
ENDROOT
BRANCH  14  15
ATOM     15  C   UNL     1       1.050  13.186  19.967  0.00  0.00    +0.000 A 
ATOM     16  C   UNL     1       1.232  13.449  18.603  0.00  0.00    +0.000 A 
ATOM     17  C   UNL     1       2.434  14.014  18.142  0.00  0.00    +0.000 A 
ATOM     18  C   UNL     1       3.464  14.322  19.029  0.00  0.00    +0.000 A 
ATOM     19  C   UNL     1       3.270  14.141  20.390  0.00  0.00    +0.000 A 
ATOM     20  C   UNL     1       2.059  13.622  20.854  0.00  0.00    +0.000 A 
ENDBRANCH  14  15
BRANCH   1  22
ATOM     21  O   UNL     1       0.023  10.125  23.317  0.00  0.00    +0.000 OA
ATOM     22  C   UNL     1      -0.347  11.030  22.557  0.00  0.00    +0.000 C 
BRANCH  22  23
ATOM     23  C   UNL     1      -1.219  12.069  23.058  0.00  0.00    +0.000 A 
ATOM     24  C   UNL     1      -2.601  12.026  23.188  0.00  0.00    +0.000 A 
ATOM     25  C   UNL     1      -3.013  13.299  23.655  0.00  0.00    +0.000 A 
ATOM     26  C   UNL     1      -1.855  14.022  23.810  0.00  0.00    +0.000 A 
ATOM     27  O   UNL     1      -0.764  13.284  23.456  0.00  0.00    +0.000 OA
ENDBRANCH  22  23
ENDBRANCH   1  22
TORSDOF 3
ENDMDL
MODEL 5
REMARK VINA RESULT:      -7.2      6.767     10.529
REMARK  Name = 
REMARK  3 active torsions:
REMARK  status: ('A' for Active; 'I' for Inactive)
REMARK    1  A    between atoms: C_2  and  C_3
REMARK    2  A    between atoms: C_2  and  C_8
REMARK    3  A    between atoms: C_21  and  C_22
REMARK                            x       y       z     vdW  Elec       q    Type
REMARK                         _______ _______ _______ _____ _____    ______ ____
ROOT
ATOM      1  C   UNL     1      -0.799  11.513  18.564  0.00  0.00    +0.000 C 
ATOM      2  O   UNL     1       0.140  12.595  18.604  0.00  0.00    +0.000 OA
ATOM      3  C   UNL     1       0.374  12.792  19.943  0.00  0.00    +0.000 A 
ATOM      4  C   UNL     1       1.106  13.841  20.449  0.00  0.00    +0.000 A 
ATOM      5  C   UNL     1       0.794  14.264  21.734  0.00  0.00    +0.000 A 
ATOM      6  C   UNL     1      -0.326  13.719  22.383  0.00  0.00    +0.000 A 
ATOM      7  C   UNL     1      -0.934  14.429  23.425  0.00  0.00    +0.000 A 
ATOM      8  C   UNL     1      -2.167  14.014  23.919  0.00  0.00    +0.000 A 
ATOM      9 BR   UNL     1      -3.100  15.121  25.136  0.00  0.00    +0.000 Br
ATOM     10  C   UNL     1      -2.753  12.832  23.469  0.00  0.00    +0.000 A 
ATOM     11  C   UNL     1      -2.113  12.061  22.493  0.00  0.00    +0.000 A 
ATOM     12  C   UNL     1      -0.926  12.518  21.896  0.00  0.00    +0.000 A 
ATOM     13  C   UNL     1      -0.401  11.963  20.731  0.00  0.00    +0.000 A 
ATOM     14  C   UNL     1      -0.707  10.742  19.911  0.00  0.00    +0.000 C 
ENDROOT
BRANCH  14  15
ATOM     15  C   UNL     1       0.412   9.679  19.815  0.00  0.00    +0.000 A 
ATOM     16  C   UNL     1       1.128   9.437  18.636  0.00  0.00    +0.000 A 
ATOM     17  C   UNL     1       2.016   8.349  18.553  0.00  0.00    +0.000 A 
ATOM     18  C   UNL     1       2.202   7.496  19.640  0.00  0.00    +0.000 A 
ATOM     19  C   UNL     1       1.561   7.768  20.839  0.00  0.00    +0.000 A 
ATOM     20  C   UNL     1       0.712   8.873  20.936  0.00  0.00    +0.000 A 
ENDBRANCH  14  15
BRANCH   1  22
ATOM     21  O   UNL     1      -3.078  12.091  18.929  0.00  0.00    +0.000 OA
ATOM     22  C   UNL     1      -2.301  11.485  18.177  0.00  0.00    +0.000 C 
BRANCH  22  23
ATOM     23  C   UNL     1      -2.791  10.955  16.924  0.00  0.00    +0.000 A 
ATOM     24  C   UNL     1      -2.253   9.916  16.176  0.00  0.00    +0.000 A 
ATOM     25  C   UNL     1      -3.034   9.806  14.999  0.00  0.00    +0.000 A 
ATOM     26  C   UNL     1      -4.014  10.762  15.122  0.00  0.00    +0.000 A 
ATOM     27  O   UNL     1      -3.877  11.458  16.287  0.00  0.00    +0.000 OA
ENDBRANCH  22  23
ENDBRANCH   1  22
TORSDOF 3
ENDMDL
MODEL 6
REMARK VINA RESULT:      -7.2      5.229      8.321
REMARK  Name = 
REMARK  3 active torsions:
REMARK  status: ('A' for Active; 'I' for Inactive)
REMARK    1  A    between atoms: C_2  and  C_3
REMARK    2  A    between atoms: C_2  and  C_8
REMARK    3  A    between atoms: C_21  and  C_22
REMARK                            x       y       z     vdW  Elec       q    Type
REMARK                         _______ _______ _______ _____ _____    ______ ____
ROOT
ATOM      1  C   UNL     1      -1.207  11.519  19.293  0.00  0.00    +0.000 C 
ATOM      2  O   UNL     1      -1.195  11.030  20.641  0.00  0.00    +0.000 OA
ATOM      3  C   UNL     1       0.019  10.397  20.761  0.00  0.00    +0.000 A 
ATOM      4  C   UNL     1       0.390   9.648  21.853  0.00  0.00    +0.000 A 
ATOM      5  C   UNL     1       1.307   8.629  21.635  0.00  0.00    +0.000 A 
ATOM      6  C   UNL     1       1.687   8.318  20.319  0.00  0.00    +0.000 A 
ATOM      7  C   UNL     1       2.202   7.049  20.031  0.00  0.00    +0.000 A 
ATOM      8  C   UNL     1       2.366   6.652  18.707  0.00  0.00    +0.000 A 
ATOM      9 BR   UNL     1       2.810   4.853  18.324  0.00  0.00    +0.000 Br
ATOM     10  C   UNL     1       2.134   7.545  17.663  0.00  0.00    +0.000 A 
ATOM     11  C   UNL     1       1.708   8.848  17.937  0.00  0.00    +0.000 A 
ATOM     12  C   UNL     1       1.422   9.236  19.258  0.00  0.00    +0.000 A 
ATOM     13  C   UNL     1       0.723  10.399  19.572  0.00  0.00    +0.000 A 
ATOM     14  C   UNL     1       0.263  11.598  18.794  0.00  0.00    +0.000 C 
ENDROOT
BRANCH  14  15
ATOM     15  C   UNL     1       0.870  12.960  19.207  0.00  0.00    +0.000 A 
ATOM     16  C   UNL     1       0.135  14.153  19.191  0.00  0.00    +0.000 A 
ATOM     17  C   UNL     1       0.775  15.386  19.412  0.00  0.00    +0.000 A 
ATOM     18  C   UNL     1       2.147  15.444  19.652  0.00  0.00    +0.000 A 
ATOM     19  C   UNL     1       2.874  14.267  19.749  0.00  0.00    +0.000 A 
ATOM     20  C   UNL     1       2.232  13.040  19.573  0.00  0.00    +0.000 A 
ENDBRANCH  14  15
BRANCH   1  22
ATOM     21  O   UNL     1      -1.503  10.255  17.300  0.00  0.00    +0.000 OA
ATOM     22  C   UNL     1      -2.036  11.077  18.060  0.00  0.00    +0.000 C 
BRANCH  22  23
ATOM     23  C   UNL     1      -3.424  11.432  17.864  0.00  0.00    +0.000 A 
ATOM     24  C   UNL     1      -4.156  11.368  16.686  0.00  0.00    +0.000 A 
ATOM     25  C   UNL     1      -5.446  11.883  16.971  0.00  0.00    +0.000 A 
ATOM     26  C   UNL     1      -5.424  12.196  18.309  0.00  0.00    +0.000 A 
ATOM     27  O   UNL     1      -4.206  11.921  18.859  0.00  0.00    +0.000 OA
ENDBRANCH  22  23
ENDBRANCH   1  22
TORSDOF 3
ENDMDL
MODEL 7
REMARK VINA RESULT:      -7.2      8.080     10.294
REMARK  Name = 
REMARK  3 active torsions:
REMARK  status: ('A' for Active; 'I' for Inactive)
REMARK    1  A    between atoms: C_2  and  C_3
REMARK    2  A    between atoms: C_2  and  C_8
REMARK    3  A    between atoms: C_21  and  C_22
REMARK                            x       y       z     vdW  Elec       q    Type
REMARK                         _______ _______ _______ _____ _____    ______ ____
ROOT
ATOM      1  C   UNL     1       0.203  10.866  21.232  0.00  0.00    +0.000 C 
ATOM      2  O   UNL     1       0.203   9.870  20.200  0.00  0.00    +0.000 OA
ATOM      3  C   UNL     1      -0.574  10.413  19.205  0.00  0.00    +0.000 A 
ATOM      4  C   UNL     1      -0.969   9.728  18.079  0.00  0.00    +0.000 A 
ATOM      5  C   UNL     1      -2.159  10.127  17.486  0.00  0.00    +0.000 A 
ATOM      6  C   UNL     1      -2.962  11.082  18.132  0.00  0.00    +0.000 A 
ATOM      7  C   UNL     1      -4.328  11.149  17.835  0.00  0.00    +0.000 A 
ATOM      8  C   UNL     1      -5.171  11.926  18.624  0.00  0.00    +0.000 A 
ATOM      9 BR   UNL     1      -7.044  11.805  18.382  0.00  0.00    +0.000 Br
ATOM     10  C   UNL     1      -4.655  12.731  19.637  0.00  0.00    +0.000 A 
ATOM     11  C   UNL     1      -3.278  12.747  19.887  0.00  0.00    +0.000 A 
ATOM     12  C   UNL     1      -2.422  11.884  19.182  0.00  0.00    +0.000 A 
ATOM     13  C   UNL     1      -1.109  11.633  19.574  0.00  0.00    +0.000 A 
ATOM     14  C   UNL     1      -0.176  12.229  20.589  0.00  0.00    +0.000 C 
ENDROOT
BRANCH  14  15
ATOM     15  C   UNL     1       1.100  12.906  20.036  0.00  0.00    +0.000 A 
ATOM     16  C   UNL     1       2.120  13.392  20.865  0.00  0.00    +0.000 A 
ATOM     17  C   UNL     1       3.177  14.146  20.324  0.00  0.00    +0.000 A 
ATOM     18  C   UNL     1       3.231  14.422  18.959  0.00  0.00    +0.000 A 
ATOM     19  C   UNL     1       2.273  13.883  18.115  0.00  0.00    +0.000 A 
ATOM     20  C   UNL     1       1.247  13.096  18.644  0.00  0.00    +0.000 A 
ENDBRANCH  14  15
BRANCH   1  22
ATOM     21  O   UNL     1       0.028  10.114  23.482  0.00  0.00    +0.000 OA
ATOM     22  C   UNL     1      -0.459  10.875  22.633  0.00  0.00    +0.000 C 
BRANCH  22  23
ATOM     23  C   UNL     1      -1.469  11.831  23.031  0.00  0.00    +0.000 A 
ATOM     24  C   UNL     1      -1.307  13.194  23.244  0.00  0.00    +0.000 A 
ATOM     25  C   UNL     1      -2.557  13.695  23.686  0.00  0.00    +0.000 A 
ATOM     26  C   UNL     1      -3.404  12.613  23.682  0.00  0.00    +0.000 A 
ATOM     27  O   UNL     1      -2.755  11.483  23.281  0.00  0.00    +0.000 OA
ENDBRANCH  22  23
ENDBRANCH   1  22
TORSDOF 3
ENDMDL
MODEL 8
REMARK VINA RESULT:      -7.1      6.159      9.819
REMARK  Name = 
REMARK  3 active torsions:
REMARK  status: ('A' for Active; 'I' for Inactive)
REMARK    1  A    between atoms: C_2  and  C_3
REMARK    2  A    between atoms: C_2  and  C_8
REMARK    3  A    between atoms: C_21  and  C_22
REMARK                            x       y       z     vdW  Elec       q    Type
REMARK                         _______ _______ _______ _____ _____    ______ ____
ROOT
ATOM      1  C   UNL     1      -0.718  10.514  21.055  0.00  0.00    +0.000 C 
ATOM      2  O   UNL     1      -1.467  10.987  19.928  0.00  0.00    +0.000 OA
ATOM      3  C   UNL     1      -0.587  11.799  19.253  0.00  0.00    +0.000 A 
ATOM      4  C   UNL     1      -0.937  12.587  18.181  0.00  0.00    +0.000 A 
ATOM      5  C   UNL     1      -0.188  13.737  17.975  0.00  0.00    +0.000 A 
ATOM      6  C   UNL     1       0.766  14.115  18.934  0.00  0.00    +0.000 A 
ATOM      7  C   UNL     1       1.176  15.452  19.011  0.00  0.00    +0.000 A 
ATOM      8  C   UNL     1       1.940  15.881  20.092  0.00  0.00    +0.000 A 
ATOM      9 BR   UNL     1       2.265  17.730  20.324  0.00  0.00    +0.000 Br
ATOM     10  C   UNL     1       2.403  14.972  21.042  0.00  0.00    +0.000 A 
ATOM     11  C   UNL     1       2.079  13.616  20.929  0.00  0.00    +0.000 A 
ATOM     12  C   UNL     1       1.213  13.177  19.913  0.00  0.00    +0.000 A 
ATOM     13  C   UNL     1       0.620  11.917  19.915  0.00  0.00    +0.000 A 
ATOM     14  C   UNL     1       0.794  10.668  20.731  0.00  0.00    +0.000 C 
ENDROOT
BRANCH  14  15
ATOM     15  C   UNL     1       1.284   9.413  19.970  0.00  0.00    +0.000 A 
ATOM     16  C   UNL     1       1.505   8.182  20.602  0.00  0.00    +0.000 A 
ATOM     17  C   UNL     1       2.108   7.122  19.902  0.00  0.00    +0.000 A 
ATOM     18  C   UNL     1       2.494   7.273  18.572  0.00  0.00    +0.000 A 
ATOM     19  C   UNL     1       2.211   8.458  17.909  0.00  0.00    +0.000 A 
ATOM     20  C   UNL     1       1.572   9.497  18.590  0.00  0.00    +0.000 A 
ENDBRANCH  14  15
BRANCH   1  22
ATOM     21  O   UNL     1      -0.056  10.257  23.325  0.00  0.00    +0.000 OA
ATOM     22  C   UNL     1      -0.848  10.833  22.567  0.00  0.00    +0.000 C 
BRANCH  22  23
ATOM     23  C   UNL     1      -1.703  11.876  23.090  0.00  0.00    +0.000 A 
ATOM     24  C   UNL     1      -1.402  13.223  23.239  0.00  0.00    +0.000 A 
ATOM     25  C   UNL     1      -2.523  13.833  23.856  0.00  0.00    +0.000 A 
ATOM     26  C   UNL     1      -3.445  12.825  24.010  0.00  0.00    +0.000 A 
ATOM     27  O   UNL     1      -2.959  11.639  23.544  0.00  0.00    +0.000 OA
ENDBRANCH  22  23
ENDBRANCH   1  22
TORSDOF 3
ENDMDL
MODEL 9
REMARK VINA RESULT:      -6.8      5.567      9.114
REMARK  Name = 
REMARK  3 active torsions:
REMARK  status: ('A' for Active; 'I' for Inactive)
REMARK    1  A    between atoms: C_2  and  C_3
REMARK    2  A    between atoms: C_2  and  C_8
REMARK    3  A    between atoms: C_21  and  C_22
REMARK                            x       y       z     vdW  Elec       q    Type
REMARK                         _______ _______ _______ _____ _____    ______ ____
ROOT
ATOM      1  C   UNL     1       0.075   9.778  19.113  0.00  0.00    +0.000 C 
ATOM      2  O   UNL     1      -0.404   9.712  20.463  0.00  0.00    +0.000 OA
ATOM      3  C   UNL     1      -0.670  11.019  20.793  0.00  0.00    +0.000 A 
ATOM      4  C   UNL     1      -1.011  11.437  22.059  0.00  0.00    +0.000 A 
ATOM      5  C   UNL     1      -0.684  12.742  22.399  0.00  0.00    +0.000 A 
ATOM      6  C   UNL     1       0.096  13.507  21.515  0.00  0.00    +0.000 A 
ATOM      7  C   UNL     1       0.824  14.598  22.005  0.00  0.00    +0.000 A 
ATOM      8  C   UNL     1       1.769  15.219  21.194  0.00  0.00    +0.000 A 
ATOM      9 BR   UNL     1       2.928  16.514  21.943  0.00  0.00    +0.000 Br
ATOM     10  C   UNL     1       1.921  14.843  19.861  0.00  0.00    +0.000 A 
ATOM     11  C   UNL     1       1.135  13.815  19.330  0.00  0.00    +0.000 A 
ATOM     12  C   UNL     1       0.257  13.096  20.158  0.00  0.00    +0.000 A 
ATOM     13  C   UNL     1      -0.326  11.890  19.777  0.00  0.00    +0.000 A 
ATOM     14  C   UNL     1      -0.414  11.117  18.492  0.00  0.00    +0.000 C 
ENDROOT
BRANCH  14  15
ATOM     15  C   UNL     1      -1.831  10.919  17.904  0.00  0.00    +0.000 A 
ATOM     16  C   UNL     1      -2.092  10.059  16.829  0.00  0.00    +0.000 A 
ATOM     17  C   UNL     1      -3.362  10.041  16.224  0.00  0.00    +0.000 A 
ATOM     18  C   UNL     1      -4.381  10.875  16.681  0.00  0.00    +0.000 A 
ATOM     19  C   UNL     1      -4.163  11.674  17.793  0.00  0.00    +0.000 A 
ATOM     20  C   UNL     1      -2.916  11.661  18.422  0.00  0.00    +0.000 A 
ENDBRANCH  14  15
BRANCH   1  22
ATOM     21  O   UNL     1       2.080  10.546  18.089  0.00  0.00    +0.000 OA
ATOM     22  C   UNL     1       1.491   9.547  18.525  0.00  0.00    +0.000 C 
BRANCH  22  23
ATOM     23  C   UNL     1       2.199   8.290  18.627  0.00  0.00    +0.000 A 
ATOM     24  C   UNL     1       3.049   7.719  17.689  0.00  0.00    +0.000 A 
ATOM     25  C   UNL     1       3.446   6.459  18.203  0.00  0.00    +0.000 A 
ATOM     26  C   UNL     1       2.840   6.361  19.433  0.00  0.00    +0.000 A 
ATOM     27  O   UNL     1       2.088   7.467  19.700  0.00  0.00    +0.000 OA
ENDBRANCH  22  23
ENDBRANCH   1  22
TORSDOF 3
ENDMDL
