MODEL 1
REMARK VINA RESULT:      -8.2      0.000      0.000
REMARK  Name = 
REMARK  9 active torsions:
REMARK  status: ('A' for Active; 'I' for Inactive)
REMARK    1  A    between atoms: C_1  and  C_2
REMARK    2  A    between atoms: C_2  and  O_3
REMARK    3  A    between atoms: O_3  and  C_4
REMARK    4  A    between atoms: C_7  and  N_8
REMARK    5  A    between atoms: C_9  and  C_11
REMARK    6  A    between atoms: C_11  and  S_12
REMARK    7  A    between atoms: S_12  and  C_13
REMARK    8  A    between atoms: N_15  and  C_16
REMARK    9  A    between atoms: C_16  and  C_17
REMARK                            x       y       z     vdW  Elec       q    Type
REMARK                         _______ _______ _______ _____ _____    ______ ____
ROOT
ATOM      1  C   UNL     1       5.338   5.136  17.471  0.00  0.00    +0.000 A 
ATOM      2  C   UNL     1       4.696   6.239  16.949  0.00  0.00    +0.000 A 
ATOM      3  N   UNL     1       3.502   6.265  17.621  0.00  0.00    +0.000 N 
ATOM      4  C   UNL     1       3.105   4.956  17.781  0.00  0.00    +0.000 A 
ATOM      5  C   UNL     1       1.826   4.425  17.956  0.00  0.00    +0.000 A 
ATOM      6  C   UNL     1       1.753   3.098  18.360  0.00  0.00    +0.000 A 
ATOM      7  C   UNL     1       2.915   2.380  18.645  0.00  0.00    +0.000 A 
ATOM      8  C   UNL     1       4.195   2.941  18.457  0.00  0.00    +0.000 A 
ATOM      9  C   UNL     1       4.300   4.249  17.936  0.00  0.00    +0.000 A 
ENDROOT
BRANCH   1  10
ATOM     10  S   UNL     1       7.070   4.885  17.446  0.00  0.00    +0.000 S 
BRANCH  10  11
ATOM     11  C   UNL     1       7.677   6.117  18.684  0.00  0.00    +0.000 C 
BRANCH  11  13
ATOM     12  N   UNL     1       8.473   8.412  19.015  0.00  0.00    +0.000 N 
ATOM     13  C   UNL     1       7.954   7.514  18.108  0.00  0.00    +0.000 C 
ATOM     14  O   UNL     1       7.728   7.747  16.923  0.00  0.00    +0.000 OA
ATOM     15  H   UNL     1       8.606   8.037  19.948  0.00  0.00    +0.000 HD
BRANCH  12  19
ATOM     16  C   UNL     1       9.701  12.433  18.749  0.00  0.00    +0.000 A 
ATOM     17  C   UNL     1       8.920  11.889  17.723  0.00  0.00    +0.000 A 
ATOM     18  C   UNL     1       8.498  10.555  17.768  0.00  0.00    +0.000 A 
ATOM     19  C   UNL     1       8.866   9.744  18.841  0.00  0.00    +0.000 A 
ATOM     20  C   UNL     1       9.689  10.278  19.841  0.00  0.00    +0.000 A 
ATOM     21  C   UNL     1      10.109  11.607  19.791  0.00  0.00    +0.000 A 
BRANCH  16  22
ATOM     22  O   UNL     1      10.000  13.761  18.625  0.00  0.00    +0.000 OA
BRANCH  22  24
ATOM     23  C   UNL     1       8.690  15.671  18.022  0.00  0.00    +0.000 C 
ATOM     24  C   UNL     1       9.024  14.680  19.122  0.00  0.00    +0.000 C 
ENDBRANCH  22  24
ENDBRANCH  16  22
ENDBRANCH  12  19
ENDBRANCH  11  13
ENDBRANCH  10  11
ENDBRANCH   1  10
BRANCH   3  25
ATOM     25  C   UNL     1       3.257   7.237  18.687  0.00  0.00    +0.000 C 
BRANCH  25  26
ATOM     26  C   UNL     1       2.372   8.352  18.227  0.00  0.00    +0.000 C 
ATOM     27  O   UNL     1       2.578   8.916  17.150  0.00  0.00    +0.000 OA
ATOM     28  N   UNL     1       1.328   8.726  19.057  0.00  0.00    +0.000 N 
ATOM     29  C   UNL     1       0.413   9.733  18.547  0.00  0.00    +0.000 C 
ATOM     30  C   UNL     1       0.920  11.134  18.870  0.00  0.00    +0.000 C 
ATOM     31  C   UNL     1       0.595  11.569  20.292  0.00  0.00    +0.000 C 
ATOM     32  C   UNL     1       1.129  10.657  21.398  0.00  0.00    +0.000 C 
ATOM     33  C   UNL     1       0.498   9.264  21.405  0.00  0.00    +0.000 C 
ATOM     34  C   UNL     1       1.185   8.283  20.457  0.00  0.00    +0.000 C 
ENDBRANCH  25  26
ENDBRANCH   3  25
TORSDOF 8
ENDMDL
MODEL 2
REMARK VINA RESULT:      -8.0      0.659      1.048
REMARK  Name = 
REMARK  9 active torsions:
REMARK  status: ('A' for Active; 'I' for Inactive)
REMARK    1  A    between atoms: C_1  and  C_2
REMARK    2  A    between atoms: C_2  and  O_3
REMARK    3  A    between atoms: O_3  and  C_4
REMARK    4  A    between atoms: C_7  and  N_8
REMARK    5  A    between atoms: C_9  and  C_11
REMARK    6  A    between atoms: C_11  and  S_12
REMARK    7  A    between atoms: S_12  and  C_13
REMARK    8  A    between atoms: N_15  and  C_16
REMARK    9  A    between atoms: C_16  and  C_17
REMARK                            x       y       z     vdW  Elec       q    Type
REMARK                         _______ _______ _______ _____ _____    ______ ____
ROOT
ATOM      1  C   UNL     1       5.341   5.533  17.205  0.00  0.00    +0.000 A 
ATOM      2  C   UNL     1       4.611   6.619  16.771  0.00  0.00    +0.000 A 
ATOM      3  N   UNL     1       3.448   6.534  17.491  0.00  0.00    +0.000 N 
ATOM      4  C   UNL     1       3.139   5.195  17.594  0.00  0.00    +0.000 A 
ATOM      5  C   UNL     1       1.904   4.576  17.791  0.00  0.00    +0.000 A 
ATOM      6  C   UNL     1       1.931   3.227  18.122  0.00  0.00    +0.000 A 
ATOM      7  C   UNL     1       3.145   2.570  18.320  0.00  0.00    +0.000 A 
ATOM      8  C   UNL     1       4.380   3.220  18.113  0.00  0.00    +0.000 A 
ATOM      9  C   UNL     1       4.382   4.558  17.661  0.00  0.00    +0.000 A 
ENDROOT
BRANCH   1  10
ATOM     10  S   UNL     1       7.083   5.394  17.096  0.00  0.00    +0.000 S 
BRANCH  10  11
ATOM     11  C   UNL     1       7.662   6.423  18.519  0.00  0.00    +0.000 C 
BRANCH  11  13
ATOM     12  N   UNL     1       8.659   8.572  19.148  0.00  0.00    +0.000 N 
ATOM     13  C   UNL     1       8.007   7.876  18.154  0.00  0.00    +0.000 C 
ATOM     14  O   UNL     1       7.715   8.317  17.046  0.00  0.00    +0.000 OA
ATOM     15  H   UNL     1       8.829   8.039  19.993  0.00  0.00    +0.000 HD
BRANCH  12  19
ATOM     16  C   UNL     1      10.157  12.504  18.921  0.00  0.00    +0.000 A 
ATOM     17  C   UNL     1      10.131  11.854  20.161  0.00  0.00    +0.000 A 
ATOM     18  C   UNL     1       9.633  10.551  20.282  0.00  0.00    +0.000 A 
ATOM     19  C   UNL     1       9.143   9.885  19.158  0.00  0.00    +0.000 A 
ATOM     20  C   UNL     1       9.125  10.557  17.929  0.00  0.00    +0.000 A 
ATOM     21  C   UNL     1       9.620  11.856  17.813  0.00  0.00    +0.000 A 
BRANCH  16  22
ATOM     22  O   UNL     1      10.721  13.749  18.917  0.00  0.00    +0.000 OA
BRANCH  22  24
ATOM     23  C   UNL     1      10.265  15.637  17.519  0.00  0.00    +0.000 C 
ATOM     24  C   UNL     1      11.001  14.314  17.634  0.00  0.00    +0.000 C 
ENDBRANCH  22  24
ENDBRANCH  16  22
ENDBRANCH  12  19
ENDBRANCH  11  13
ENDBRANCH  10  11
ENDBRANCH   1  10
BRANCH   3  25
ATOM     25  C   UNL     1       3.191   7.429  18.618  0.00  0.00    +0.000 C 
BRANCH  25  26
ATOM     26  C   UNL     1       2.247   8.529  18.247  0.00  0.00    +0.000 C 
ATOM     27  O   UNL     1       2.363   9.122  17.172  0.00  0.00    +0.000 OA
ATOM     28  N   UNL     1       1.255   8.857  19.157  0.00  0.00    +0.000 N 
ATOM     29  C   UNL     1       0.280   9.849  18.735  0.00  0.00    +0.000 C 
ATOM     30  C   UNL     1       0.772  11.256  19.055  0.00  0.00    +0.000 C 
ATOM     31  C   UNL     1       0.536  11.651  20.506  0.00  0.00    +0.000 C 
ATOM     32  C   UNL     1       1.170  10.731  21.550  0.00  0.00    +0.000 C 
ATOM     33  C   UNL     1       0.577   9.321  21.568  0.00  0.00    +0.000 C 
ATOM     34  C   UNL     1       1.222   8.380  20.552  0.00  0.00    +0.000 C 
ENDBRANCH  25  26
ENDBRANCH   3  25
TORSDOF 8
ENDMDL
MODEL 3
REMARK VINA RESULT:      -7.9      4.464      7.699
REMARK  Name = 
REMARK  9 active torsions:
REMARK  status: ('A' for Active; 'I' for Inactive)
REMARK    1  A    between atoms: C_1  and  C_2
REMARK    2  A    between atoms: C_2  and  O_3
REMARK    3  A    between atoms: O_3  and  C_4
REMARK    4  A    between atoms: C_7  and  N_8
REMARK    5  A    between atoms: C_9  and  C_11
REMARK    6  A    between atoms: C_11  and  S_12
REMARK    7  A    between atoms: S_12  and  C_13
REMARK    8  A    between atoms: N_15  and  C_16
REMARK    9  A    between atoms: C_16  and  C_17
REMARK                            x       y       z     vdW  Elec       q    Type
REMARK                         _______ _______ _______ _____ _____    ______ ____
ROOT
ATOM      1  C   UNL     1       4.154   5.884  18.223  0.00  0.00    +0.000 A 
ATOM      2  C   UNL     1       3.912   5.430  16.944  0.00  0.00    +0.000 A 
ATOM      3  N   UNL     1       4.819   4.415  16.786  0.00  0.00    +0.000 N 
ATOM      4  C   UNL     1       5.976   4.811  17.422  0.00  0.00    +0.000 A 
ATOM      5  C   UNL     1       7.297   4.420  17.199  0.00  0.00    +0.000 A 
ATOM      6  C   UNL     1       8.224   4.780  18.168  0.00  0.00    +0.000 A 
ATOM      7  C   UNL     1       7.815   5.428  19.334  0.00  0.00    +0.000 A 
ATOM      8  C   UNL     1       6.472   5.813  19.533  0.00  0.00    +0.000 A 
ATOM      9  C   UNL     1       5.530   5.565  18.511  0.00  0.00    +0.000 A 
ENDROOT
BRANCH   1  10
ATOM     10  S   UNL     1       2.999   6.760  19.205  0.00  0.00    +0.000 S 
BRANCH  10  11
ATOM     11  C   UNL     1       2.307   7.995  18.016  0.00  0.00    +0.000 C 
BRANCH  11  13
ATOM     12  N   UNL     1       1.356   9.020  20.029  0.00  0.00    +0.000 N 
ATOM     13  C   UNL     1       1.368   9.033  18.652  0.00  0.00    +0.000 C 
ATOM     14  O   UNL     1       0.722   9.796  17.939  0.00  0.00    +0.000 OA
ATOM     15  H   UNL     1       1.966   8.328  20.449  0.00  0.00    +0.000 HD
BRANCH  12  19
ATOM     16  C   UNL     1      -0.890  11.238  22.821  0.00  0.00    +0.000 A 
ATOM     17  C   UNL     1      -0.261  11.907  21.764  0.00  0.00    +0.000 A 
ATOM     18  C   UNL     1       0.502  11.210  20.820  0.00  0.00    +0.000 A 
ATOM     19  C   UNL     1       0.653   9.828  20.931  0.00  0.00    +0.000 A 
ATOM     20  C   UNL     1       0.064   9.169  22.018  0.00  0.00    +0.000 A 
ATOM     21  C   UNL     1      -0.694   9.868  22.957  0.00  0.00    +0.000 A 
BRANCH  16  22
ATOM     22  O   UNL     1      -1.656  12.017  23.642  0.00  0.00    +0.000 OA
BRANCH  22  24
ATOM     23  C   UNL     1      -3.769  12.843  24.405  0.00  0.00    +0.000 C 
ATOM     24  C   UNL     1      -3.020  12.199  23.252  0.00  0.00    +0.000 C 
ENDBRANCH  22  24
ENDBRANCH  16  22
ENDBRANCH  12  19
ENDBRANCH  11  13
ENDBRANCH  10  11
ENDBRANCH   1  10
BRANCH   3  25
ATOM     25  C   UNL     1       4.402   3.015  16.837  0.00  0.00    +0.000 C 
BRANCH  25  26
ATOM     26  C   UNL     1       2.990   2.876  17.312  0.00  0.00    +0.000 C 
ATOM     27  O   UNL     1       2.047   3.191  16.583  0.00  0.00    +0.000 OA
ATOM     28  N   UNL     1       2.789   2.394  18.595  0.00  0.00    +0.000 N 
ATOM     29  C   UNL     1       1.414   2.160  19.000  0.00  0.00    +0.000 C 
ATOM     30  C   UNL     1       0.803   3.428  19.587  0.00  0.00    +0.000 C 
ATOM     31  C   UNL     1       1.187   3.652  21.043  0.00  0.00    +0.000 C 
ATOM     32  C   UNL     1       2.688   3.734  21.323  0.00  0.00    +0.000 C 
ATOM     33  C   UNL     1       3.435   2.425  21.059  0.00  0.00    +0.000 C 
ATOM     34  C   UNL     1       3.859   2.252  19.601  0.00  0.00    +0.000 C 
ENDBRANCH  25  26
ENDBRANCH   3  25
TORSDOF 8
ENDMDL
MODEL 4
REMARK VINA RESULT:      -7.9      3.743      6.250
REMARK  Name = 
REMARK  9 active torsions:
REMARK  status: ('A' for Active; 'I' for Inactive)
REMARK    1  A    between atoms: C_1  and  C_2
REMARK    2  A    between atoms: C_2  and  O_3
REMARK    3  A    between atoms: O_3  and  C_4
REMARK    4  A    between atoms: C_7  and  N_8
REMARK    5  A    between atoms: C_9  and  C_11
REMARK    6  A    between atoms: C_11  and  S_12
REMARK    7  A    between atoms: S_12  and  C_13
REMARK    8  A    between atoms: N_15  and  C_16
REMARK    9  A    between atoms: C_16  and  C_17
REMARK                            x       y       z     vdW  Elec       q    Type
REMARK                         _______ _______ _______ _____ _____    ______ ____
ROOT
ATOM      1  C   UNL     1       4.820   5.624  18.879  0.00  0.00    +0.000 A 
ATOM      2  C   UNL     1       4.335   6.686  18.145  0.00  0.00    +0.000 A 
ATOM      3  N   UNL     1       2.977   6.587  18.292  0.00  0.00    +0.000 N 
ATOM      4  C   UNL     1       2.671   5.243  18.285  0.00  0.00    +0.000 A 
ATOM      5  C   UNL     1       1.482   4.600  17.942  0.00  0.00    +0.000 A 
ATOM      6  C   UNL     1       1.379   3.257  18.286  0.00  0.00    +0.000 A 
ATOM      7  C   UNL     1       2.396   2.631  19.007  0.00  0.00    +0.000 A 
ATOM      8  C   UNL     1       3.590   3.306  19.338  0.00  0.00    +0.000 A 
ATOM      9  C   UNL     1       3.770   4.636  18.899  0.00  0.00    +0.000 A 
ENDROOT
BRANCH   1  10
ATOM     10  S   UNL     1       6.438   5.523  19.540  0.00  0.00    +0.000 S 
BRANCH  10  11
ATOM     11  C   UNL     1       7.484   6.146  18.149  0.00  0.00    +0.000 C 
BRANCH  11  13
ATOM     12  N   UNL     1       7.046   5.618  15.795  0.00  0.00    +0.000 N 
ATOM     13  C   UNL     1       7.617   5.172  16.967  0.00  0.00    +0.000 C 
ATOM     14  O   UNL     1       8.210   4.106  17.113  0.00  0.00    +0.000 OA
ATOM     15  H   UNL     1       6.611   6.530  15.860  0.00  0.00    +0.000 HD
BRANCH  12  19
ATOM     16  C   UNL     1       6.802   3.599  12.105  0.00  0.00    +0.000 A 
ATOM     17  C   UNL     1       7.673   4.688  12.231  0.00  0.00    +0.000 A 
ATOM     18  C   UNL     1       7.778   5.392  13.437  0.00  0.00    +0.000 A 
ATOM     19  C   UNL     1       6.999   5.018  14.531  0.00  0.00    +0.000 A 
ATOM     20  C   UNL     1       6.093   3.959  14.386  0.00  0.00    +0.000 A 
ATOM     21  C   UNL     1       5.990   3.262  13.183  0.00  0.00    +0.000 A 
BRANCH  16  22
ATOM     22  O   UNL     1       6.832   2.953  10.900  0.00  0.00    +0.000 OA
BRANCH  22  24
ATOM     23  C   UNL     1       6.161   0.679  11.226  0.00  0.00    +0.000 C 
ATOM     24  C   UNL     1       7.320   1.610  10.913  0.00  0.00    +0.000 C 
ENDBRANCH  22  24
ENDBRANCH  16  22
ENDBRANCH  12  19
ENDBRANCH  11  13
ENDBRANCH  10  11
ENDBRANCH   1  10
BRANCH   3  25
ATOM     25  C   UNL     1       2.245   7.495  19.174  0.00  0.00    +0.000 C 
BRANCH  25  26
ATOM     26  C   UNL     1       1.800   8.729  18.452  0.00  0.00    +0.000 C 
ATOM     27  O   UNL     1       2.264   9.011  17.346  0.00  0.00    +0.000 OA
ATOM     28  N   UNL     1       0.864   9.535  19.078  0.00  0.00    +0.000 N 
ATOM     29  C   UNL     1       0.361  10.667  18.318  0.00  0.00    +0.000 C 
ATOM     30  C   UNL     1       1.258  11.885  18.511  0.00  0.00    +0.000 C 
ATOM     31  C   UNL     1       0.969  12.635  19.804  0.00  0.00    +0.000 C 
ATOM     32  C   UNL     1       1.093  11.808  21.085  0.00  0.00    +0.000 C 
ATOM     33  C   UNL     1       0.053  10.691  21.198  0.00  0.00    +0.000 C 
ATOM     34  C   UNL     1       0.471   9.402  20.493  0.00  0.00    +0.000 C 
ENDBRANCH  25  26
ENDBRANCH   3  25
TORSDOF 8
ENDMDL
MODEL 5
REMARK VINA RESULT:      -7.7      3.577      4.688
REMARK  Name = 
REMARK  9 active torsions:
REMARK  status: ('A' for Active; 'I' for Inactive)
REMARK    1  A    between atoms: C_1  and  C_2
REMARK    2  A    between atoms: C_2  and  O_3
REMARK    3  A    between atoms: O_3  and  C_4
REMARK    4  A    between atoms: C_7  and  N_8
REMARK    5  A    between atoms: C_9  and  C_11
REMARK    6  A    between atoms: C_11  and  S_12
REMARK    7  A    between atoms: S_12  and  C_13
REMARK    8  A    between atoms: N_15  and  C_16
REMARK    9  A    between atoms: C_16  and  C_17
REMARK                            x       y       z     vdW  Elec       q    Type
REMARK                         _______ _______ _______ _____ _____    ______ ____
ROOT
ATOM      1  C   UNL     1       6.547   5.882  17.139  0.00  0.00    +0.000 A 
ATOM      2  C   UNL     1       5.214   5.697  17.442  0.00  0.00    +0.000 A 
ATOM      3  N   UNL     1       4.856   4.620  16.673  0.00  0.00    +0.000 N 
ATOM      4  C   UNL     1       5.522   4.747  15.474  0.00  0.00    +0.000 A 
ATOM      5  C   UNL     1       5.198   4.239  14.214  0.00  0.00    +0.000 A 
ATOM      6  C   UNL     1       6.192   4.301  13.245  0.00  0.00    +0.000 A 
ATOM      7  C   UNL     1       7.464   4.777  13.564  0.00  0.00    +0.000 A 
ATOM      8  C   UNL     1       7.762   5.287  14.845  0.00  0.00    +0.000 A 
ATOM      9  C   UNL     1       6.738   5.345  15.814  0.00  0.00    +0.000 A 
ENDROOT
BRANCH   1  10
ATOM     10  S   UNL     1       7.698   6.707  18.168  0.00  0.00    +0.000 S 
BRANCH  10  11
ATOM     11  C   UNL     1       7.574   8.460  17.594  0.00  0.00    +0.000 C 
BRANCH  11  13
ATOM     12  N   UNL     1       8.576  10.692  17.747  0.00  0.00    +0.000 N 
ATOM     13  C   UNL     1       8.535   9.430  18.299  0.00  0.00    +0.000 C 
ATOM     14  O   UNL     1       9.173   9.059  19.281  0.00  0.00    +0.000 OA
ATOM     15  H   UNL     1       7.969  10.820  16.946  0.00  0.00    +0.000 HD
BRANCH  12  19
ATOM     16  C   UNL     1      10.593  14.129  19.115  0.00  0.00    +0.000 A 
ATOM     17  C   UNL     1      10.810  13.686  17.805  0.00  0.00    +0.000 A 
ATOM     18  C   UNL     1      10.168  12.543  17.314  0.00  0.00    +0.000 A 
ATOM     19  C   UNL     1       9.304  11.822  18.137  0.00  0.00    +0.000 A 
ATOM     20  C   UNL     1       9.127  12.240  19.463  0.00  0.00    +0.000 A 
ATOM     21  C   UNL     1       9.771  13.377  19.949  0.00  0.00    +0.000 A 
BRANCH  16  22
ATOM     22  O   UNL     1      11.228  15.289  19.461  0.00  0.00    +0.000 OA
BRANCH  22  24
ATOM     23  C   UNL     1      10.713  17.490  18.677  0.00  0.00    +0.000 C 
ATOM     24  C   UNL     1      10.391  16.421  19.706  0.00  0.00    +0.000 C 
ENDBRANCH  22  24
ENDBRANCH  16  22
ENDBRANCH  12  19
ENDBRANCH  11  13
ENDBRANCH  10  11
ENDBRANCH   1  10
BRANCH   3  25
ATOM     25  C   UNL     1       4.671   3.297  17.267  0.00  0.00    +0.000 C 
BRANCH  25  26
ATOM     26  C   UNL     1       3.228   3.012  17.542  0.00  0.00    +0.000 C 
ATOM     27  O   UNL     1       2.364   3.273  16.703  0.00  0.00    +0.000 OA
ATOM     28  N   UNL     1       2.906   2.457  18.771  0.00  0.00    +0.000 N 
ATOM     29  C   UNL     1       1.518   2.084  18.978  0.00  0.00    +0.000 C 
ATOM     30  C   UNL     1       0.718   3.265  19.518  0.00  0.00    +0.000 C 
ATOM     31  C   UNL     1       0.884   3.456  21.018  0.00  0.00    +0.000 C 
ATOM     32  C   UNL     1       2.321   3.659  21.501  0.00  0.00    +0.000 C 
ATOM     33  C   UNL     1       3.216   2.435  21.299  0.00  0.00    +0.000 C 
ATOM     34  C   UNL     1       3.842   2.367  19.907  0.00  0.00    +0.000 C 
ENDBRANCH  25  26
ENDBRANCH   3  25
TORSDOF 8
ENDMDL
MODEL 6
REMARK VINA RESULT:      -7.7      3.783      6.260
REMARK  Name = 
REMARK  9 active torsions:
REMARK  status: ('A' for Active; 'I' for Inactive)
REMARK    1  A    between atoms: C_1  and  C_2
REMARK    2  A    between atoms: C_2  and  O_3
REMARK    3  A    between atoms: O_3  and  C_4
REMARK    4  A    between atoms: C_7  and  N_8
REMARK    5  A    between atoms: C_9  and  C_11
REMARK    6  A    between atoms: C_11  and  S_12
REMARK    7  A    between atoms: S_12  and  C_13
REMARK    8  A    between atoms: N_15  and  C_16
REMARK    9  A    between atoms: C_16  and  C_17
REMARK                            x       y       z     vdW  Elec       q    Type
REMARK                         _______ _______ _______ _____ _____    ______ ____
ROOT
ATOM      1  C   UNL     1       5.063   5.674  18.893  0.00  0.00    +0.000 A 
ATOM      2  C   UNL     1       4.452   6.657  18.143  0.00  0.00    +0.000 A 
ATOM      3  N   UNL     1       3.118   6.468  18.392  0.00  0.00    +0.000 N 
ATOM      4  C   UNL     1       2.915   5.108  18.472  0.00  0.00    +0.000 A 
ATOM      5  C   UNL     1       1.757   4.363  18.247  0.00  0.00    +0.000 A 
ATOM      6  C   UNL     1       1.779   3.037  18.662  0.00  0.00    +0.000 A 
ATOM      7  C   UNL     1       2.887   2.526  19.339  0.00  0.00    +0.000 A 
ATOM      8  C   UNL     1       4.046   3.302  19.551  0.00  0.00    +0.000 A 
ATOM      9  C   UNL     1       4.095   4.615  19.035  0.00  0.00    +0.000 A 
ENDROOT
BRANCH   1  10
ATOM     10  S   UNL     1       6.726   5.725  19.440  0.00  0.00    +0.000 S 
BRANCH  10  11
ATOM     11  C   UNL     1       7.654   6.103  17.886  0.00  0.00    +0.000 C 
BRANCH  11  13
ATOM     12  N   UNL     1       6.613   5.453  15.764  0.00  0.00    +0.000 N 
ATOM     13  C   UNL     1       7.472   5.064  16.769  0.00  0.00    +0.000 C 
ATOM     14  O   UNL     1       8.084   4.000  16.813  0.00  0.00    +0.000 OA
ATOM     15  H   UNL     1       6.209   6.374  15.890  0.00  0.00    +0.000 HD
BRANCH  12  19
ATOM     16  C   UNL     1       5.648   3.597  12.107  0.00  0.00    +0.000 A 
ATOM     17  C   UNL     1       4.753   3.499  13.179  0.00  0.00    +0.000 A 
ATOM     18  C   UNL     1       5.039   4.093  14.414  0.00  0.00    +0.000 A 
ATOM     19  C   UNL     1       6.236   4.786  14.593  0.00  0.00    +0.000 A 
ATOM     20  C   UNL     1       7.151   4.839  13.533  0.00  0.00    +0.000 A 
ATOM     21  C   UNL     1       6.863   4.243  12.305  0.00  0.00    +0.000 A 
BRANCH  16  22
ATOM     22  O   UNL     1       5.232   3.029  10.935  0.00  0.00    +0.000 OA
BRANCH  22  24
ATOM     23  C   UNL     1       3.270   3.928   9.903  0.00  0.00    +0.000 C 
ATOM     24  C   UNL     1       3.823   2.830  10.793  0.00  0.00    +0.000 C 
ENDBRANCH  22  24
ENDBRANCH  16  22
ENDBRANCH  12  19
ENDBRANCH  11  13
ENDBRANCH  10  11
ENDBRANCH   1  10
BRANCH   3  25
ATOM     25  C   UNL     1       2.381   7.368  19.278  0.00  0.00    +0.000 C 
BRANCH  25  26
ATOM     26  C   UNL     1       1.844   8.555  18.540  0.00  0.00    +0.000 C 
ATOM     27  O   UNL     1       2.239   8.819  17.403  0.00  0.00    +0.000 OA
ATOM     28  N   UNL     1       0.903   9.340  19.186  0.00  0.00    +0.000 N 
ATOM     29  C   UNL     1       0.311  10.420  18.416  0.00  0.00    +0.000 C 
ATOM     30  C   UNL     1       1.158  11.684  18.524  0.00  0.00    +0.000 C 
ATOM     31  C   UNL     1       0.899  12.464  19.805  0.00  0.00    +0.000 C 
ATOM     32  C   UNL     1       1.124  11.689  21.104  0.00  0.00    +0.000 C 
ATOM     33  C   UNL     1       0.145  10.531  21.306  0.00  0.00    +0.000 C 
ATOM     34  C   UNL     1       0.587   9.238  20.623  0.00  0.00    +0.000 C 
ENDBRANCH  25  26
ENDBRANCH   3  25
TORSDOF 8
ENDMDL
MODEL 7
REMARK VINA RESULT:      -7.6      3.234      8.970
REMARK  Name = 
REMARK  9 active torsions:
REMARK  status: ('A' for Active; 'I' for Inactive)
REMARK    1  A    between atoms: C_1  and  C_2
REMARK    2  A    between atoms: C_2  and  O_3
REMARK    3  A    between atoms: O_3  and  C_4
REMARK    4  A    between atoms: C_7  and  N_8
REMARK    5  A    between atoms: C_9  and  C_11
REMARK    6  A    between atoms: C_11  and  S_12
REMARK    7  A    between atoms: S_12  and  C_13
REMARK    8  A    between atoms: N_15  and  C_16
REMARK    9  A    between atoms: C_16  and  C_17
REMARK                            x       y       z     vdW  Elec       q    Type
REMARK                         _______ _______ _______ _____ _____    ______ ____
ROOT
ATOM      1  C   UNL     1       9.514  12.069  19.279  0.00  0.00    +0.000 A 
ATOM      2  C   UNL     1       8.924  13.020  20.084  0.00  0.00    +0.000 A 
ATOM      3  N   UNL     1       8.823  14.115  19.267  0.00  0.00    +0.000 N 
ATOM      4  C   UNL     1       9.960  14.140  18.490  0.00  0.00    +0.000 A 
ATOM      5  C   UNL     1      10.586  15.215  17.858  0.00  0.00    +0.000 A 
ATOM      6  C   UNL     1      11.564  14.903  16.922  0.00  0.00    +0.000 A 
ATOM      7  C   UNL     1      11.829  13.573  16.592  0.00  0.00    +0.000 A 
ATOM      8  C   UNL     1      11.182  12.506  17.248  0.00  0.00    +0.000 A 
ATOM      9  C   UNL     1      10.270  12.793  18.287  0.00  0.00    +0.000 A 
ENDROOT
BRANCH   1  10
ATOM     10  S   UNL     1       9.408  10.340  19.535  0.00  0.00    +0.000 S 
BRANCH  10  11
ATOM     11  C   UNL     1       8.560   9.753  18.000  0.00  0.00    +0.000 C 
BRANCH  11  13
ATOM     12  N   UNL     1       6.992   8.036  17.226  0.00  0.00    +0.000 N 
ATOM     13  C   UNL     1       8.045   8.307  18.071  0.00  0.00    +0.000 C 
ATOM     14  O   UNL     1       8.582   7.499  18.825  0.00  0.00    +0.000 OA
ATOM     15  H   UNL     1       6.689   8.824  16.665  0.00  0.00    +0.000 HD
BRANCH  12  19
ATOM     16  C   UNL     1       4.732   4.512  16.751  0.00  0.00    +0.000 A 
ATOM     17  C   UNL     1       6.058   4.538  16.302  0.00  0.00    +0.000 A 
ATOM     18  C   UNL     1       6.841   5.692  16.432  0.00  0.00    +0.000 A 
ATOM     19  C   UNL     1       6.298   6.840  17.006  0.00  0.00    +0.000 A 
ATOM     20  C   UNL     1       4.956   6.825  17.409  0.00  0.00    +0.000 A 
ATOM     21  C   UNL     1       4.179   5.675  17.275  0.00  0.00    +0.000 A 
BRANCH  16  22
ATOM     22  O   UNL     1       4.088   3.312  16.626  0.00  0.00    +0.000 OA
BRANCH  22  24
ATOM     23  C   UNL     1       3.440   2.224  18.655  0.00  0.00    +0.000 C 
ATOM     24  C   UNL     1       2.978   3.094  17.500  0.00  0.00    +0.000 C 
ENDBRANCH  22  24
ENDBRANCH  16  22
ENDBRANCH  12  19
ENDBRANCH  11  13
ENDBRANCH  10  11
ENDBRANCH   1  10
BRANCH   3  25
ATOM     25  C   UNL     1       7.538  14.511  18.692  0.00  0.00    +0.000 C 
BRANCH  25  26
ATOM     26  C   UNL     1       6.562  14.923  19.749  0.00  0.00    +0.000 C 
ATOM     27  O   UNL     1       6.893  14.945  20.937  0.00  0.00    +0.000 OA
ATOM     28  N   UNL     1       5.281  15.263  19.343  0.00  0.00    +0.000 N 
ATOM     29  C   UNL     1       4.381  15.765  20.366  0.00  0.00    +0.000 C 
ATOM     30  C   UNL     1       3.651  14.616  21.052  0.00  0.00    +0.000 C 
ATOM     31  C   UNL     1       2.455  14.114  20.256  0.00  0.00    +0.000 C 
ATOM     32  C   UNL     1       2.764  13.634  18.837  0.00  0.00    +0.000 C 
ATOM     33  C   UNL     1       3.244  14.747  17.904  0.00  0.00    +0.000 C 
ATOM     34  C   UNL     1       4.747  15.006  17.992  0.00  0.00    +0.000 C 
ENDBRANCH  25  26
ENDBRANCH   3  25
TORSDOF 8
ENDMDL
MODEL 8
REMARK VINA RESULT:      -7.6      2.612      4.573
REMARK  Name = 
REMARK  9 active torsions:
REMARK  status: ('A' for Active; 'I' for Inactive)
REMARK    1  A    between atoms: C_1  and  C_2
REMARK    2  A    between atoms: C_2  and  O_3
REMARK    3  A    between atoms: O_3  and  C_4
REMARK    4  A    between atoms: C_7  and  N_8
REMARK    5  A    between atoms: C_9  and  C_11
REMARK    6  A    between atoms: C_11  and  S_12
REMARK    7  A    between atoms: S_12  and  C_13
REMARK    8  A    between atoms: N_15  and  C_16
REMARK    9  A    between atoms: C_16  and  C_17
REMARK                            x       y       z     vdW  Elec       q    Type
REMARK                         _______ _______ _______ _____ _____    ______ ____
ROOT
ATOM      1  C   UNL     1       6.123   6.451  17.646  0.00  0.00    +0.000 A 
ATOM      2  C   UNL     1       6.180   5.244  18.311  0.00  0.00    +0.000 A 
ATOM      3  N   UNL     1       4.905   4.755  18.198  0.00  0.00    +0.000 N 
ATOM      4  C   UNL     1       4.052   5.831  18.309  0.00  0.00    +0.000 A 
ATOM      5  C   UNL     1       2.719   5.876  18.720  0.00  0.00    +0.000 A 
ATOM      6  C   UNL     1       2.032   7.058  18.477  0.00  0.00    +0.000 A 
ATOM      7  C   UNL     1       2.645   8.103  17.783  0.00  0.00    +0.000 A 
ATOM      8  C   UNL     1       3.995   8.031  17.381  0.00  0.00    +0.000 A 
ATOM      9  C   UNL     1       4.750   6.888  17.719  0.00  0.00    +0.000 A 
ENDROOT
BRANCH   1  10
ATOM     10  S   UNL     1       7.506   7.280  16.964  0.00  0.00    +0.000 S 
BRANCH  10  11
ATOM     11  C   UNL     1       8.370   7.932  18.463  0.00  0.00    +0.000 C 
BRANCH  11  13
ATOM     12  N   UNL     1       9.394   9.916  19.473  0.00  0.00    +0.000 N 
ATOM     13  C   UNL     1       8.575   9.455  18.466  0.00  0.00    +0.000 C 
ATOM     14  O   UNL     1       8.040  10.150  17.606  0.00  0.00    +0.000 OA
ATOM     15  H   UNL     1       9.757   9.194  20.084  0.00  0.00    +0.000 HD
BRANCH  12  19
ATOM     16  C   UNL     1      10.921  13.751  20.322  0.00  0.00    +0.000 A 
ATOM     17  C   UNL     1       9.611  13.437  20.706  0.00  0.00    +0.000 A 
ATOM     18  C   UNL     1       9.062  12.178  20.434  0.00  0.00    +0.000 A 
ATOM     19  C   UNL     1       9.819  11.218  19.763  0.00  0.00    +0.000 A 
ATOM     20  C   UNL     1      11.111  11.553  19.338  0.00  0.00    +0.000 A 
ATOM     21  C   UNL     1      11.653  12.809  19.608  0.00  0.00    +0.000 A 
BRANCH  16  22
ATOM     22  O   UNL     1      11.367  14.988  20.695  0.00  0.00    +0.000 OA
BRANCH  22  24
ATOM     23  C   UNL     1      10.888  17.089  21.737  0.00  0.00    +0.000 C 
ATOM     24  C   UNL     1      10.718  15.582  21.822  0.00  0.00    +0.000 C 
ENDBRANCH  22  24
ENDBRANCH  16  22
ENDBRANCH  12  19
ENDBRANCH  11  13
ENDBRANCH  10  11
ENDBRANCH   1  10
BRANCH   3  25
ATOM     25  C   UNL     1       4.593   3.671  17.267  0.00  0.00    +0.000 C 
BRANCH  25  26
ATOM     26  C   UNL     1       3.239   3.089  17.528  0.00  0.00    +0.000 C 
ATOM     27  O   UNL     1       2.331   3.215  16.704  0.00  0.00    +0.000 OA
ATOM     28  N   UNL     1       3.048   2.421  18.727  0.00  0.00    +0.000 N 
ATOM     29  C   UNL     1       1.764   1.769  18.916  0.00  0.00    +0.000 C 
ATOM     30  C   UNL     1       0.751   2.738  19.515  0.00  0.00    +0.000 C 
ATOM     31  C   UNL     1       0.891   2.884  21.024  0.00  0.00    +0.000 C 
ATOM     32  C   UNL     1       2.264   3.346  21.515  0.00  0.00    +0.000 C 
ATOM     33  C   UNL     1       3.383   2.337  21.250  0.00  0.00    +0.000 C 
ATOM     34  C   UNL     1       3.995   2.464  19.856  0.00  0.00    +0.000 C 
ENDBRANCH  25  26
ENDBRANCH   3  25
TORSDOF 8
ENDMDL
MODEL 9
REMARK VINA RESULT:      -7.6      3.454      4.700
REMARK  Name = 
REMARK  9 active torsions:
REMARK  status: ('A' for Active; 'I' for Inactive)
REMARK    1  A    between atoms: C_1  and  C_2
REMARK    2  A    between atoms: C_2  and  O_3
REMARK    3  A    between atoms: O_3  and  C_4
REMARK    4  A    between atoms: C_7  and  N_8
REMARK    5  A    between atoms: C_9  and  C_11
REMARK    6  A    between atoms: C_11  and  S_12
REMARK    7  A    between atoms: S_12  and  C_13
REMARK    8  A    between atoms: N_15  and  C_16
REMARK    9  A    between atoms: C_16  and  C_17
REMARK                            x       y       z     vdW  Elec       q    Type
REMARK                         _______ _______ _______ _____ _____    ______ ____
ROOT
ATOM      1  C   UNL     1       6.815   6.050  17.839  0.00  0.00    +0.000 A 
ATOM      2  C   UNL     1       5.607   5.762  18.438  0.00  0.00    +0.000 A 
ATOM      3  N   UNL     1       5.201   4.614  17.808  0.00  0.00    +0.000 N 
ATOM      4  C   UNL     1       5.571   4.731  16.487  0.00  0.00    +0.000 A 
ATOM      5  C   UNL     1       5.033   4.124  15.351  0.00  0.00    +0.000 A 
ATOM      6  C   UNL     1       5.779   4.219  14.183  0.00  0.00    +0.000 A 
ATOM      7  C   UNL     1       7.035   4.828  14.191  0.00  0.00    +0.000 A 
ATOM      8  C   UNL     1       7.553   5.436  15.354  0.00  0.00    +0.000 A 
ATOM      9  C   UNL     1       6.765   5.457  16.525  0.00  0.00    +0.000 A 
ENDROOT
BRANCH   1  10
ATOM     10  S   UNL     1       8.073   7.035  18.553  0.00  0.00    +0.000 S 
BRANCH  10  11
ATOM     11  C   UNL     1       7.818   8.675  17.738  0.00  0.00    +0.000 C 
BRANCH  11  13
ATOM     12  N   UNL     1       8.671  10.968  17.577  0.00  0.00    +0.000 N 
ATOM     13  C   UNL     1       8.650   9.820  18.338  0.00  0.00    +0.000 C 
ATOM     14  O   UNL     1       9.212   9.670  19.420  0.00  0.00    +0.000 OA
ATOM     15  H   UNL     1       8.136  10.912  16.718  0.00  0.00    +0.000 HD
BRANCH  12  19
ATOM     16  C   UNL     1      10.302  14.785  18.296  0.00  0.00    +0.000 A 
ATOM     17  C   UNL     1      11.137  13.763  17.829  0.00  0.00    +0.000 A 
ATOM     18  C   UNL     1      10.637  12.478  17.587  0.00  0.00    +0.000 A 
ATOM     19  C   UNL     1       9.291  12.198  17.820  0.00  0.00    +0.000 A 
ATOM     20  C   UNL     1       8.470  13.211  18.333  0.00  0.00    +0.000 A 
ATOM     21  C   UNL     1       8.972  14.489  18.576  0.00  0.00    +0.000 A 
BRANCH  16  22
ATOM     22  O   UNL     1      10.890  16.011  18.437  0.00  0.00    +0.000 OA
BRANCH  22  24
ATOM     23  C   UNL     1      11.252  18.115  17.356  0.00  0.00    +0.000 C 
ATOM     24  C   UNL     1      10.213  17.113  17.827  0.00  0.00    +0.000 C 
ENDBRANCH  22  24
ENDBRANCH  16  22
ENDBRANCH  12  19
ENDBRANCH  11  13
ENDBRANCH  10  11
ENDBRANCH   1  10
BRANCH   3  25
ATOM     25  C   UNL     1       5.286   3.317  18.477  0.00  0.00    +0.000 C 
BRANCH  25  26
ATOM     26  C   UNL     1       3.996   2.563  18.388  0.00  0.00    +0.000 C 
ATOM     27  O   UNL     1       3.677   1.983  17.348  0.00  0.00    +0.000 OA
ATOM     28  N   UNL     1       3.181   2.553  19.508  0.00  0.00    +0.000 N 
ATOM     29  C   UNL     1       1.987   1.727  19.443  0.00  0.00    +0.000 C 
ATOM     30  C   UNL     1       0.825   2.508  18.839  0.00  0.00    +0.000 C 
ATOM     31  C   UNL     1       0.133   3.415  19.846  0.00  0.00    +0.000 C 
ATOM     32  C   UNL     1       1.032   4.449  20.527  0.00  0.00    +0.000 C 
ATOM     33  C   UNL     1       2.103   3.833  21.429  0.00  0.00    +0.000 C 
ATOM     34  C   UNL     1       3.371   3.433  20.677  0.00  0.00    +0.000 C 
ENDBRANCH  25  26
ENDBRANCH   3  25
TORSDOF 8
ENDMDL
