MODEL 1
REMARK VINA RESULT:      -8.8      0.000      0.000
REMARK  Name = 
REMARK  8 active torsions:
REMARK  status: ('A' for Active; 'I' for Inactive)
REMARK    1  A    between atoms: C_1  and  C_2
REMARK    2  A    between atoms: C_2  and  C_3
REMARK    3  A    between atoms: C_6  and  C_7
REMARK    4  A    between atoms: C_6  and  C_8
REMARK    5  A    between atoms: C_18  and  C_19
REMARK    6  A    between atoms: C_22  and  C_23
REMARK    7  A    between atoms: C_23  and  O_25
REMARK    8  A    between atoms: N_29  and  C_30
REMARK                            x       y       z     vdW  Elec       q    Type
REMARK                         _______ _______ _______ _____ _____    ______ ____
ROOT
ATOM      1  C   UNL     1      -5.175  12.729  23.608  0.00  0.00    +0.000 C 
ATOM      2  C   UNL     1      -3.930  13.145  22.794  0.00  0.00    +0.000 C 
ATOM      3  C   UNL     1      -4.205  12.723  21.322  0.00  0.00    +0.000 C 
ATOM      4  C   UNL     1      -3.988  14.727  22.800  0.00  0.00    +0.000 C 
ATOM      5  C   UNL     1      -2.674  15.417  22.450  0.00  0.00    +0.000 C 
ATOM      6  C   UNL     1      -1.570  14.873  23.352  0.00  0.00    +0.000 C 
ATOM      7  C   UNL     1      -0.310  15.738  23.243  0.00  0.00    +0.000 C 
ATOM      8  C   UNL     1      -1.942  14.867  24.872  0.00  0.00    +0.000 C 
ATOM      9  C   UNL     1      -1.444  13.446  22.866  0.00  0.00    +0.000 A 
ATOM     10  C   UNL     1      -0.449  12.975  22.013  0.00  0.00    +0.000 A 
ATOM     11  C   UNL     1      -0.338  11.617  21.849  0.00  0.00    +0.000 A 
ATOM     12  C   UNL     1      -0.871  10.833  22.866  0.00  0.00    +0.000 A 
ATOM     13  C   UNL     1      -2.096  11.254  23.423  0.00  0.00    +0.000 A 
ATOM     14  C   UNL     1      -2.508  12.574  23.150  0.00  0.00    +0.000 A 
ATOM     15  C   UNL     1       0.141   9.818  23.391  0.00  0.00    +0.000 C 
ATOM     16  C   UNL     1       0.915   8.992  22.310  0.00  0.00    +0.000 C 
ATOM     17  C   UNL     1       0.903   9.630  20.941  0.00  0.00    +0.000 A 
ATOM     18  C   UNL     1       1.294   9.143  19.627  0.00  0.00    +0.000 A 
ATOM     19  C   UNL     1       0.757  10.059  18.744  0.00  0.00    +0.000 A 
ATOM     20  N   UNL     1       0.184  11.084  19.431  0.00  0.00    +0.000 N 
ATOM     21  C   UNL     1       0.349  10.904  20.778  0.00  0.00    +0.000 A 
ENDROOT
BRANCH  18  22
ATOM     22  C   UNL     1       2.004   7.929  19.182  0.00  0.00    +0.000 A 
ATOM     23  C   UNL     1       2.769   7.884  18.020  0.00  0.00    +0.000 A 
ATOM     24  C   UNL     1       3.400   6.693  17.633  0.00  0.00    +0.000 A 
ATOM     25  C   UNL     1       3.292   5.538  18.393  0.00  0.00    +0.000 A 
ATOM     26  C   UNL     1       2.568   5.578  19.589  0.00  0.00    +0.000 A 
ATOM     27  C   UNL     1       1.919   6.760  19.970  0.00  0.00    +0.000 A 
BRANCH  25  28
ATOM     28  C   UNL     1       3.984   4.314  17.938  0.00  0.00    +0.000 C 
ATOM     29  O   UNL     1       3.590   3.622  17.013  0.00  0.00    +0.000 OA
BRANCH  28  30
ATOM     30  O   UNL     1       5.071   3.978  18.675  0.00  0.00    +0.000 OA
ATOM     31  H   UNL     1       5.191   4.494  19.494  0.00  0.00    +0.000 HD
ENDBRANCH  28  30
ENDBRANCH  25  28
ENDBRANCH  18  22
BRANCH  20  32
ATOM     32  C   UNL     1      -0.606  12.148  18.819  0.00  0.00    +0.000 C 
ATOM     33  C   UNL     1      -1.362  11.972  17.515  0.00  0.00    +0.000 C 
ATOM     34  C   UNL     1      -2.126  12.114  18.789  0.00  0.00    +0.000 C 
ENDBRANCH  20  32
TORSDOF 4
ENDMDL
MODEL 2
REMARK VINA RESULT:      -8.4      1.022      1.452
REMARK  Name = 
REMARK  8 active torsions:
REMARK  status: ('A' for Active; 'I' for Inactive)
REMARK    1  A    between atoms: C_1  and  C_2
REMARK    2  A    between atoms: C_2  and  C_3
REMARK    3  A    between atoms: C_6  and  C_7
REMARK    4  A    between atoms: C_6  and  C_8
REMARK    5  A    between atoms: C_18  and  C_19
REMARK    6  A    between atoms: C_22  and  C_23
REMARK    7  A    between atoms: C_23  and  O_25
REMARK    8  A    between atoms: N_29  and  C_30
REMARK                            x       y       z     vdW  Elec       q    Type
REMARK                         _______ _______ _______ _____ _____    ______ ____
ROOT
ATOM      1  C   UNL     1      -5.684  13.148  23.622  0.00  0.00    +0.000 C 
ATOM      2  C   UNL     1      -4.346  13.614  23.006  0.00  0.00    +0.000 C 
ATOM      3  C   UNL     1      -4.480  13.426  21.468  0.00  0.00    +0.000 C 
ATOM      4  C   UNL     1      -4.346  15.179  23.244  0.00  0.00    +0.000 C 
ATOM      5  C   UNL     1      -2.979  15.844  23.134  0.00  0.00    +0.000 C 
ATOM      6  C   UNL     1      -1.997  15.118  24.048  0.00  0.00    +0.000 C 
ATOM      7  C   UNL     1      -0.701  15.924  24.194  0.00  0.00    +0.000 C 
ATOM      8  C   UNL     1      -2.527  14.910  25.505  0.00  0.00    +0.000 C 
ATOM      9  C   UNL     1      -1.872  13.773  23.367  0.00  0.00    +0.000 A 
ATOM     10  C   UNL     1      -0.811  13.380  22.557  0.00  0.00    +0.000 A 
ATOM     11  C   UNL     1      -0.732  12.057  22.202  0.00  0.00    +0.000 A 
ATOM     12  C   UNL     1      -1.398  11.161  23.032  0.00  0.00    +0.000 A 
ATOM     13  C   UNL     1      -2.659  11.559  23.522  0.00  0.00    +0.000 A 
ATOM     14  C   UNL     1      -2.991  12.925  23.411  0.00  0.00    +0.000 A 
ATOM     15  C   UNL     1      -0.484  10.029  23.496  0.00  0.00    +0.000 C 
ATOM     16  C   UNL     1       0.369   9.331  22.384  0.00  0.00    +0.000 C 
ATOM     17  C   UNL     1       0.524  10.161  21.132  0.00  0.00    +0.000 A 
ATOM     18  C   UNL     1       1.033   9.852  19.805  0.00  0.00    +0.000 A 
ATOM     19  C   UNL     1       0.625  10.913  19.022  0.00  0.00    +0.000 A 
ATOM     20  N   UNL     1       0.021  11.855  19.794  0.00  0.00    +0.000 N 
ATOM     21  C   UNL     1       0.037  11.472  21.109  0.00  0.00    +0.000 A 
ENDROOT
BRANCH  18  22
ATOM     22  C   UNL     1       1.741   8.681  19.255  0.00  0.00    +0.000 A 
ATOM     23  C   UNL     1       1.947   7.512  19.981  0.00  0.00    +0.000 A 
ATOM     24  C   UNL     1       2.651   6.440  19.414  0.00  0.00    +0.000 A 
ATOM     25  C   UNL     1       3.150   6.506  18.123  0.00  0.00    +0.000 A 
ATOM     26  C   UNL     1       2.910   7.653  17.360  0.00  0.00    +0.000 A 
ATOM     27  C   UNL     1       2.225   8.735  17.928  0.00  0.00    +0.000 A 
BRANCH  25  28
ATOM     28  C   UNL     1       3.880   5.342  17.576  0.00  0.00    +0.000 C 
ATOM     29  O   UNL     1       3.737   4.203  17.990  0.00  0.00    +0.000 OA
BRANCH  28  30
ATOM     30  O   UNL     1       4.779   5.648  16.608  0.00  0.00    +0.000 OA
ATOM     31  H   UNL     1       4.391   5.937  15.761  0.00  0.00    +0.000 HD
ENDBRANCH  28  30
ENDBRANCH  25  28
ENDBRANCH  18  22
BRANCH  20  32
ATOM     32  C   UNL     1      -0.660  13.036  19.275  0.00  0.00    +0.000 C 
ATOM     33  C   UNL     1      -0.139  14.448  19.477  0.00  0.00    +0.000 C 
ATOM     34  C   UNL     1      -0.106  13.846  18.113  0.00  0.00    +0.000 C 
ENDBRANCH  20  32
TORSDOF 4
ENDMDL
MODEL 3
REMARK VINA RESULT:      -8.3      1.723      2.336
REMARK  Name = 
REMARK  8 active torsions:
REMARK  status: ('A' for Active; 'I' for Inactive)
REMARK    1  A    between atoms: C_1  and  C_2
REMARK    2  A    between atoms: C_2  and  C_3
REMARK    3  A    between atoms: C_6  and  C_7
REMARK    4  A    between atoms: C_6  and  C_8
REMARK    5  A    between atoms: C_18  and  C_19
REMARK    6  A    between atoms: C_22  and  C_23
REMARK    7  A    between atoms: C_23  and  O_25
REMARK    8  A    between atoms: N_29  and  C_30
REMARK                            x       y       z     vdW  Elec       q    Type
REMARK                         _______ _______ _______ _____ _____    ______ ____
ROOT
ATOM      1  C   UNL     1      -6.800  12.767  23.487  0.00  0.00    +0.000 C 
ATOM      2  C   UNL     1      -5.928  13.216  22.293  0.00  0.00    +0.000 C 
ATOM      3  C   UNL     1      -6.218  12.216  21.136  0.00  0.00    +0.000 C 
ATOM      4  C   UNL     1      -6.581  14.586  21.844  0.00  0.00    +0.000 C 
ATOM      5  C   UNL     1      -5.688  15.468  20.979  0.00  0.00    +0.000 C 
ATOM      6  C   UNL     1      -4.350  15.666  21.684  0.00  0.00    +0.000 C 
ATOM      7  C   UNL     1      -3.540  16.773  21.001  0.00  0.00    +0.000 C 
ATOM      8  C   UNL     1      -4.484  16.108  23.180  0.00  0.00    +0.000 C 
ATOM      9  C   UNL     1      -3.758  14.275  21.628  0.00  0.00    +0.000 A 
ATOM     10  C   UNL     1      -2.783  13.855  20.728  0.00  0.00    +0.000 A 
ATOM     11  C   UNL     1      -2.187  12.640  20.951  0.00  0.00    +0.000 A 
ATOM     12  C   UNL     1      -2.241  12.163  22.257  0.00  0.00    +0.000 A 
ATOM     13  C   UNL     1      -3.447  12.359  22.960  0.00  0.00    +0.000 A 
ATOM     14  C   UNL     1      -4.362  13.287  22.423  0.00  0.00    +0.000 A 
ATOM     15  C   UNL     1      -0.858  11.781  22.779  0.00  0.00    +0.000 C 
ATOM     16  C   UNL     1       0.019  10.897  21.831  0.00  0.00    +0.000 C 
ATOM     17  C   UNL     1      -0.418  10.946  20.386  0.00  0.00    +0.000 A 
ATOM     18  C   UNL     1      -0.052  10.155  19.221  0.00  0.00    +0.000 A 
ATOM     19  C   UNL     1      -1.010  10.464  18.277  0.00  0.00    +0.000 A 
ATOM     20  N   UNL     1      -1.832  11.439  18.752  0.00  0.00    +0.000 N 
ATOM     21  C   UNL     1      -1.431  11.831  20.001  0.00  0.00    +0.000 A 
ENDROOT
BRANCH  18  22
ATOM     22  C   UNL     1       0.999   9.147  18.989  0.00  0.00    +0.000 A 
ATOM     23  C   UNL     1       1.720   9.065  17.802  0.00  0.00    +0.000 A 
ATOM     24  C   UNL     1       2.691   8.068  17.629  0.00  0.00    +0.000 A 
ATOM     25  C   UNL     1       2.966   7.147  18.628  0.00  0.00    +0.000 A 
ATOM     26  C   UNL     1       2.287   7.244  19.847  0.00  0.00    +0.000 A 
ATOM     27  C   UNL     1       1.303   8.226  20.018  0.00  0.00    +0.000 A 
BRANCH  25  28
ATOM     28  C   UNL     1       4.004   6.122  18.390  0.00  0.00    +0.000 C 
ATOM     29  O   UNL     1       4.834   6.198  17.499  0.00  0.00    +0.000 OA
BRANCH  28  30
ATOM     30  O   UNL     1       3.924   5.044  19.209  0.00  0.00    +0.000 OA
ATOM     31  H   UNL     1       4.752   4.536  19.305  0.00  0.00    +0.000 HD
ENDBRANCH  28  30
ENDBRANCH  25  28
ENDBRANCH  18  22
BRANCH  20  32
ATOM     32  C   UNL     1      -3.040  11.901  18.077  0.00  0.00    +0.000 C 
ATOM     33  C   UNL     1      -3.678  11.156  16.919  0.00  0.00    +0.000 C 
ATOM     34  C   UNL     1      -4.377  11.194  18.236  0.00  0.00    +0.000 C 
ENDBRANCH  20  32
TORSDOF 4
ENDMDL
MODEL 4
REMARK VINA RESULT:      -8.1      1.192      1.585
REMARK  Name = 
REMARK  8 active torsions:
REMARK  status: ('A' for Active; 'I' for Inactive)
REMARK    1  A    between atoms: C_1  and  C_2
REMARK    2  A    between atoms: C_2  and  C_3
REMARK    3  A    between atoms: C_6  and  C_7
REMARK    4  A    between atoms: C_6  and  C_8
REMARK    5  A    between atoms: C_18  and  C_19
REMARK    6  A    between atoms: C_22  and  C_23
REMARK    7  A    between atoms: C_23  and  O_25
REMARK    8  A    between atoms: N_29  and  C_30
REMARK                            x       y       z     vdW  Elec       q    Type
REMARK                         _______ _______ _______ _____ _____    ______ ____
ROOT
ATOM      1  C   UNL     1      -6.101  12.913  22.979  0.00  0.00    +0.000 C 
ATOM      2  C   UNL     1      -4.975  13.314  22.001  0.00  0.00    +0.000 C 
ATOM      3  C   UNL     1      -5.227  12.517  20.689  0.00  0.00    +0.000 C 
ATOM      4  C   UNL     1      -5.299  14.823  21.650  0.00  0.00    +0.000 C 
ATOM      5  C   UNL     1      -4.134  15.606  21.056  0.00  0.00    +0.000 C 
ATOM      6  C   UNL     1      -2.923  15.471  21.973  0.00  0.00    +0.000 C 
ATOM      7  C   UNL     1      -1.831  16.471  21.576  0.00  0.00    +0.000 C 
ATOM      8  C   UNL     1      -3.234  15.767  23.478  0.00  0.00    +0.000 C 
ATOM      9  C   UNL     1      -2.574  14.007  21.817  0.00  0.00    +0.000 A 
ATOM     10  C   UNL     1      -1.545  13.509  21.023  0.00  0.00    +0.000 A 
ATOM     11  C   UNL     1      -1.212  12.185  21.165  0.00  0.00    +0.000 A 
ATOM     12  C   UNL     1      -1.568  11.591  22.371  0.00  0.00    +0.000 A 
ATOM     13  C   UNL     1      -2.826  11.936  22.907  0.00  0.00    +0.000 A 
ATOM     14  C   UNL     1      -3.464  13.072  22.371  0.00  0.00    +0.000 A 
ATOM     15  C   UNL     1      -0.381  10.900  23.037  0.00  0.00    +0.000 C 
ATOM     16  C   UNL     1       0.483   9.972  22.118  0.00  0.00    +0.000 C 
ATOM     17  C   UNL     1       0.314  10.257  20.645  0.00  0.00    +0.000 A 
ATOM     18  C   UNL     1       0.734   9.540  19.451  0.00  0.00    +0.000 A 
ATOM     19  C   UNL     1       0.019  10.125  18.425  0.00  0.00    +0.000 A 
ATOM     20  N   UNL     1      -0.694  11.181  18.900  0.00  0.00    +0.000 N 
ATOM     21  C   UNL     1      -0.453  11.354  20.237  0.00  0.00    +0.000 A 
ENDROOT
BRANCH  18  22
ATOM     22  C   UNL     1       1.623   8.382  19.243  0.00  0.00    +0.000 A 
ATOM     23  C   UNL     1       1.784   7.373  20.187  0.00  0.00    +0.000 A 
ATOM     24  C   UNL     1       2.663   6.308  19.945  0.00  0.00    +0.000 A 
ATOM     25  C   UNL     1       3.386   6.222  18.765  0.00  0.00    +0.000 A 
ATOM     26  C   UNL     1       3.200   7.201  17.782  0.00  0.00    +0.000 A 
ATOM     27  C   UNL     1       2.337   8.277  18.028  0.00  0.00    +0.000 A 
BRANCH  25  28
ATOM     28  C   UNL     1       4.294   5.074  18.562  0.00  0.00    +0.000 C 
ATOM     29  O   UNL     1       5.276   5.111  17.838  0.00  0.00    +0.000 OA
BRANCH  28  30
ATOM     30  O   UNL     1       3.916   3.941  19.203  0.00  0.00    +0.000 OA
ATOM     31  H   UNL     1       3.979   3.975  20.176  0.00  0.00    +0.000 HD
ENDBRANCH  28  30
ENDBRANCH  25  28
ENDBRANCH  18  22
BRANCH  20  32
ATOM     32  C   UNL     1      -1.673  11.934  18.123  0.00  0.00    +0.000 C 
ATOM     33  C   UNL     1      -2.315  11.395  16.857  0.00  0.00    +0.000 C 
ATOM     34  C   UNL     1      -3.145  11.552  18.086  0.00  0.00    +0.000 C 
ENDBRANCH  20  32
TORSDOF 4
ENDMDL
MODEL 5
REMARK VINA RESULT:      -7.4      1.489      2.096
REMARK  Name = 
REMARK  8 active torsions:
REMARK  status: ('A' for Active; 'I' for Inactive)
REMARK    1  A    between atoms: C_1  and  C_2
REMARK    2  A    between atoms: C_2  and  C_3
REMARK    3  A    between atoms: C_6  and  C_7
REMARK    4  A    between atoms: C_6  and  C_8
REMARK    5  A    between atoms: C_18  and  C_19
REMARK    6  A    between atoms: C_22  and  C_23
REMARK    7  A    between atoms: C_23  and  O_25
REMARK    8  A    between atoms: N_29  and  C_30
REMARK                            x       y       z     vdW  Elec       q    Type
REMARK                         _______ _______ _______ _____ _____    ______ ____
ROOT
ATOM      1  C   UNL     1      -5.379  15.549  22.406  0.00  0.00    +0.000 C 
ATOM      2  C   UNL     1      -3.836  15.582  22.342  0.00  0.00    +0.000 C 
ATOM      3  C   UNL     1      -3.459  15.613  20.833  0.00  0.00    +0.000 C 
ATOM      4  C   UNL     1      -3.465  17.015  22.903  0.00  0.00    +0.000 C 
ATOM      5  C   UNL     1      -2.019  17.170  23.359  0.00  0.00    +0.000 C 
ATOM      6  C   UNL     1      -1.687  16.056  24.347  0.00  0.00    +0.000 C 
ATOM      7  C   UNL     1      -0.355  16.339  25.051  0.00  0.00    +0.000 C 
ATOM      8  C   UNL     1      -2.740  15.894  25.494  0.00  0.00    +0.000 C 
ATOM      9  C   UNL     1      -1.725  14.830  23.462  0.00  0.00    +0.000 A 
ATOM     10  C   UNL     1      -0.608  14.179  22.946  0.00  0.00    +0.000 A 
ATOM     11  C   UNL     1      -0.797  12.956  22.353  0.00  0.00    +0.000 A 
ATOM     12  C   UNL     1      -1.946  12.267  22.727  0.00  0.00    +0.000 A 
ATOM     13  C   UNL     1      -3.123  13.026  22.886  0.00  0.00    +0.000 A 
ATOM     14  C   UNL     1      -2.980  14.425  22.979  0.00  0.00    +0.000 A 
ATOM     15  C   UNL     1      -1.631  10.846  23.188  0.00  0.00    +0.000 C 
ATOM     16  C   UNL     1      -0.680  10.014  22.264  0.00  0.00    +0.000 C 
ATOM     17  C   UNL     1       0.148  10.864  21.330  0.00  0.00    +0.000 A 
ATOM     18  C   UNL     1       0.984  10.537  20.185  0.00  0.00    +0.000 A 
ATOM     19  C   UNL     1       1.213  11.749  19.565  0.00  0.00    +0.000 A 
ATOM     20  N   UNL     1       0.675  12.757  20.304  0.00  0.00    +0.000 N 
ATOM     21  C   UNL     1       0.106  12.258  21.445  0.00  0.00    +0.000 A 
ENDROOT
BRANCH  18  22
ATOM     22  C   UNL     1       1.468   9.257  19.635  0.00  0.00    +0.000 A 
ATOM     23  C   UNL     1       1.831   9.095  18.302  0.00  0.00    +0.000 A 
ATOM     24  C   UNL     1       2.259   7.847  17.829  0.00  0.00    +0.000 A 
ATOM     25  C   UNL     1       2.343   6.747  18.669  0.00  0.00    +0.000 A 
ATOM     26  C   UNL     1       2.030   6.902  20.024  0.00  0.00    +0.000 A 
ATOM     27  C   UNL     1       1.583   8.143  20.497  0.00  0.00    +0.000 A 
BRANCH  25  28
ATOM     28  C   UNL     1       2.806   5.457  18.116  0.00  0.00    +0.000 C 
ATOM     29  O   UNL     1       3.868   5.318  17.531  0.00  0.00    +0.000 OA
BRANCH  28  30
ATOM     30  O   UNL     1       1.923   4.438  18.257  0.00  0.00    +0.000 OA
ATOM     31  H   UNL     1       1.002   4.653  18.018  0.00  0.00    +0.000 HD
ENDBRANCH  28  30
ENDBRANCH  25  28
ENDBRANCH  18  22
BRANCH  20  32
ATOM     32  C   UNL     1       0.601  14.149  19.872  0.00  0.00    +0.000 C 
ATOM     33  C   UNL     1       1.212  14.646  18.574  0.00  0.00    +0.000 C 
ATOM     34  C   UNL     1      -0.273  14.591  18.708  0.00  0.00    +0.000 C 
ENDBRANCH  20  32
TORSDOF 4
ENDMDL
MODEL 6
REMARK VINA RESULT:      -7.2      1.199      1.727
REMARK  Name = 
REMARK  8 active torsions:
REMARK  status: ('A' for Active; 'I' for Inactive)
REMARK    1  A    between atoms: C_1  and  C_2
REMARK    2  A    between atoms: C_2  and  C_3
REMARK    3  A    between atoms: C_6  and  C_7
REMARK    4  A    between atoms: C_6  and  C_8
REMARK    5  A    between atoms: C_18  and  C_19
REMARK    6  A    between atoms: C_22  and  C_23
REMARK    7  A    between atoms: C_23  and  O_25
REMARK    8  A    between atoms: N_29  and  C_30
REMARK                            x       y       z     vdW  Elec       q    Type
REMARK                         _______ _______ _______ _____ _____    ______ ____
ROOT
ATOM      1  C   UNL     1      -4.920  14.046  22.061  0.00  0.00    +0.000 C 
ATOM      2  C   UNL     1      -3.449  14.110  21.593  0.00  0.00    +0.000 C 
ATOM      3  C   UNL     1      -3.432  13.602  20.122  0.00  0.00    +0.000 C 
ATOM      4  C   UNL     1      -3.148  15.662  21.510  0.00  0.00    +0.000 C 
ATOM      5  C   UNL     1      -1.668  16.027  21.496  0.00  0.00    +0.000 C 
ATOM      6  C   UNL     1      -0.980  15.364  22.686  0.00  0.00    +0.000 C 
ATOM      7  C   UNL     1       0.429  15.935  22.880  0.00  0.00    +0.000 C 
ATOM      8  C   UNL     1      -1.715  15.593  24.048  0.00  0.00    +0.000 C 
ATOM      9  C   UNL     1      -1.060  13.899  22.318  0.00  0.00    +0.000 A 
ATOM     10  C   UNL     1      -0.016  13.147  21.787  0.00  0.00    +0.000 A 
ATOM     11  C   UNL     1      -0.176  11.786  21.723  0.00  0.00    +0.000 A 
ATOM     12  C   UNL     1      -1.112  11.239  22.593  0.00  0.00    +0.000 A 
ATOM     13  C   UNL     1      -2.310  11.958  22.780  0.00  0.00    +0.000 A 
ATOM     14  C   UNL     1      -2.330  13.299  22.345  0.00  0.00    +0.000 A 
ATOM     15  C   UNL     1      -0.521  10.097  23.418  0.00  0.00    +0.000 C 
ATOM     16  C   UNL     1       0.293   9.021  22.624  0.00  0.00    +0.000 C 
ATOM     17  C   UNL     1       0.771   9.502  21.275  0.00  0.00    +0.000 A 
ATOM     18  C   UNL     1       1.361   8.811  20.138  0.00  0.00    +0.000 A 
ATOM     19  C   UNL     1       1.285   9.720  19.102  0.00  0.00    +0.000 A 
ATOM     20  N   UNL     1       0.804  10.907  19.561  0.00  0.00    +0.000 N 
ATOM     21  C   UNL     1       0.579  10.839  20.910  0.00  0.00    +0.000 A 
ENDROOT
BRANCH  18  22
ATOM     22  C   UNL     1       1.867   7.437  19.957  0.00  0.00    +0.000 A 
ATOM     23  C   UNL     1       1.558   6.397  20.828  0.00  0.00    +0.000 A 
ATOM     24  C   UNL     1       2.090   5.117  20.620  0.00  0.00    +0.000 A 
ATOM     25  C   UNL     1       2.924   4.847  19.546  0.00  0.00    +0.000 A 
ATOM     26  C   UNL     1       3.206   5.868  18.632  0.00  0.00    +0.000 A 
ATOM     27  C   UNL     1       2.693   7.153  18.846  0.00  0.00    +0.000 A 
BRANCH  25  28
ATOM     28  C   UNL     1       3.451   3.477  19.374  0.00  0.00    +0.000 C 
ATOM     29  O   UNL     1       4.635   3.225  19.221  0.00  0.00    +0.000 OA
BRANCH  28  30
ATOM     30  O   UNL     1       2.500   2.511  19.338  0.00  0.00    +0.000 OA
ATOM     31  H   UNL     1       2.339   2.057  20.186  0.00  0.00    +0.000 HD
ENDBRANCH  28  30
ENDBRANCH  25  28
ENDBRANCH  18  22
BRANCH  20  32
ATOM     32  C   UNL     1       0.457  12.041  18.711  0.00  0.00    +0.000 C 
ATOM     33  C   UNL     1       0.855  13.471  19.034  0.00  0.00    +0.000 C 
ATOM     34  C   UNL     1       1.494  12.778  17.878  0.00  0.00    +0.000 C 
ENDBRANCH  20  32
TORSDOF 4
ENDMDL
MODEL 7
REMARK VINA RESULT:      -6.9      2.226      4.382
REMARK  Name = 
REMARK  8 active torsions:
REMARK  status: ('A' for Active; 'I' for Inactive)
REMARK    1  A    between atoms: C_1  and  C_2
REMARK    2  A    between atoms: C_2  and  C_3
REMARK    3  A    between atoms: C_6  and  C_7
REMARK    4  A    between atoms: C_6  and  C_8
REMARK    5  A    between atoms: C_18  and  C_19
REMARK    6  A    between atoms: C_22  and  C_23
REMARK    7  A    between atoms: C_23  and  O_25
REMARK    8  A    between atoms: N_29  and  C_30
REMARK                            x       y       z     vdW  Elec       q    Type
REMARK                         _______ _______ _______ _____ _____    ______ ____
ROOT
ATOM      1  C   UNL     1       3.148  15.864  20.268  0.00  0.00    +0.000 C 
ATOM      2  C   UNL     1       2.048  14.843  20.634  0.00  0.00    +0.000 C 
ATOM      3  C   UNL     1       2.568  14.061  21.875  0.00  0.00    +0.000 C 
ATOM      4  C   UNL     1       0.860  15.744  21.166  0.00  0.00    +0.000 C 
ATOM      5  C   UNL     1      -0.501  15.058  21.193  0.00  0.00    +0.000 C 
ATOM      6  C   UNL     1      -0.790  14.470  19.814  0.00  0.00    +0.000 C 
ATOM      7  C   UNL     1      -2.256  14.035  19.710  0.00  0.00    +0.000 C 
ATOM      8  C   UNL     1      -0.569  15.480  18.639  0.00  0.00    +0.000 C 
ATOM      9  C   UNL     1       0.241  13.367  19.722  0.00  0.00    +0.000 A 
ATOM     10  C   UNL     1      -0.014  12.014  19.927  0.00  0.00    +0.000 A 
ATOM     11  C   UNL     1       0.969  11.119  19.584  0.00  0.00    +0.000 A 
ATOM     12  C   UNL     1       1.901  11.563  18.652  0.00  0.00    +0.000 A 
ATOM     13  C   UNL     1       2.343  12.896  18.774  0.00  0.00    +0.000 A 
ATOM     14  C   UNL     1       1.585  13.753  19.598  0.00  0.00    +0.000 A 
ATOM     15  C   UNL     1       2.040  10.592  17.482  0.00  0.00    +0.000 C 
ATOM     16  C   UNL     1       2.203   9.080  17.853  0.00  0.00    +0.000 C 
ATOM     17  C   UNL     1       1.734   8.749  19.250  0.00  0.00    +0.000 A 
ATOM     18  C   UNL     1       1.880   7.563  20.080  0.00  0.00    +0.000 A 
ATOM     19  C   UNL     1       1.522   7.979  21.346  0.00  0.00    +0.000 A 
ATOM     20  N   UNL     1       1.082   9.266  21.304  0.00  0.00    +0.000 N 
ATOM     21  C   UNL     1       1.100   9.732  20.017  0.00  0.00    +0.000 A 
ENDROOT
BRANCH  18  22
ATOM     22  C   UNL     1       2.376   6.202  19.799  0.00  0.00    +0.000 A 
ATOM     23  C   UNL     1       3.275   5.922  18.774  0.00  0.00    +0.000 A 
ATOM     24  C   UNL     1       3.691   4.604  18.538  0.00  0.00    +0.000 A 
ATOM     25  C   UNL     1       3.233   3.551  19.314  0.00  0.00    +0.000 A 
ATOM     26  C   UNL     1       2.367   3.820  20.380  0.00  0.00    +0.000 A 
ATOM     27  C   UNL     1       1.933   5.132  20.608  0.00  0.00    +0.000 A 
BRANCH  25  28
ATOM     28  C   UNL     1       3.710   2.183  19.021  0.00  0.00    +0.000 C 
ATOM     29  O   UNL     1       3.091   1.386  18.335  0.00  0.00    +0.000 OA
BRANCH  28  30
ATOM     30  O   UNL     1       4.876   1.854  19.631  0.00  0.00    +0.000 OA
ATOM     31  H   UNL     1       5.476   2.603  19.808  0.00  0.00    +0.000 HD
ENDBRANCH  28  30
ENDBRANCH  25  28
ENDBRANCH  18  22
BRANCH  20  32
ATOM     32  C   UNL     1       0.766  10.069  22.481  0.00  0.00    +0.000 C 
ATOM     33  C   UNL     1      -0.644  10.517  22.822  0.00  0.00    +0.000 C 
ATOM     34  C   UNL     1       0.025   9.495  23.678  0.00  0.00    +0.000 C 
ENDBRANCH  20  32
TORSDOF 4
ENDMDL
MODEL 8
REMARK VINA RESULT:      -6.9      1.362      1.795
REMARK  Name = 
REMARK  8 active torsions:
REMARK  status: ('A' for Active; 'I' for Inactive)
REMARK    1  A    between atoms: C_1  and  C_2
REMARK    2  A    between atoms: C_2  and  C_3
REMARK    3  A    between atoms: C_6  and  C_7
REMARK    4  A    between atoms: C_6  and  C_8
REMARK    5  A    between atoms: C_18  and  C_19
REMARK    6  A    between atoms: C_22  and  C_23
REMARK    7  A    between atoms: C_23  and  O_25
REMARK    8  A    between atoms: N_29  and  C_30
REMARK                            x       y       z     vdW  Elec       q    Type
REMARK                         _______ _______ _______ _____ _____    ______ ____
ROOT
ATOM      1  C   UNL     1      -4.448  13.640  21.993  0.00  0.00    +0.000 C 
ATOM      2  C   UNL     1      -2.995  13.668  21.470  0.00  0.00    +0.000 C 
ATOM      3  C   UNL     1      -3.036  13.093  20.024  0.00  0.00    +0.000 C 
ATOM      4  C   UNL     1      -2.685  15.212  21.304  0.00  0.00    +0.000 C 
ATOM      5  C   UNL     1      -1.204  15.561  21.219  0.00  0.00    +0.000 C 
ATOM      6  C   UNL     1      -0.477  14.948  22.412  0.00  0.00    +0.000 C 
ATOM      7  C   UNL     1       0.943  15.514  22.528  0.00  0.00    +0.000 C 
ATOM      8  C   UNL     1      -1.160  15.246  23.788  0.00  0.00    +0.000 C 
ATOM      9  C   UNL     1      -0.583  13.468  22.116  0.00  0.00    +0.000 A 
ATOM     10  C   UNL     1       0.435  12.683  21.583  0.00  0.00    +0.000 A 
ATOM     11  C   UNL     1       0.262  11.322  21.587  0.00  0.00    +0.000 A 
ATOM     12  C   UNL     1      -0.645  10.824  22.515  0.00  0.00    +0.000 A 
ATOM     13  C   UNL     1      -1.830  11.562  22.712  0.00  0.00    +0.000 A 
ATOM     14  C   UNL     1      -1.856  12.882  22.217  0.00  0.00    +0.000 A 
ATOM     15  C   UNL     1      -0.034   9.716  23.370  0.00  0.00    +0.000 C 
ATOM     16  C   UNL     1       0.743   8.597  22.598  0.00  0.00    +0.000 C 
ATOM     17  C   UNL     1       1.175   9.010  21.211  0.00  0.00    +0.000 A 
ATOM     18  C   UNL     1       1.716   8.263  20.087  0.00  0.00    +0.000 A 
ATOM     19  C   UNL     1       1.609   9.124  19.014  0.00  0.00    +0.000 A 
ATOM     20  N   UNL     1       1.155  10.335  19.434  0.00  0.00    +0.000 N 
ATOM     21  C   UNL     1       0.979  10.331  20.792  0.00  0.00    +0.000 A 
ENDROOT
BRANCH  18  22
ATOM     22  C   UNL     1       2.205   6.877  19.951  0.00  0.00    +0.000 A 
ATOM     23  C   UNL     1       3.170   6.503  19.022  0.00  0.00    +0.000 A 
ATOM     24  C   UNL     1       3.577   5.165  18.922  0.00  0.00    +0.000 A 
ATOM     25  C   UNL     1       3.042   4.184  19.742  0.00  0.00    +0.000 A 
ATOM     26  C   UNL     1       2.107   4.549  20.716  0.00  0.00    +0.000 A 
ATOM     27  C   UNL     1       1.683   5.882  20.807  0.00  0.00    +0.000 A 
BRANCH  25  28
ATOM     28  C   UNL     1       3.513   2.791  19.594  0.00  0.00    +0.000 C 
ATOM     29  O   UNL     1       4.628   2.418  19.924  0.00  0.00    +0.000 OA
BRANCH  28  30
ATOM     30  O   UNL     1       2.624   1.959  18.999  0.00  0.00    +0.000 OA
ATOM     31  H   UNL     1       3.013   1.170  18.578  0.00  0.00    +0.000 HD
ENDBRANCH  28  30
ENDBRANCH  25  28
ENDBRANCH  18  22
BRANCH  20  32
ATOM     32  C   UNL     1       0.785  11.432  18.546  0.00  0.00    +0.000 C 
ATOM     33  C   UNL     1       1.173  12.877  18.808  0.00  0.00    +0.000 C 
ATOM     34  C   UNL     1       1.804  12.146  17.672  0.00  0.00    +0.000 C 
ENDBRANCH  20  32
TORSDOF 4
ENDMDL
MODEL 9
REMARK VINA RESULT:      -6.8      2.693      4.629
REMARK  Name = 
REMARK  8 active torsions:
REMARK  status: ('A' for Active; 'I' for Inactive)
REMARK    1  A    between atoms: C_1  and  C_2
REMARK    2  A    between atoms: C_2  and  C_3
REMARK    3  A    between atoms: C_6  and  C_7
REMARK    4  A    between atoms: C_6  and  C_8
REMARK    5  A    between atoms: C_18  and  C_19
REMARK    6  A    between atoms: C_22  and  C_23
REMARK    7  A    between atoms: C_23  and  O_25
REMARK    8  A    between atoms: N_29  and  C_30
REMARK                            x       y       z     vdW  Elec       q    Type
REMARK                         _______ _______ _______ _____ _____    ______ ____
ROOT
ATOM      1  C   UNL     1       3.096  18.255  21.701  0.00  0.00    +0.000 C 
ATOM      2  C   UNL     1       1.843  17.380  21.481  0.00  0.00    +0.000 C 
ATOM      3  C   UNL     1       1.778  16.392  22.682  0.00  0.00    +0.000 C 
ATOM      4  C   UNL     1       0.639  18.385  21.692  0.00  0.00    +0.000 C 
ATOM      5  C   UNL     1      -0.694  17.917  21.121  0.00  0.00    +0.000 C 
ATOM      6  C   UNL     1      -0.503  17.541  19.654  0.00  0.00    +0.000 C 
ATOM      7  C   UNL     1      -1.859  17.350  18.966  0.00  0.00    +0.000 C 
ATOM      8  C   UNL     1       0.242  18.631  18.815  0.00  0.00    +0.000 C 
ATOM      9  C   UNL     1       0.371  16.310  19.759  0.00  0.00    +0.000 A 
ATOM     10  C   UNL     1      -0.076  14.998  19.638  0.00  0.00    +0.000 A 
ATOM     11  C   UNL     1       0.868  14.008  19.528  0.00  0.00    +0.000 A 
ATOM     12  C   UNL     1       2.121  14.406  19.074  0.00  0.00    +0.000 A 
ATOM     13  C   UNL     1       2.617  15.634  19.560  0.00  0.00    +0.000 A 
ATOM     14  C   UNL     1       1.696  16.498  20.186  0.00  0.00    +0.000 A 
ATOM     15  C   UNL     1       2.590  13.565  17.890  0.00  0.00    +0.000 C 
ATOM     16  C   UNL     1       2.449  12.014  18.045  0.00  0.00    +0.000 C 
ATOM     17  C   UNL     1       1.461  11.602  19.109  0.00  0.00    +0.000 A 
ATOM     18  C   UNL     1       1.165  10.321  19.733  0.00  0.00    +0.000 A 
ATOM     19  C   UNL     1       0.403  10.641  20.838  0.00  0.00    +0.000 A 
ATOM     20  N   UNL     1       0.142  11.977  20.851  0.00  0.00    +0.000 N 
ATOM     21  C   UNL     1       0.688  12.577  19.748  0.00  0.00    +0.000 A 
ENDROOT
BRANCH  18  22
ATOM     22  C   UNL     1       1.591   8.942  19.431  0.00  0.00    +0.000 A 
ATOM     23  C   UNL     1       2.012   8.539  18.168  0.00  0.00    +0.000 A 
ATOM     24  C   UNL     1       2.380   7.207  17.934  0.00  0.00    +0.000 A 
ATOM     25  C   UNL     1       2.347   6.260  18.946  0.00  0.00    +0.000 A 
ATOM     26  C   UNL     1       1.975   6.656  20.235  0.00  0.00    +0.000 A 
ATOM     27  C   UNL     1       1.587   7.982  20.469  0.00  0.00    +0.000 A 
BRANCH  25  28
ATOM     28  C   UNL     1       2.752   4.872  18.641  0.00  0.00    +0.000 C 
ATOM     29  O   UNL     1       2.661   3.953  19.440  0.00  0.00    +0.000 OA
BRANCH  28  30
ATOM     30  O   UNL     1       3.298   4.704  17.411  0.00  0.00    +0.000 OA
ATOM     31  H   UNL     1       3.996   4.024  17.358  0.00  0.00    +0.000 HD
ENDBRANCH  28  30
ENDBRANCH  25  28
ENDBRANCH  18  22
BRANCH  20  32
ATOM     32  C   UNL     1      -0.510  12.680  21.951  0.00  0.00    +0.000 C 
ATOM     33  C   UNL     1      -2.009  12.911  22.013  0.00  0.00    +0.000 C 
ATOM     34  C   UNL     1      -1.377  11.961  22.972  0.00  0.00    +0.000 C 
ENDBRANCH  20  32
TORSDOF 4
ENDMDL
