MODEL 1
REMARK VINA RESULT:      -7.1      0.000      0.000
REMARK  Name = 
REMARK  5 active torsions:
REMARK  status: ('A' for Active; 'I' for Inactive)
REMARK    1  A    between atoms: C_1  and  O_2
REMARK    2  A    between atoms: O_2  and  C_3
REMARK    3  A    between atoms: N_5  and  C_6
REMARK    4  A    between atoms: C_6  and  C_7
REMARK    5  A    between atoms: C_11  and  N_12
REMARK                            x       y       z     vdW  Elec       q    Type
REMARK                         _______ _______ _______ _____ _____    ______ ____
ROOT
ATOM      1  C   UNL     1       4.491   5.606  19.177  0.00  0.00    +0.000 C 
ENDROOT
BRANCH   1   4
ATOM      2  C   UNL     1       6.928   5.755  16.724  0.00  0.00    +0.000 A 
ATOM      3  N   UNL     1       5.666   5.784  17.008  0.00  0.00    +0.000 NA
ATOM      4  N   UNL     1       5.689   5.662  18.372  0.00  0.00    +0.000 N 
ATOM      5  C   UNL     1       6.977   5.567  18.843  0.00  0.00    +0.000 A 
ATOM      6  O   UNL     1       7.357   5.432  19.994  0.00  0.00    +0.000 OA
ATOM      7  O   UNL     1       7.795   5.629  17.754  0.00  0.00    +0.000 OA
BRANCH   2   9
ATOM      8  C   UNL     1       7.065   4.861  14.564  0.00  0.00    +0.000 C 
ATOM      9  O   UNL     1       7.520   5.822  15.517  0.00  0.00    +0.000 OA
ENDBRANCH   2   9
ENDBRANCH   1   4
BRANCH   1  10
ATOM     10  C   UNL     1       3.616   4.429  18.826  0.00  0.00    +0.000 A 
ATOM     11  C   UNL     1       2.260   4.616  18.528  0.00  0.00    +0.000 A 
ATOM     12  C   UNL     1       1.456   3.526  18.199  0.00  0.00    +0.000 A 
ATOM     13  C   UNL     1       1.996   2.239  18.186  0.00  0.00    +0.000 A 
ATOM     14  C   UNL     1       3.330   2.021  18.537  0.00  0.00    +0.000 A 
ATOM     15  C   UNL     1       4.143   3.127  18.807  0.00  0.00    +0.000 A 
BRANCH  14  16
ATOM     16  N   UNL     1       3.897   0.748  18.394  0.00  0.00    +0.000 N 
ATOM     17  H   UNL     1       3.525   0.226  17.607  0.00  0.00    +0.000 HD
ATOM     18  H   UNL     1       3.897   0.203  19.251  0.00  0.00    +0.000 HD
ENDBRANCH  14  16
ENDBRANCH   1  10
TORSDOF 4
ENDMDL
MODEL 2
REMARK VINA RESULT:      -6.9      1.266      1.709
REMARK  Name = 
REMARK  5 active torsions:
REMARK  status: ('A' for Active; 'I' for Inactive)
REMARK    1  A    between atoms: C_1  and  O_2
REMARK    2  A    between atoms: O_2  and  C_3
REMARK    3  A    between atoms: N_5  and  C_6
REMARK    4  A    between atoms: C_6  and  C_7
REMARK    5  A    between atoms: C_11  and  N_12
REMARK                            x       y       z     vdW  Elec       q    Type
REMARK                         _______ _______ _______ _____ _____    ______ ____
ROOT
ATOM      1  C   UNL     1       4.615   5.665  17.368  0.00  0.00    +0.000 C 
ENDROOT
BRANCH   1   4
ATOM      2  C   UNL     1       6.602   4.822  14.663  0.00  0.00    +0.000 A 
ATOM      3  N   UNL     1       5.434   5.184  15.084  0.00  0.00    +0.000 NA
ATOM      4  N   UNL     1       5.654   5.306  16.431  0.00  0.00    +0.000 N 
ATOM      5  C   UNL     1       6.957   5.009  16.752  0.00  0.00    +0.000 A 
ATOM      6  O   UNL     1       7.485   5.000  17.851  0.00  0.00    +0.000 OA
ATOM      7  O   UNL     1       7.583   4.690  15.584  0.00  0.00    +0.000 OA
BRANCH   2   9
ATOM      8  C   UNL     1       6.206   3.552  12.735  0.00  0.00    +0.000 C 
ATOM      9  O   UNL     1       6.992   4.538  13.406  0.00  0.00    +0.000 OA
ENDBRANCH   2   9
ENDBRANCH   1   4
BRANCH   1  10
ATOM     10  C   UNL     1       3.698   4.510  17.683  0.00  0.00    +0.000 A 
ATOM     11  C   UNL     1       2.315   4.706  17.782  0.00  0.00    +0.000 A 
ATOM     12  C   UNL     1       1.471   3.634  18.067  0.00  0.00    +0.000 A 
ATOM     13  C   UNL     1       2.006   2.362  18.279  0.00  0.00    +0.000 A 
ATOM     14  C   UNL     1       3.386   2.153  18.244  0.00  0.00    +0.000 A 
ATOM     15  C   UNL     1       4.219   3.222  17.897  0.00  0.00    +0.000 A 
BRANCH  14  16
ATOM     16  N   UNL     1       3.904   0.854  18.325  0.00  0.00    +0.000 N 
ATOM     17  H   UNL     1       4.634   0.752  19.025  0.00  0.00    +0.000 HD
ATOM     18  H   UNL     1       4.178   0.469  17.426  0.00  0.00    +0.000 HD
ENDBRANCH  14  16
ENDBRANCH   1  10
TORSDOF 4
ENDMDL
MODEL 3
REMARK VINA RESULT:      -6.8      1.782      2.390
REMARK  Name = 
REMARK  5 active torsions:
REMARK  status: ('A' for Active; 'I' for Inactive)
REMARK    1  A    between atoms: C_1  and  O_2
REMARK    2  A    between atoms: O_2  and  C_3
REMARK    3  A    between atoms: N_5  and  C_6
REMARK    4  A    between atoms: C_6  and  C_7
REMARK    5  A    between atoms: C_11  and  N_12
REMARK                            x       y       z     vdW  Elec       q    Type
REMARK                         _______ _______ _______ _____ _____    ______ ____
ROOT
ATOM      1  C   UNL     1       4.534   5.420  16.886  0.00  0.00    +0.000 C 
ENDROOT
BRANCH   1   4
ATOM      2  C   UNL     1       6.428   4.346  14.196  0.00  0.00    +0.000 A 
ATOM      3  N   UNL     1       5.253   4.448  14.728  0.00  0.00    +0.000 NA
ATOM      4  N   UNL     1       5.539   5.098  15.900  0.00  0.00    +0.000 N 
ATOM      5  C   UNL     1       6.884   5.356  16.011  0.00  0.00    +0.000 A 
ATOM      6  O   UNL     1       7.479   5.900  16.926  0.00  0.00    +0.000 OA
ATOM      7  O   UNL     1       7.471   4.860  14.886  0.00  0.00    +0.000 OA
BRANCH   2   9
ATOM      8  C   UNL     1       5.684   3.295  12.239  0.00  0.00    +0.000 C 
ATOM      9  O   UNL     1       6.774   3.775  13.027  0.00  0.00    +0.000 OA
ENDBRANCH   2   9
ENDBRANCH   1   4
BRANCH   1  10
ATOM     10  C   UNL     1       4.007   4.196  17.592  0.00  0.00    +0.000 A 
ATOM     11  C   UNL     1       2.774   3.641  17.229  0.00  0.00    +0.000 A 
ATOM     12  C   UNL     1       2.293   2.506  17.881  0.00  0.00    +0.000 A 
ATOM     13  C   UNL     1       3.032   1.932  18.917  0.00  0.00    +0.000 A 
ATOM     14  C   UNL     1       4.235   2.502  19.337  0.00  0.00    +0.000 A 
ATOM     15  C   UNL     1       4.738   3.604  18.636  0.00  0.00    +0.000 A 
BRANCH  14  16
ATOM     16  N   UNL     1       5.033   1.846  20.283  0.00  0.00    +0.000 N 
ATOM     17  H   UNL     1       5.420   2.468  20.987  0.00  0.00    +0.000 HD
ATOM     18  H   UNL     1       5.740   1.244  19.873  0.00  0.00    +0.000 HD
ENDBRANCH  14  16
ENDBRANCH   1  10
TORSDOF 4
ENDMDL
MODEL 4
REMARK VINA RESULT:      -6.8      1.648      2.327
REMARK  Name = 
REMARK  5 active torsions:
REMARK  status: ('A' for Active; 'I' for Inactive)
REMARK    1  A    between atoms: C_1  and  O_2
REMARK    2  A    between atoms: O_2  and  C_3
REMARK    3  A    between atoms: N_5  and  C_6
REMARK    4  A    between atoms: C_6  and  C_7
REMARK    5  A    between atoms: C_11  and  N_12
REMARK                            x       y       z     vdW  Elec       q    Type
REMARK                         _______ _______ _______ _____ _____    ______ ____
ROOT
ATOM      1  C   UNL     1       5.854   4.303  17.848  0.00  0.00    +0.000 C 
ENDROOT
BRANCH   1   4
ATOM      2  C   UNL     1       6.642   4.402  14.479  0.00  0.00    +0.000 A 
ATOM      3  N   UNL     1       6.010   3.797  15.432  0.00  0.00    +0.000 NA
ATOM      4  N   UNL     1       6.311   4.590  16.508  0.00  0.00    +0.000 N 
ATOM      5  C   UNL     1       7.114   5.643  16.142  0.00  0.00    +0.000 A 
ATOM      6  O   UNL     1       7.579   6.523  16.846  0.00  0.00    +0.000 OA
ATOM      7  O   UNL     1       7.332   5.519  14.802  0.00  0.00    +0.000 OA
BRANCH   2   9
ATOM      8  C   UNL     1       5.586   3.380  12.655  0.00  0.00    +0.000 C 
ATOM      9  O   UNL     1       6.724   4.066  13.178  0.00  0.00    +0.000 OA
ENDBRANCH   2   9
ENDBRANCH   1   4
BRANCH   1  10
ATOM     10  C   UNL     1       4.353   4.188  17.933  0.00  0.00    +0.000 A 
ATOM     11  C   UNL     1       3.543   5.320  17.776  0.00  0.00    +0.000 A 
ATOM     12  C   UNL     1       2.156   5.207  17.850  0.00  0.00    +0.000 A 
ATOM     13  C   UNL     1       1.569   3.967  18.105  0.00  0.00    +0.000 A 
ATOM     14  C   UNL     1       2.357   2.836  18.325  0.00  0.00    +0.000 A 
ATOM     15  C   UNL     1       3.745   2.947  18.188  0.00  0.00    +0.000 A 
BRANCH  14  16
ATOM     16  N   UNL     1       1.761   1.574  18.447  0.00  0.00    +0.000 N 
ATOM     17  H   UNL     1       1.852   1.001  17.613  0.00  0.00    +0.000 HD
ATOM     18  H   UNL     1       0.804   1.607  18.786  0.00  0.00    +0.000 HD
ENDBRANCH  14  16
ENDBRANCH   1  10
TORSDOF 4
ENDMDL
MODEL 5
REMARK VINA RESULT:      -6.7      1.648      1.752
REMARK  Name = 
REMARK  5 active torsions:
REMARK  status: ('A' for Active; 'I' for Inactive)
REMARK    1  A    between atoms: C_1  and  O_2
REMARK    2  A    between atoms: O_2  and  C_3
REMARK    3  A    between atoms: N_5  and  C_6
REMARK    4  A    between atoms: C_6  and  C_7
REMARK    5  A    between atoms: C_11  and  N_12
REMARK                            x       y       z     vdW  Elec       q    Type
REMARK                         _______ _______ _______ _____ _____    ______ ____
ROOT
ATOM      1  C   UNL     1       3.871   6.054  18.476  0.00  0.00    +0.000 C 
ENDROOT
BRANCH   1   4
ATOM      2  C   UNL     1       6.516   4.935  16.545  0.00  0.00    +0.000 A 
ATOM      3  N   UNL     1       5.316   5.417  16.572  0.00  0.00    +0.000 NA
ATOM      4  N   UNL     1       5.111   5.568  17.918  0.00  0.00    +0.000 N 
ATOM      5  C   UNL     1       6.211   5.165  18.638  0.00  0.00    +0.000 A 
ATOM      6  O   UNL     1       6.362   5.147  19.847  0.00  0.00    +0.000 OA
ATOM      7  O   UNL     1       7.138   4.748  17.730  0.00  0.00    +0.000 OA
BRANCH   2   9
ATOM      8  C   UNL     1       6.501   4.162  14.334  0.00  0.00    +0.000 C 
ATOM      9  O   UNL     1       7.251   4.571  15.478  0.00  0.00    +0.000 OA
ENDBRANCH   2   9
ENDBRANCH   1   4
BRANCH   1  10
ATOM     10  C   UNL     1       2.954   4.936  18.904  0.00  0.00    +0.000 A 
ATOM     11  C   UNL     1       2.140   4.286  17.968  0.00  0.00    +0.000 A 
ATOM     12  C   UNL     1       1.298   3.250  18.367  0.00  0.00    +0.000 A 
ATOM     13  C   UNL     1       1.246   2.871  19.710  0.00  0.00    +0.000 A 
ATOM     14  C   UNL     1       2.004   3.544  20.671  0.00  0.00    +0.000 A 
ATOM     15  C   UNL     1       2.890   4.541  20.251  0.00  0.00    +0.000 A 
BRANCH  14  16
ATOM     16  N   UNL     1       2.047   3.072  21.990  0.00  0.00    +0.000 N 
ATOM     17  H   UNL     1       1.818   2.087  22.075  0.00  0.00    +0.000 HD
ATOM     18  H   UNL     1       1.524   3.646  22.644  0.00  0.00    +0.000 HD
ENDBRANCH  14  16
ENDBRANCH   1  10
TORSDOF 4
ENDMDL
MODEL 6
REMARK VINA RESULT:      -6.7      2.051      2.694
REMARK  Name = 
REMARK  5 active torsions:
REMARK  status: ('A' for Active; 'I' for Inactive)
REMARK    1  A    between atoms: C_1  and  O_2
REMARK    2  A    between atoms: O_2  and  C_3
REMARK    3  A    between atoms: N_5  and  C_6
REMARK    4  A    between atoms: C_6  and  C_7
REMARK    5  A    between atoms: C_11  and  N_12
REMARK                            x       y       z     vdW  Elec       q    Type
REMARK                         _______ _______ _______ _____ _____    ______ ____
ROOT
ATOM      1  C   UNL     1       6.151   4.953  16.496  0.00  0.00    +0.000 C 
ENDROOT
BRANCH   1   4
ATOM      2  C   UNL     1       7.641   7.862  17.637  0.00  0.00    +0.000 A 
ATOM      3  N   UNL     1       6.881   7.303  16.752  0.00  0.00    +0.000 NA
ATOM      4  N   UNL     1       6.858   6.005  17.190  0.00  0.00    +0.000 N 
ATOM      5  C   UNL     1       7.613   5.850  18.328  0.00  0.00    +0.000 A 
ATOM      6  O   UNL     1       7.822   4.833  18.967  0.00  0.00    +0.000 OA
ATOM      7  O   UNL     1       8.129   7.076  18.623  0.00  0.00    +0.000 OA
BRANCH   2   9
ATOM      8  C   UNL     1       8.870   9.458  18.833  0.00  0.00    +0.000 C 
ATOM      9  O   UNL     1       8.038   9.146  17.714  0.00  0.00    +0.000 OA
ENDBRANCH   2   9
ENDBRANCH   1   4
BRANCH   1  10
ATOM     10  C   UNL     1       4.767   4.728  17.049  0.00  0.00    +0.000 A 
ATOM     11  C   UNL     1       3.981   5.812  17.462  0.00  0.00    +0.000 A 
ATOM     12  C   UNL     1       2.700   5.600  17.967  0.00  0.00    +0.000 A 
ATOM     13  C   UNL     1       2.202   4.301  18.084  0.00  0.00    +0.000 A 
ATOM     14  C   UNL     1       2.989   3.201  17.735  0.00  0.00    +0.000 A 
ATOM     15  C   UNL     1       4.249   3.428  17.172  0.00  0.00    +0.000 A 
BRANCH  14  16
ATOM     16  N   UNL     1       2.436   1.913  17.729  0.00  0.00    +0.000 N 
ATOM     17  H   UNL     1       1.438   1.902  17.543  0.00  0.00    +0.000 HD
ATOM     18  H   UNL     1       2.681   1.362  18.546  0.00  0.00    +0.000 HD
ENDBRANCH  14  16
ENDBRANCH   1  10
TORSDOF 4
ENDMDL
MODEL 7
REMARK VINA RESULT:      -6.6      1.574      1.784
REMARK  Name = 
REMARK  5 active torsions:
REMARK  status: ('A' for Active; 'I' for Inactive)
REMARK    1  A    between atoms: C_1  and  O_2
REMARK    2  A    between atoms: O_2  and  C_3
REMARK    3  A    between atoms: N_5  and  C_6
REMARK    4  A    between atoms: C_6  and  C_7
REMARK    5  A    between atoms: C_11  and  N_12
REMARK                            x       y       z     vdW  Elec       q    Type
REMARK                         _______ _______ _______ _____ _____    ______ ____
ROOT
ATOM      1  C   UNL     1       3.863   5.917  17.898  0.00  0.00    +0.000 C 
ENDROOT
BRANCH   1   4
ATOM      2  C   UNL     1       6.797   5.393  16.139  0.00  0.00    +0.000 A 
ATOM      3  N   UNL     1       5.562   5.775  16.106  0.00  0.00    +0.000 NA
ATOM      4  N   UNL     1       5.197   5.640  17.420  0.00  0.00    +0.000 N 
ATOM      5  C   UNL     1       6.245   5.181  18.183  0.00  0.00    +0.000 A 
ATOM      6  O   UNL     1       6.263   4.935  19.377  0.00  0.00    +0.000 OA
ATOM      7  O   UNL     1       7.301   5.019  17.337  0.00  0.00    +0.000 OA
BRANCH   2   9
ATOM      8  C   UNL     1       7.132   4.832  13.890  0.00  0.00    +0.000 C 
ATOM      9  O   UNL     1       7.677   5.301  15.124  0.00  0.00    +0.000 OA
ENDBRANCH   2   9
ENDBRANCH   1   4
BRANCH   1  10
ATOM     10  C   UNL     1       3.072   4.661  18.161  0.00  0.00    +0.000 A 
ATOM     11  C   UNL     1       3.157   3.571  17.284  0.00  0.00    +0.000 A 
ATOM     12  C   UNL     1       2.428   2.410  17.534  0.00  0.00    +0.000 A 
ATOM     13  C   UNL     1       1.591   2.337  18.649  0.00  0.00    +0.000 A 
ATOM     14  C   UNL     1       1.445   3.431  19.504  0.00  0.00    +0.000 A 
ATOM     15  C   UNL     1       2.226   4.569  19.279  0.00  0.00    +0.000 A 
BRANCH  14  16
ATOM     16  N   UNL     1       0.710   3.305  20.690  0.00  0.00    +0.000 N 
ATOM     17  H   UNL     1      -0.242   3.651  20.615  0.00  0.00    +0.000 HD
ATOM     18  H   UNL     1       1.188   3.673  21.507  0.00  0.00    +0.000 HD
ENDBRANCH  14  16
ENDBRANCH   1  10
TORSDOF 4
ENDMDL
MODEL 8
REMARK VINA RESULT:      -6.6      1.233      1.423
REMARK  Name = 
REMARK  5 active torsions:
REMARK  status: ('A' for Active; 'I' for Inactive)
REMARK    1  A    between atoms: C_1  and  O_2
REMARK    2  A    between atoms: O_2  and  C_3
REMARK    3  A    between atoms: N_5  and  C_6
REMARK    4  A    between atoms: C_6  and  C_7
REMARK    5  A    between atoms: C_11  and  N_12
REMARK                            x       y       z     vdW  Elec       q    Type
REMARK                         _______ _______ _______ _____ _____    ______ ____
ROOT
ATOM      1  C   UNL     1       5.630   5.325  19.168  0.00  0.00    +0.000 C 
ENDROOT
BRANCH   1   4
ATOM      2  C   UNL     1       6.459   5.230  15.809  0.00  0.00    +0.000 A 
ATOM      3  N   UNL     1       5.577   5.537  16.704  0.00  0.00    +0.000 NA
ATOM      4  N   UNL     1       6.230   5.198  17.860  0.00  0.00    +0.000 N 
ATOM      5  C   UNL     1       7.484   4.701  17.597  0.00  0.00    +0.000 A 
ATOM      6  O   UNL     1       8.319   4.291  18.386  0.00  0.00    +0.000 OA
ATOM      7  O   UNL     1       7.635   4.722  16.243  0.00  0.00    +0.000 OA
BRANCH   2   9
ATOM      8  C   UNL     1       6.338   4.090  13.766  0.00  0.00    +0.000 C 
ATOM      9  O   UNL     1       6.370   5.333  14.470  0.00  0.00    +0.000 OA
ENDBRANCH   2   9
ENDBRANCH   1   4
BRANCH   1  10
ATOM     10  C   UNL     1       4.266   4.685  19.241  0.00  0.00    +0.000 A 
ATOM     11  C   UNL     1       3.161   5.418  19.690  0.00  0.00    +0.000 A 
ATOM     12  C   UNL     1       1.901   4.824  19.751  0.00  0.00    +0.000 A 
ATOM     13  C   UNL     1       1.742   3.486  19.385  0.00  0.00    +0.000 A 
ATOM     14  C   UNL     1       2.840   2.719  18.990  0.00  0.00    +0.000 A 
ATOM     15  C   UNL     1       4.087   3.340  18.875  0.00  0.00    +0.000 A 
BRANCH  14  16
ATOM     16  N   UNL     1       2.651   1.421  18.498  0.00  0.00    +0.000 N 
ATOM     17  H   UNL     1       1.691   1.223  18.235  0.00  0.00    +0.000 HD
ATOM     18  H   UNL     1       3.042   0.698  19.096  0.00  0.00    +0.000 HD
ENDBRANCH  14  16
ENDBRANCH   1  10
TORSDOF 4
ENDMDL
MODEL 9
REMARK VINA RESULT:      -6.5      1.452      1.581
REMARK  Name = 
REMARK  5 active torsions:
REMARK  status: ('A' for Active; 'I' for Inactive)
REMARK    1  A    between atoms: C_1  and  O_2
REMARK    2  A    between atoms: O_2  and  C_3
REMARK    3  A    between atoms: N_5  and  C_6
REMARK    4  A    between atoms: C_6  and  C_7
REMARK    5  A    between atoms: C_11  and  N_12
REMARK                            x       y       z     vdW  Elec       q    Type
REMARK                         _______ _______ _______ _____ _____    ______ ____
ROOT
ATOM      1  C   UNL     1       3.821   6.105  18.341  0.00  0.00    +0.000 C 
ENDROOT
BRANCH   1   4
ATOM      2  C   UNL     1       6.318   4.671  16.421  0.00  0.00    +0.000 A 
ATOM      3  N   UNL     1       5.154   5.235  16.448  0.00  0.00    +0.000 NA
ATOM      4  N   UNL     1       5.007   5.496  17.785  0.00  0.00    +0.000 N 
ATOM      5  C   UNL     1       6.102   5.071  18.499  0.00  0.00    +0.000 A 
ATOM      6  O   UNL     1       6.293   5.131  19.702  0.00  0.00    +0.000 OA
ATOM      7  O   UNL     1       6.967   4.527  17.598  0.00  0.00    +0.000 OA
BRANCH   2   9
ATOM      8  C   UNL     1       6.227   4.060  14.161  0.00  0.00    +0.000 C 
ATOM      9  O   UNL     1       6.990   4.181  15.362  0.00  0.00    +0.000 OA
ENDBRANCH   2   9
ENDBRANCH   1   4
BRANCH   1  10
ATOM     10  C   UNL     1       2.883   5.092  18.947  0.00  0.00    +0.000 A 
ATOM     11  C   UNL     1       2.102   5.424  20.062  0.00  0.00    +0.000 A 
ATOM     12  C   UNL     1       1.232   4.485  20.615  0.00  0.00    +0.000 A 
ATOM     13  C   UNL     1       1.153   3.202  20.072  0.00  0.00    +0.000 A 
ATOM     14  C   UNL     1       1.964   2.830  18.998  0.00  0.00    +0.000 A 
ATOM     15  C   UNL     1       2.789   3.796  18.412  0.00  0.00    +0.000 A 
BRANCH  14  16
ATOM     16  N   UNL     1       1.783   1.588  18.376  0.00  0.00    +0.000 N 
ATOM     17  H   UNL     1       1.259   0.925  18.939  0.00  0.00    +0.000 HD
ATOM     18  H   UNL     1       2.641   1.187  18.011  0.00  0.00    +0.000 HD
ENDBRANCH  14  16
ENDBRANCH   1  10
TORSDOF 4
ENDMDL
