MODEL 1
REMARK VINA RESULT:      -8.1      0.000      0.000
REMARK  Name = 
REMARK  7 active torsions:
REMARK  status: ('A' for Active; 'I' for Inactive)
REMARK    1  A    between atoms: C_1  and  C_2
REMARK    2  A    between atoms: C_3  and  C_4
REMARK    3  A    between atoms: N_6  and  C_7
REMARK    4  A    between atoms: C_7  and  C_8
REMARK    5  A    between atoms: C_7  and  C_15
REMARK    6  A    between atoms: C_8  and  N_9
REMARK    7  A    between atoms: N_23  and  C_24
REMARK                            x       y       z     vdW  Elec       q    Type
REMARK                         _______ _______ _______ _____ _____    ______ ____
ROOT
ATOM      1  C   UNL     1       2.676   6.261  19.022  0.00  0.00    +0.000 C 
ENDROOT
BRANCH   1   2
ATOM      2  C   UNL     1       2.112   4.832  19.018  0.00  0.00    +0.000 A 
ATOM      3  C   UNL     1       1.351   4.318  20.084  0.00  0.00    +0.000 A 
ATOM      4  C   UNL     1       0.929   2.979  20.089  0.00  0.00    +0.000 A 
ATOM      5  C   UNL     1       1.235   2.142  19.019  0.00  0.00    +0.000 A 
ATOM      6  C   UNL     1       1.937   2.649  17.931  0.00  0.00    +0.000 A 
ATOM      7  C   UNL     1       2.358   3.982  17.924  0.00  0.00    +0.000 A 
ENDBRANCH   1   2
BRANCH   1  10
ATOM      8  C   UNL     1       1.605   8.394  19.820  0.00  0.00    +0.000 C 
ATOM      9  O   UNL     1       1.736   8.959  18.732  0.00  0.00    +0.000 OA
ATOM     10  N   UNL     1       2.015   7.096  20.039  0.00  0.00    +0.000 N 
ATOM     11  H   UNL     1       2.181   6.831  21.004  0.00  0.00    +0.000 HD
BRANCH   8  14
ATOM     12  C   UNL     1      -0.814  10.662  20.008  0.00  0.00    +0.000 C 
ATOM     13  C   UNL     1       0.022  10.011  21.051  0.00  0.00    +0.000 A 
ATOM     14  C   UNL     1       1.055   9.077  20.996  0.00  0.00    +0.000 A 
ATOM     15  C   UNL     1       1.471   8.973  22.348  0.00  0.00    +0.000 A 
ATOM     16  N   UNL     1       0.769   9.745  23.180  0.00  0.00    +0.000 NA
ATOM     17  N   UNL     1      -0.144  10.316  22.381  0.00  0.00    +0.000 N 
ATOM     18  C   UNL     1      -1.167  11.160  22.956  0.00  0.00    +0.000 C 
ENDBRANCH   8  14
ENDBRANCH   1  10
BRANCH   1  19
ATOM     19  C   UNL     1       4.215   6.198  19.258  0.00  0.00    +0.000 C 
BRANCH  19  20
ATOM     20  N   UNL     1       5.040   5.934  18.078  0.00  0.00    +0.000 N 
ATOM     21  C   UNL     1       4.930   6.684  16.850  0.00  0.00    +0.000 C 
ATOM     22  C   UNL     1       5.558   5.726  15.856  0.00  0.00    +0.000 C 
ATOM     23  C   UNL     1       6.730   5.164  16.650  0.00  0.00    +0.000 C 
ATOM     24  C   UNL     1       6.138   5.088  18.034  0.00  0.00    +0.000 C 
ATOM     25  O   UNL     1       6.583   4.439  18.981  0.00  0.00    +0.000 OA
ENDBRANCH  19  20
ENDBRANCH   1  19
TORSDOF 5
ENDMDL
MODEL 2
REMARK VINA RESULT:      -8.0      1.201      1.724
REMARK  Name = 
REMARK  7 active torsions:
REMARK  status: ('A' for Active; 'I' for Inactive)
REMARK    1  A    between atoms: C_1  and  C_2
REMARK    2  A    between atoms: C_3  and  C_4
REMARK    3  A    between atoms: N_6  and  C_7
REMARK    4  A    between atoms: C_7  and  C_8
REMARK    5  A    between atoms: C_7  and  C_15
REMARK    6  A    between atoms: C_8  and  N_9
REMARK    7  A    between atoms: N_23  and  C_24
REMARK                            x       y       z     vdW  Elec       q    Type
REMARK                         _______ _______ _______ _____ _____    ______ ____
ROOT
ATOM      1  C   UNL     1       2.904   6.113  18.504  0.00  0.00    +0.000 C 
ENDROOT
BRANCH   1   2
ATOM      2  C   UNL     1       2.227   4.763  18.785  0.00  0.00    +0.000 A 
ATOM      3  C   UNL     1       1.529   4.503  19.979  0.00  0.00    +0.000 A 
ATOM      4  C   UNL     1       1.002   3.229  20.244  0.00  0.00    +0.000 A 
ATOM      5  C   UNL     1       1.137   2.205  19.310  0.00  0.00    +0.000 A 
ATOM      6  C   UNL     1       1.774   2.460  18.101  0.00  0.00    +0.000 A 
ATOM      7  C   UNL     1       2.300   3.728  17.835  0.00  0.00    +0.000 A 
ENDBRANCH   1   2
BRANCH   1  10
ATOM      8  C   UNL     1       1.986   8.453  18.373  0.00  0.00    +0.000 C 
ATOM      9  O   UNL     1       2.542   8.695  17.300  0.00  0.00    +0.000 OA
ATOM     10  N   UNL     1       2.095   7.235  19.010  0.00  0.00    +0.000 N 
ATOM     11  H   UNL     1       1.904   7.227  20.006  0.00  0.00    +0.000 HD
BRANCH   8  14
ATOM     12  C   UNL     1       1.143   8.570  21.583  0.00  0.00    +0.000 C 
ATOM     13  C   UNL     1       0.884   9.500  20.453  0.00  0.00    +0.000 A 
ATOM     14  C   UNL     1       1.207   9.463  19.098  0.00  0.00    +0.000 A 
ATOM     15  C   UNL     1       0.567  10.617  18.580  0.00  0.00    +0.000 A 
ATOM     16  N   UNL     1      -0.081  11.325  19.507  0.00  0.00    +0.000 NA
ATOM     17  N   UNL     1       0.178  10.663  20.643  0.00  0.00    +0.000 N 
ATOM     18  C   UNL     1      -0.285  11.201  21.903  0.00  0.00    +0.000 C 
ENDBRANCH   8  14
ENDBRANCH   1  10
BRANCH   1  19
ATOM     19  C   UNL     1       4.326   6.109  19.141  0.00  0.00    +0.000 C 
BRANCH  19  20
ATOM     20  N   UNL     1       5.405   5.574  18.312  0.00  0.00    +0.000 N 
ATOM     21  C   UNL     1       5.348   5.523  16.870  0.00  0.00    +0.000 C 
ATOM     22  C   UNL     1       6.385   4.458  16.565  0.00  0.00    +0.000 C 
ATOM     23  C   UNL     1       7.484   4.786  17.568  0.00  0.00    +0.000 C 
ATOM     24  C   UNL     1       6.672   5.228  18.760  0.00  0.00    +0.000 C 
ATOM     25  O   UNL     1       7.075   5.327  19.918  0.00  0.00    +0.000 OA
ENDBRANCH  19  20
ENDBRANCH   1  19
TORSDOF 5
ENDMDL
MODEL 3
REMARK VINA RESULT:      -7.9      4.094      6.454
REMARK  Name = 
REMARK  7 active torsions:
REMARK  status: ('A' for Active; 'I' for Inactive)
REMARK    1  A    between atoms: C_1  and  C_2
REMARK    2  A    between atoms: C_3  and  C_4
REMARK    3  A    between atoms: N_6  and  C_7
REMARK    4  A    between atoms: C_7  and  C_8
REMARK    5  A    between atoms: C_7  and  C_15
REMARK    6  A    between atoms: C_8  and  N_9
REMARK    7  A    between atoms: N_23  and  C_24
REMARK                            x       y       z     vdW  Elec       q    Type
REMARK                         _______ _______ _______ _____ _____    ______ ____
ROOT
ATOM      1  C   UNL     1       6.217   4.291  16.345  0.00  0.00    +0.000 C 
ENDROOT
BRANCH   1   2
ATOM      2  C   UNL     1       6.973   5.351  17.159  0.00  0.00    +0.000 A 
ATOM      3  C   UNL     1       7.596   5.057  18.386  0.00  0.00    +0.000 A 
ATOM      4  C   UNL     1       8.199   6.069  19.150  0.00  0.00    +0.000 A 
ATOM      5  C   UNL     1       8.216   7.382  18.688  0.00  0.00    +0.000 A 
ATOM      6  C   UNL     1       7.656   7.680  17.451  0.00  0.00    +0.000 A 
ATOM      7  C   UNL     1       7.054   6.674  16.689  0.00  0.00    +0.000 A 
ENDBRANCH   1   2
BRANCH   1  10
ATOM      8  C   UNL     1       4.000   4.269  17.537  0.00  0.00    +0.000 C 
ATOM      9  O   UNL     1       3.726   5.426  17.212  0.00  0.00    +0.000 OA
ATOM     10  N   UNL     1       5.167   3.644  17.149  0.00  0.00    +0.000 N 
ATOM     11  H   UNL     1       5.464   2.855  17.712  0.00  0.00    +0.000 HD
BRANCH   8  14
ATOM     12  C   UNL     1       2.820   4.987  20.556  0.00  0.00    +0.000 C 
ATOM     13  C   UNL     1       2.633   3.807  19.671  0.00  0.00    +0.000 A 
ATOM     14  C   UNL     1       3.134   3.474  18.414  0.00  0.00    +0.000 A 
ATOM     15  C   UNL     1       2.634   2.163  18.203  0.00  0.00    +0.000 A 
ATOM     16  N   UNL     1       1.882   1.714  19.209  0.00  0.00    +0.000 NA
ATOM     17  N   UNL     1       1.844   2.752  20.058  0.00  0.00    +0.000 N 
ATOM     18  C   UNL     1       1.022   2.672  21.245  0.00  0.00    +0.000 C 
ENDBRANCH   8  14
ENDBRANCH   1  10
BRANCH   1  19
ATOM     19  C   UNL     1       5.620   4.960  15.070  0.00  0.00    +0.000 C 
BRANCH  19  20
ATOM     20  N   UNL     1       6.099   4.449  13.786  0.00  0.00    +0.000 N 
ATOM     21  C   UNL     1       5.290   3.644  12.902  0.00  0.00    +0.000 C 
ATOM     22  C   UNL     1       6.352   2.971  12.053  0.00  0.00    +0.000 C 
ATOM     23  C   UNL     1       7.351   4.100  11.836  0.00  0.00    +0.000 C 
ATOM     24  C   UNL     1       7.285   4.810  13.165  0.00  0.00    +0.000 C 
ATOM     25  O   UNL     1       8.107   5.616  13.600  0.00  0.00    +0.000 OA
ENDBRANCH  19  20
ENDBRANCH   1  19
TORSDOF 5
ENDMDL
MODEL 4
REMARK VINA RESULT:      -7.9      1.222      1.872
REMARK  Name = 
REMARK  7 active torsions:
REMARK  status: ('A' for Active; 'I' for Inactive)
REMARK    1  A    between atoms: C_1  and  C_2
REMARK    2  A    between atoms: C_3  and  C_4
REMARK    3  A    between atoms: N_6  and  C_7
REMARK    4  A    between atoms: C_7  and  C_8
REMARK    5  A    between atoms: C_7  and  C_15
REMARK    6  A    between atoms: C_8  and  N_9
REMARK    7  A    between atoms: N_23  and  C_24
REMARK                            x       y       z     vdW  Elec       q    Type
REMARK                         _______ _______ _______ _____ _____    ______ ____
ROOT
ATOM      1  C   UNL     1       2.820   6.357  18.351  0.00  0.00    +0.000 C 
ENDROOT
BRANCH   1   2
ATOM      2  C   UNL     1       2.192   5.036  18.818  0.00  0.00    +0.000 A 
ATOM      3  C   UNL     1       2.022   3.935  17.957  0.00  0.00    +0.000 A 
ATOM      4  C   UNL     1       1.360   2.775  18.391  0.00  0.00    +0.000 A 
ATOM      5  C   UNL     1       0.886   2.684  19.697  0.00  0.00    +0.000 A 
ATOM      6  C   UNL     1       1.097   3.739  20.578  0.00  0.00    +0.000 A 
ATOM      7  C   UNL     1       1.755   4.895  20.148  0.00  0.00    +0.000 A 
ENDBRANCH   1   2
BRANCH   1  10
ATOM      8  C   UNL     1       1.904   8.701  18.327  0.00  0.00    +0.000 C 
ATOM      9  O   UNL     1       2.177   8.879  17.138  0.00  0.00    +0.000 OA
ATOM     10  N   UNL     1       2.165   7.515  18.981  0.00  0.00    +0.000 N 
ATOM     11  H   UNL     1       2.226   7.562  19.992  0.00  0.00    +0.000 HD
BRANCH   8  14
ATOM     12  C   UNL     1       0.354   8.467  21.255  0.00  0.00    +0.000 C 
ATOM     13  C   UNL     1       0.702   9.636  20.405  0.00  0.00    +0.000 A 
ATOM     14  C   UNL     1       1.331   9.759  19.167  0.00  0.00    +0.000 A 
ATOM     15  C   UNL     1       1.247  11.148  18.896  0.00  0.00    +0.000 A 
ATOM     16  N   UNL     1       0.646  11.842  19.865  0.00  0.00    +0.000 NA
ATOM     17  N   UNL     1       0.381  10.914  20.796  0.00  0.00    +0.000 N 
ATOM     18  C   UNL     1      -0.191  11.316  22.061  0.00  0.00    +0.000 C 
ENDBRANCH   8  14
ENDBRANCH   1  10
BRANCH   1  19
ATOM     19  C   UNL     1       4.346   6.332  18.665  0.00  0.00    +0.000 C 
BRANCH  19  20
ATOM     20  N   UNL     1       5.203   5.700  17.662  0.00  0.00    +0.000 N 
ATOM     21  C   UNL     1       5.086   5.952  16.246  0.00  0.00    +0.000 C 
ATOM     22  C   UNL     1       5.771   4.729  15.665  0.00  0.00    +0.000 C 
ATOM     23  C   UNL     1       6.950   4.544  16.611  0.00  0.00    +0.000 C 
ATOM     24  C   UNL     1       6.335   4.945  17.929  0.00  0.00    +0.000 C 
ATOM     25  O   UNL     1       6.789   4.700  19.047  0.00  0.00    +0.000 OA
ENDBRANCH  19  20
ENDBRANCH   1  19
TORSDOF 5
ENDMDL
MODEL 5
REMARK VINA RESULT:      -7.9      1.475      1.920
REMARK  Name = 
REMARK  7 active torsions:
REMARK  status: ('A' for Active; 'I' for Inactive)
REMARK    1  A    between atoms: C_1  and  C_2
REMARK    2  A    between atoms: C_3  and  C_4
REMARK    3  A    between atoms: N_6  and  C_7
REMARK    4  A    between atoms: C_7  and  C_8
REMARK    5  A    between atoms: C_7  and  C_15
REMARK    6  A    between atoms: C_8  and  N_9
REMARK    7  A    between atoms: N_23  and  C_24
REMARK                            x       y       z     vdW  Elec       q    Type
REMARK                         _______ _______ _______ _____ _____    ______ ____
ROOT
ATOM      1  C   UNL     1       2.732   6.466  18.316  0.00  0.00    +0.000 C 
ENDROOT
BRANCH   1   2
ATOM      2  C   UNL     1       2.136   5.131  18.785  0.00  0.00    +0.000 A 
ATOM      3  C   UNL     1       1.978   4.030  17.921  0.00  0.00    +0.000 A 
ATOM      4  C   UNL     1       1.345   2.855  18.357  0.00  0.00    +0.000 A 
ATOM      5  C   UNL     1       0.888   2.749  19.668  0.00  0.00    +0.000 A 
ATOM      6  C   UNL     1       1.088   3.805  20.551  0.00  0.00    +0.000 A 
ATOM      7  C   UNL     1       1.717   4.976  20.118  0.00  0.00    +0.000 A 
ENDBRANCH   1   2
BRANCH   1  10
ATOM      8  C   UNL     1       1.839   8.818  18.418  0.00  0.00    +0.000 C 
ATOM      9  O   UNL     1       2.067   9.039  17.227  0.00  0.00    +0.000 OA
ATOM     10  N   UNL     1       2.113   7.605  19.015  0.00  0.00    +0.000 N 
ATOM     11  H   UNL     1       2.214   7.611  20.024  0.00  0.00    +0.000 HD
BRANCH   8  14
ATOM     12  C   UNL     1       2.151  12.121  18.271  0.00  0.00    +0.000 C 
ATOM     13  C   UNL     1       1.436  11.231  19.224  0.00  0.00    +0.000 A 
ATOM     14  C   UNL     1       1.309   9.846  19.320  0.00  0.00    +0.000 A 
ATOM     15  C   UNL     1       0.577   9.670  20.521  0.00  0.00    +0.000 A 
ATOM     16  N   UNL     1       0.255  10.818  21.120  0.00  0.00    +0.000 NA
ATOM     17  N   UNL     1       0.732  11.751  20.283  0.00  0.00    +0.000 N 
ATOM     18  C   UNL     1       0.479  13.148  20.554  0.00  0.00    +0.000 C 
ENDBRANCH   8  14
ENDBRANCH   1  10
BRANCH   1  19
ATOM     19  C   UNL     1       4.274   6.439  18.536  0.00  0.00    +0.000 C 
BRANCH  19  20
ATOM     20  N   UNL     1       5.065   5.787  17.492  0.00  0.00    +0.000 N 
ATOM     21  C   UNL     1       5.085   6.230  16.119  0.00  0.00    +0.000 C 
ATOM     22  C   UNL     1       5.575   4.983  15.408  0.00  0.00    +0.000 C 
ATOM     23  C   UNL     1       6.640   4.466  16.367  0.00  0.00    +0.000 C 
ATOM     24  C   UNL     1       6.025   4.808  17.701  0.00  0.00    +0.000 C 
ATOM     25  O   UNL     1       6.356   4.347  18.793  0.00  0.00    +0.000 OA
ENDBRANCH  19  20
ENDBRANCH   1  19
TORSDOF 5
ENDMDL
MODEL 6
REMARK VINA RESULT:      -7.8      1.570      1.804
REMARK  Name = 
REMARK  7 active torsions:
REMARK  status: ('A' for Active; 'I' for Inactive)
REMARK    1  A    between atoms: C_1  and  C_2
REMARK    2  A    between atoms: C_3  and  C_4
REMARK    3  A    between atoms: N_6  and  C_7
REMARK    4  A    between atoms: C_7  and  C_8
REMARK    5  A    between atoms: C_7  and  C_15
REMARK    6  A    between atoms: C_8  and  N_9
REMARK    7  A    between atoms: N_23  and  C_24
REMARK                            x       y       z     vdW  Elec       q    Type
REMARK                         _______ _______ _______ _____ _____    ______ ____
ROOT
ATOM      1  C   UNL     1       2.638   6.449  18.218  0.00  0.00    +0.000 C 
ENDROOT
BRANCH   1   2
ATOM      2  C   UNL     1       2.083   5.124  18.762  0.00  0.00    +0.000 A 
ATOM      3  C   UNL     1       1.782   4.934  20.124  0.00  0.00    +0.000 A 
ATOM      4  C   UNL     1       1.365   3.682  20.603  0.00  0.00    +0.000 A 
ATOM      5  C   UNL     1       1.213   2.610  19.727  0.00  0.00    +0.000 A 
ATOM      6  C   UNL     1       1.450   2.795  18.370  0.00  0.00    +0.000 A 
ATOM      7  C   UNL     1       1.867   4.041  17.891  0.00  0.00    +0.000 A 
ENDBRANCH   1   2
BRANCH   1  10
ATOM      8  C   UNL     1       1.848   8.838  18.266  0.00  0.00    +0.000 C 
ATOM      9  O   UNL     1       2.220   9.066  17.113  0.00  0.00    +0.000 OA
ATOM     10  N   UNL     1       1.997   7.605  18.866  0.00  0.00    +0.000 N 
ATOM     11  H   UNL     1       1.983   7.592  19.880  0.00  0.00    +0.000 HD
BRANCH   8  14
ATOM     12  C   UNL     1       2.311  12.126  18.209  0.00  0.00    +0.000 C 
ATOM     13  C   UNL     1       1.462  11.257  19.065  0.00  0.00    +0.000 A 
ATOM     14  C   UNL     1       1.268   9.878  19.123  0.00  0.00    +0.000 A 
ATOM     15  C   UNL     1       0.403   9.718  20.236  0.00  0.00    +0.000 A 
ATOM     16  N   UNL     1       0.066  10.872  20.815  0.00  0.00    +0.000 NA
ATOM     17  N   UNL     1       0.669  11.794  20.050  0.00  0.00    +0.000 N 
ATOM     18  C   UNL     1       0.447  13.198  20.316  0.00  0.00    +0.000 C 
ENDBRANCH   8  14
ENDBRANCH   1  10
BRANCH   1  19
ATOM     19  C   UNL     1       4.182   6.473  18.421  0.00  0.00    +0.000 C 
BRANCH  19  20
ATOM     20  N   UNL     1       4.978   5.764  17.418  0.00  0.00    +0.000 N 
ATOM     21  C   UNL     1       5.167   6.246  16.071  0.00  0.00    +0.000 C 
ATOM     22  C   UNL     1       5.565   4.972  15.349  0.00  0.00    +0.000 C 
ATOM     23  C   UNL     1       6.475   4.299  16.368  0.00  0.00    +0.000 C 
ATOM     24  C   UNL     1       5.793   4.669  17.661  0.00  0.00    +0.000 C 
ATOM     25  O   UNL     1       5.972   4.136  18.756  0.00  0.00    +0.000 OA
ENDBRANCH  19  20
ENDBRANCH   1  19
TORSDOF 5
ENDMDL
MODEL 7
REMARK VINA RESULT:      -7.7      1.174      1.600
REMARK  Name = 
REMARK  7 active torsions:
REMARK  status: ('A' for Active; 'I' for Inactive)
REMARK    1  A    between atoms: C_1  and  C_2
REMARK    2  A    between atoms: C_3  and  C_4
REMARK    3  A    between atoms: N_6  and  C_7
REMARK    4  A    between atoms: C_7  and  C_8
REMARK    5  A    between atoms: C_7  and  C_15
REMARK    6  A    between atoms: C_8  and  N_9
REMARK    7  A    between atoms: N_23  and  C_24
REMARK                            x       y       z     vdW  Elec       q    Type
REMARK                         _______ _______ _______ _____ _____    ______ ____
ROOT
ATOM      1  C   UNL     1       2.531   6.480  18.402  0.00  0.00    +0.000 C 
ENDROOT
BRANCH   1   2
ATOM      2  C   UNL     1       2.036   5.101  18.864  0.00  0.00    +0.000 A 
ATOM      3  C   UNL     1       1.832   4.034  17.970  0.00  0.00    +0.000 A 
ATOM      4  C   UNL     1       1.291   2.816  18.411  0.00  0.00    +0.000 A 
ATOM      5  C   UNL     1       0.972   2.635  19.755  0.00  0.00    +0.000 A 
ATOM      6  C   UNL     1       1.221   3.659  20.662  0.00  0.00    +0.000 A 
ATOM      7  C   UNL     1       1.759   4.873  20.224  0.00  0.00    +0.000 A 
ENDBRANCH   1   2
BRANCH   1  10
ATOM      8  C   UNL     1       1.625   8.821  18.579  0.00  0.00    +0.000 C 
ATOM      9  O   UNL     1       1.983   9.129  17.441  0.00  0.00    +0.000 OA
ATOM     10  N   UNL     1       1.835   7.566  19.111  0.00  0.00    +0.000 N 
ATOM     11  H   UNL     1       1.823   7.497  20.123  0.00  0.00    +0.000 HD
BRANCH   8  14
ATOM     12  C   UNL     1      -1.172  10.571  18.201  0.00  0.00    +0.000 C 
ATOM     13  C   UNL     1      -0.194  10.490  19.318  0.00  0.00    +0.000 A 
ATOM     14  C   UNL     1       0.995   9.783  19.491  0.00  0.00    +0.000 A 
ATOM     15  C   UNL     1       1.469  10.246  20.745  0.00  0.00    +0.000 A 
ATOM     16  N   UNL     1       0.662  11.140  21.319  0.00  0.00    +0.000 NA
ATOM     17  N   UNL     1      -0.369  11.224  20.465  0.00  0.00    +0.000 N 
ATOM     18  C   UNL     1      -1.513  12.039  20.808  0.00  0.00    +0.000 C 
ENDBRANCH   8  14
ENDBRANCH   1  10
BRANCH   1  19
ATOM     19  C   UNL     1       4.073   6.562  18.616  0.00  0.00    +0.000 C 
BRANCH  19  20
ATOM     20  N   UNL     1       4.902   5.897  17.612  0.00  0.00    +0.000 N 
ATOM     21  C   UNL     1       5.151   6.444  16.300  0.00  0.00    +0.000 C 
ATOM     22  C   UNL     1       5.568   5.205  15.531  0.00  0.00    +0.000 C 
ATOM     23  C   UNL     1       6.430   4.471  16.550  0.00  0.00    +0.000 C 
ATOM     24  C   UNL     1       5.698   4.782  17.832  0.00  0.00    +0.000 C 
ATOM     25  O   UNL     1       5.828   4.193  18.904  0.00  0.00    +0.000 OA
ENDBRANCH  19  20
ENDBRANCH   1  19
TORSDOF 5
ENDMDL
MODEL 8
REMARK VINA RESULT:      -7.7      2.080      4.808
REMARK  Name = 
REMARK  7 active torsions:
REMARK  status: ('A' for Active; 'I' for Inactive)
REMARK    1  A    between atoms: C_1  and  C_2
REMARK    2  A    between atoms: C_3  and  C_4
REMARK    3  A    between atoms: N_6  and  C_7
REMARK    4  A    between atoms: C_7  and  C_8
REMARK    5  A    between atoms: C_7  and  C_15
REMARK    6  A    between atoms: C_8  and  N_9
REMARK    7  A    between atoms: N_23  and  C_24
REMARK                            x       y       z     vdW  Elec       q    Type
REMARK                         _______ _______ _______ _____ _____    ______ ____
ROOT
ATOM      1  C   UNL     1       4.337   4.637  17.794  0.00  0.00    +0.000 C 
ENDROOT
BRANCH   1   2
ATOM      2  C   UNL     1       5.302   4.593  16.600  0.00  0.00    +0.000 A 
ATOM      3  C   UNL     1       6.654   4.970  16.708  0.00  0.00    +0.000 A 
ATOM      4  C   UNL     1       7.486   5.006  15.578  0.00  0.00    +0.000 A 
ATOM      5  C   UNL     1       6.990   4.638  14.329  0.00  0.00    +0.000 A 
ATOM      6  C   UNL     1       5.673   4.208  14.214  0.00  0.00    +0.000 A 
ATOM      7  C   UNL     1       4.843   4.172  15.339  0.00  0.00    +0.000 A 
ENDBRANCH   1   2
BRANCH   1  10
ATOM      8  C   UNL     1       3.150   6.488  19.020  0.00  0.00    +0.000 C 
ATOM      9  O   UNL     1       3.331   5.976  20.127  0.00  0.00    +0.000 OA
ATOM     10  N   UNL     1       3.614   5.919  17.853  0.00  0.00    +0.000 N 
ATOM     11  H   UNL     1       3.152   6.205  16.997  0.00  0.00    +0.000 HD
BRANCH   8  14
ATOM     12  C   UNL     1       1.181   8.072  21.174  0.00  0.00    +0.000 C 
ATOM     13  C   UNL     1       1.569   8.378  19.772  0.00  0.00    +0.000 A 
ATOM     14  C   UNL     1       2.374   7.720  18.843  0.00  0.00    +0.000 A 
ATOM     15  C   UNL     1       2.230   8.508  17.673  0.00  0.00    +0.000 A 
ATOM     16  N   UNL     1       1.433   9.565  17.841  0.00  0.00    +0.000 NA
ATOM     17  N   UNL     1       1.096   9.500  19.137  0.00  0.00    +0.000 N 
ATOM     18  C   UNL     1       0.303  10.559  19.721  0.00  0.00    +0.000 C 
ENDBRANCH   8  14
ENDBRANCH   1  10
BRANCH   1  19
ATOM     19  C   UNL     1       3.349   3.437  17.693  0.00  0.00    +0.000 C 
BRANCH  19  20
ATOM     20  N   UNL     1       2.535   3.167  18.877  0.00  0.00    +0.000 N 
ATOM     21  C   UNL     1       1.093   3.239  18.882  0.00  0.00    +0.000 C 
ATOM     22  C   UNL     1       0.806   3.406  20.362  0.00  0.00    +0.000 C 
ATOM     23  C   UNL     1       1.819   2.459  20.994  0.00  0.00    +0.000 C 
ATOM     24  C   UNL     1       2.999   2.634  20.071  0.00  0.00    +0.000 C 
ATOM     25  O   UNL     1       4.161   2.304  20.307  0.00  0.00    +0.000 OA
ENDBRANCH  19  20
ENDBRANCH   1  19
TORSDOF 5
ENDMDL
MODEL 9
REMARK VINA RESULT:      -7.7      1.482      2.060
REMARK  Name = 
REMARK  7 active torsions:
REMARK  status: ('A' for Active; 'I' for Inactive)
REMARK    1  A    between atoms: C_1  and  C_2
REMARK    2  A    between atoms: C_3  and  C_4
REMARK    3  A    between atoms: N_6  and  C_7
REMARK    4  A    between atoms: C_7  and  C_8
REMARK    5  A    between atoms: C_7  and  C_15
REMARK    6  A    between atoms: C_8  and  N_9
REMARK    7  A    between atoms: N_23  and  C_24
REMARK                            x       y       z     vdW  Elec       q    Type
REMARK                         _______ _______ _______ _____ _____    ______ ____
ROOT
ATOM      1  C   UNL     1       2.966   6.203  18.124  0.00  0.00    +0.000 C 
ENDROOT
BRANCH   1   2
ATOM      2  C   UNL     1       2.398   4.817  18.460  0.00  0.00    +0.000 A 
ATOM      3  C   UNL     1       1.711   4.553  19.660  0.00  0.00    +0.000 A 
ATOM      4  C   UNL     1       1.286   3.253  19.978  0.00  0.00    +0.000 A 
ATOM      5  C   UNL     1       1.513   2.203  19.091  0.00  0.00    +0.000 A 
ATOM      6  C   UNL     1       2.138   2.457  17.875  0.00  0.00    +0.000 A 
ATOM      7  C   UNL     1       2.563   3.751  17.558  0.00  0.00    +0.000 A 
ENDBRANCH   1   2
BRANCH   1  10
ATOM      8  C   UNL     1       2.015   8.532  18.210  0.00  0.00    +0.000 C 
ATOM      9  O   UNL     1       2.506   8.856  17.126  0.00  0.00    +0.000 OA
ATOM     10  N   UNL     1       2.174   7.274  18.752  0.00  0.00    +0.000 N 
ATOM     11  H   UNL     1       2.039   7.195  19.754  0.00  0.00    +0.000 HD
BRANCH   8  14
ATOM     12  C   UNL     1       0.958   8.206  21.341  0.00  0.00    +0.000 C 
ATOM     13  C   UNL     1       0.851   9.324  20.368  0.00  0.00    +0.000 A 
ATOM     14  C   UNL     1       1.266   9.477  19.045  0.00  0.00    +0.000 A 
ATOM     15  C   UNL     1       0.755  10.751  18.690  0.00  0.00    +0.000 A 
ATOM     16  N   UNL     1       0.099  11.355  19.683  0.00  0.00    +0.000 NA
ATOM     17  N   UNL     1       0.225  10.499  20.707  0.00  0.00    +0.000 N 
ATOM     18  C   UNL     1      -0.283  10.866  22.010  0.00  0.00    +0.000 C 
ENDBRANCH   8  14
ENDBRANCH   1  10
BRANCH   1  19
ATOM     19  C   UNL     1       4.456   6.264  18.576  0.00  0.00    +0.000 C 
BRANCH  19  20
ATOM     20  N   UNL     1       5.430   5.646  17.676  0.00  0.00    +0.000 N 
ATOM     21  C   UNL     1       6.155   4.441  18.000  0.00  0.00    +0.000 C 
ATOM     22  C   UNL     1       7.337   4.538  17.053  0.00  0.00    +0.000 C 
ATOM     23  C   UNL     1       6.686   5.071  15.783  0.00  0.00    +0.000 C 
ATOM     24  C   UNL     1       5.649   6.005  16.354  0.00  0.00    +0.000 C 
ATOM     25  O   UNL     1       5.052   6.890  15.743  0.00  0.00    +0.000 OA
ENDBRANCH  19  20
ENDBRANCH   1  19
TORSDOF 5
ENDMDL
