MODEL 1
REMARK VINA RESULT:      -7.6      0.000      0.000
REMARK  Name = 
REMARK  7 active torsions:
REMARK  status: ('A' for Active; 'I' for Inactive)
REMARK    1  A    between atoms: C_1  and  O_2
REMARK    2  A    between atoms: O_2  and  C_3
REMARK    3  A    between atoms: C_6  and  C_7
REMARK    4  A    between atoms: C_8  and  C_9
REMARK    5  A    between atoms: C_13  and  O_14
REMARK    6  A    between atoms: O_14  and  C_15
REMARK    7  A    between atoms: C_21  and  C_23
REMARK                            x       y       z     vdW  Elec       q    Type
REMARK                         _______ _______ _______ _____ _____    ______ ____
ROOT
ATOM      1  C   UNL     1       0.541  10.438  20.210  0.00  0.00    +0.000 C 
ATOM      2  C   UNL     1       1.228   9.097  20.035  0.00  0.00    +0.000 A 
ATOM      3  C   UNL     1       1.148   8.122  21.037  0.00  0.00    +0.000 A 
ATOM      4  C   UNL     1       1.655   6.843  20.817  0.00  0.00    +0.000 A 
ATOM      5  C   UNL     1       2.232   6.503  19.592  0.00  0.00    +0.000 A 
ATOM      6  C   UNL     1       2.349   7.480  18.601  0.00  0.00    +0.000 A 
ATOM      7  C   UNL     1       1.877   8.788  18.831  0.00  0.00    +0.000 A 
ATOM      8  C   UNL     1       1.984   9.844  17.769  0.00  0.00    +0.000 C 
ATOM      9  C   UNL     1       1.828  11.303  18.247  0.00  0.00    +0.000 C 
ATOM     10  N   UNL     1       1.324  11.527  19.612  0.00  0.00    +0.000 N 
ATOM     11  C   UNL     1       1.372  12.725  20.336  0.00  0.00    +0.000 C 
ATOM     12  O   UNL     1       1.084  12.775  21.534  0.00  0.00    +0.000 OA
ENDROOT
BRANCH  11  13
ATOM     13  C   UNL     1       1.713  14.037  19.701  0.00  0.00    +0.000 A 
ATOM     14  C   UNL     1       3.031  14.511  19.818  0.00  0.00    +0.000 A 
ATOM     15  C   UNL     1       3.375  15.795  19.380  0.00  0.00    +0.000 A 
ATOM     16  C   UNL     1       2.407  16.617  18.806  0.00  0.00    +0.000 A 
ATOM     17  C   UNL     1       1.099  16.156  18.698  0.00  0.00    +0.000 A 
ATOM     18 CL   UNL     1      -0.111  17.167  18.008  0.00  0.00    +0.000 Cl
ATOM     19  C   UNL     1       0.743  14.890  19.168  0.00  0.00    +0.000 A 
ENDBRANCH  11  13
BRANCH   1  21
ATOM     20  C   UNL     1      -1.585  11.643  19.436  0.00  0.00    +0.000 C 
ATOM     21  C   UNL     1      -0.857  10.530  19.611  0.00  0.00    +0.000 C 
BRANCH  20  25
ATOM     22  C   UNL     1      -5.512  11.949  17.743  0.00  0.00    +0.000 A 
ATOM     23  C   UNL     1      -5.252  12.376  19.046  0.00  0.00    +0.000 A 
ATOM     24  C   UNL     1      -3.970  12.259  19.590  0.00  0.00    +0.000 A 
ATOM     25  C   UNL     1      -2.930  11.690  18.846  0.00  0.00    +0.000 A 
ATOM     26  C   UNL     1      -3.200  11.256  17.543  0.00  0.00    +0.000 A 
ATOM     27  C   UNL     1      -4.482  11.383  16.995  0.00  0.00    +0.000 A 
BRANCH  22  29
ATOM     28  C   UNL     1      -7.371  13.396  17.510  0.00  0.00    +0.000 C 
ATOM     29  O   UNL     1      -6.806  12.104  17.327  0.00  0.00    +0.000 OA
ENDBRANCH  22  29
ENDBRANCH  20  25
ENDBRANCH   1  21
BRANCH   5  30
ATOM     30  O   UNL     1       2.623   5.197  19.506  0.00  0.00    +0.000 OA
ATOM     31  C   UNL     1       3.604   4.860  18.535  0.00  0.00    +0.000 C 
ENDBRANCH   5  30
TORSDOF 5
ENDMDL
MODEL 2
REMARK VINA RESULT:      -7.5      1.039      1.346
REMARK  Name = 
REMARK  7 active torsions:
REMARK  status: ('A' for Active; 'I' for Inactive)
REMARK    1  A    between atoms: C_1  and  O_2
REMARK    2  A    between atoms: O_2  and  C_3
REMARK    3  A    between atoms: C_6  and  C_7
REMARK    4  A    between atoms: C_8  and  C_9
REMARK    5  A    between atoms: C_13  and  O_14
REMARK    6  A    between atoms: O_14  and  C_15
REMARK    7  A    between atoms: C_21  and  C_23
REMARK                            x       y       z     vdW  Elec       q    Type
REMARK                         _______ _______ _______ _____ _____    ______ ____
ROOT
ATOM      1  C   UNL     1       0.501  10.483  20.229  0.00  0.00    +0.000 C 
ATOM      2  C   UNL     1       1.191   9.146  20.037  0.00  0.00    +0.000 A 
ATOM      3  C   UNL     1       1.094   8.150  21.016  0.00  0.00    +0.000 A 
ATOM      4  C   UNL     1       1.605   6.875  20.778  0.00  0.00    +0.000 A 
ATOM      5  C   UNL     1       2.202   6.561  19.556  0.00  0.00    +0.000 A 
ATOM      6  C   UNL     1       2.336   7.559  18.588  0.00  0.00    +0.000 A 
ATOM      7  C   UNL     1       1.861   8.862  18.838  0.00  0.00    +0.000 A 
ATOM      8  C   UNL     1       1.986   9.941  17.801  0.00  0.00    +0.000 C 
ATOM      9  C   UNL     1       1.822  11.389  18.307  0.00  0.00    +0.000 C 
ATOM     10  N   UNL     1       1.295  11.584  19.668  0.00  0.00    +0.000 N 
ATOM     11  C   UNL     1       1.331  12.766  20.418  0.00  0.00    +0.000 C 
ATOM     12  O   UNL     1       1.022  12.791  21.612  0.00  0.00    +0.000 OA
ENDROOT
BRANCH  11  13
ATOM     13  C   UNL     1       1.682  14.091  19.817  0.00  0.00    +0.000 A 
ATOM     14  C   UNL     1       0.641  14.902  19.335  0.00  0.00    +0.000 A 
ATOM     15  C   UNL     1       0.912  16.079  18.628  0.00  0.00    +0.000 A 
ATOM     16  C   UNL     1       2.232  16.467  18.406  0.00  0.00    +0.000 A 
ATOM     17  C   UNL     1       3.267  15.663  18.872  0.00  0.00    +0.000 A 
ATOM     18 CL   UNL     1       4.901  16.120  18.588  0.00  0.00    +0.000 Cl
ATOM     19  C   UNL     1       3.000  14.468  19.544  0.00  0.00    +0.000 A 
ENDBRANCH  11  13
BRANCH   1  21
ATOM     20  C   UNL     1      -1.641  11.693  19.509  0.00  0.00    +0.000 C 
ATOM     21  C   UNL     1      -0.886  10.588  19.608  0.00  0.00    +0.000 C 
BRANCH  20  25
ATOM     22  C   UNL     1      -5.535  12.039  17.750  0.00  0.00    +0.000 A 
ATOM     23  C   UNL     1      -5.301  12.429  19.070  0.00  0.00    +0.000 A 
ATOM     24  C   UNL     1      -4.030  12.299  19.634  0.00  0.00    +0.000 A 
ATOM     25  C   UNL     1      -2.974  11.754  18.895  0.00  0.00    +0.000 A 
ATOM     26  C   UNL     1      -3.217  11.357  17.574  0.00  0.00    +0.000 A 
ATOM     27  C   UNL     1      -4.489  11.497  17.006  0.00  0.00    +0.000 A 
BRANCH  22  29
ATOM     28  C   UNL     1      -7.567  13.240  17.939  0.00  0.00    +0.000 C 
ATOM     29  O   UNL     1      -6.821  12.203  17.313  0.00  0.00    +0.000 OA
ENDBRANCH  22  29
ENDBRANCH  20  25
ENDBRANCH   1  21
BRANCH   5  30
ATOM     30  O   UNL     1       2.595   5.257  19.449  0.00  0.00    +0.000 OA
ATOM     31  C   UNL     1       1.671   4.250  19.833  0.00  0.00    +0.000 C 
ENDBRANCH   5  30
TORSDOF 5
ENDMDL
MODEL 3
REMARK VINA RESULT:      -7.3      2.281      6.418
REMARK  Name = 
REMARK  7 active torsions:
REMARK  status: ('A' for Active; 'I' for Inactive)
REMARK    1  A    between atoms: C_1  and  O_2
REMARK    2  A    between atoms: O_2  and  C_3
REMARK    3  A    between atoms: C_6  and  C_7
REMARK    4  A    between atoms: C_8  and  C_9
REMARK    5  A    between atoms: C_13  and  O_14
REMARK    6  A    between atoms: O_14  and  C_15
REMARK    7  A    between atoms: C_21  and  C_23
REMARK                            x       y       z     vdW  Elec       q    Type
REMARK                         _______ _______ _______ _____ _____    ______ ____
ROOT
ATOM      1  C   UNL     1       0.488  10.910  18.681  0.00  0.00    +0.000 C 
ATOM      2  C   UNL     1       1.099   9.537  18.889  0.00  0.00    +0.000 A 
ATOM      3  C   UNL     1       1.702   8.859  17.823  0.00  0.00    +0.000 A 
ATOM      4  C   UNL     1       2.389   7.666  18.045  0.00  0.00    +0.000 A 
ATOM      5  C   UNL     1       2.505   7.137  19.331  0.00  0.00    +0.000 A 
ATOM      6  C   UNL     1       1.875   7.787  20.394  0.00  0.00    +0.000 A 
ATOM      7  C   UNL     1       1.143   8.971  20.172  0.00  0.00    +0.000 A 
ATOM      8  C   UNL     1       0.472   9.688  21.308  0.00  0.00    +0.000 C 
ATOM      9  C   UNL     1      -0.618  10.707  20.916  0.00  0.00    +0.000 C 
ATOM     10  N   UNL     1      -0.719  11.092  19.499  0.00  0.00    +0.000 N 
ATOM     11  C   UNL     1      -1.785  11.763  18.887  0.00  0.00    +0.000 C 
ATOM     12  O   UNL     1      -1.860  11.890  17.662  0.00  0.00    +0.000 OA
ENDROOT
BRANCH  11  13
ATOM     13  C   UNL     1      -2.874  12.427  19.670  0.00  0.00    +0.000 A 
ATOM     14  C   UNL     1      -4.207  12.164  19.313  0.00  0.00    +0.000 A 
ATOM     15  C   UNL     1      -5.263  12.867  19.903  0.00  0.00    +0.000 A 
ATOM     16  C   UNL     1      -4.999  13.835  20.871  0.00  0.00    +0.000 A 
ATOM     17  C   UNL     1      -3.681  14.106  21.221  0.00  0.00    +0.000 A 
ATOM     18 CL   UNL     1      -3.339  15.311  22.401  0.00  0.00    +0.000 Cl
ATOM     19  C   UNL     1      -2.622  13.434  20.607  0.00  0.00    +0.000 A 
ENDBRANCH  11  13
BRANCH   1  21
ATOM     20  C   UNL     1       1.513  13.230  18.315  0.00  0.00    +0.000 C 
ATOM     21  C   UNL     1       1.409  12.081  18.999  0.00  0.00    +0.000 C 
BRANCH  20  25
ATOM     22  C   UNL     1       4.131  16.520  19.155  0.00  0.00    +0.000 A 
ATOM     23  C   UNL     1       4.475  15.543  18.220  0.00  0.00    +0.000 A 
ATOM     24  C   UNL     1       3.618  14.470  17.965  0.00  0.00    +0.000 A 
ATOM     25  C   UNL     1       2.410  14.342  18.659  0.00  0.00    +0.000 A 
ATOM     26  C   UNL     1       2.074  15.320  19.603  0.00  0.00    +0.000 A 
ATOM     27  C   UNL     1       2.929  16.401  19.850  0.00  0.00    +0.000 A 
BRANCH  22  29
ATOM     28  C   UNL     1       6.412  17.152  19.101  0.00  0.00    +0.000 C 
ATOM     29  O   UNL     1       5.054  17.514  19.327  0.00  0.00    +0.000 OA
ENDBRANCH  22  29
ENDBRANCH  20  25
ENDBRANCH   1  21
BRANCH   5  30
ATOM     30  O   UNL     1       3.260   6.000  19.398  0.00  0.00    +0.000 OA
ATOM     31  C   UNL     1       3.334   5.183  18.239  0.00  0.00    +0.000 C 
ENDBRANCH   5  30
TORSDOF 5
ENDMDL
MODEL 4
REMARK VINA RESULT:      -7.3      2.591      6.504
REMARK  Name = 
REMARK  7 active torsions:
REMARK  status: ('A' for Active; 'I' for Inactive)
REMARK    1  A    between atoms: C_1  and  O_2
REMARK    2  A    between atoms: O_2  and  C_3
REMARK    3  A    between atoms: C_6  and  C_7
REMARK    4  A    between atoms: C_8  and  C_9
REMARK    5  A    between atoms: C_13  and  O_14
REMARK    6  A    between atoms: O_14  and  C_15
REMARK    7  A    between atoms: C_21  and  C_23
REMARK                            x       y       z     vdW  Elec       q    Type
REMARK                         _______ _______ _______ _____ _____    ______ ____
ROOT
ATOM      1  C   UNL     1       0.542  11.032  18.743  0.00  0.00    +0.000 C 
ATOM      2  C   UNL     1       1.108   9.637  18.928  0.00  0.00    +0.000 A 
ATOM      3  C   UNL     1       1.686   8.955  17.850  0.00  0.00    +0.000 A 
ATOM      4  C   UNL     1       2.332   7.737  18.052  0.00  0.00    +0.000 A 
ATOM      5  C   UNL     1       2.434   7.184  19.329  0.00  0.00    +0.000 A 
ATOM      6  C   UNL     1       1.829   7.839  20.404  0.00  0.00    +0.000 A 
ATOM      7  C   UNL     1       1.136   9.049  20.202  0.00  0.00    +0.000 A 
ATOM      8  C   UNL     1       0.492   9.771  21.351  0.00  0.00    +0.000 C 
ATOM      9  C   UNL     1      -0.564  10.832  20.977  0.00  0.00    +0.000 C 
ATOM     10  N   UNL     1      -0.655  11.242  19.567  0.00  0.00    +0.000 N 
ATOM     11  C   UNL     1      -1.700  11.957  18.969  0.00  0.00    +0.000 C 
ATOM     12  O   UNL     1      -1.773  12.106  17.746  0.00  0.00    +0.000 OA
ENDROOT
BRANCH  11  13
ATOM     13  C   UNL     1      -2.764  12.645  19.765  0.00  0.00    +0.000 A 
ATOM     14  C   UNL     1      -2.388  13.712  20.599  0.00  0.00    +0.000 A 
ATOM     15  C   UNL     1      -3.305  14.296  21.480  0.00  0.00    +0.000 A 
ATOM     16  C   UNL     1      -4.617  13.828  21.528  0.00  0.00    +0.000 A 
ATOM     17  C   UNL     1      -4.992  12.766  20.712  0.00  0.00    +0.000 A 
ATOM     18 CL   UNL     1      -6.604  12.166  20.774  0.00  0.00    +0.000 Cl
ATOM     19  C   UNL     1      -4.070  12.155  19.859  0.00  0.00    +0.000 A 
ENDBRANCH  11  13
BRANCH   1  21
ATOM     20  C   UNL     1       1.861  13.179  18.271  0.00  0.00    +0.000 C 
ATOM     21  C   UNL     1       1.503  12.167  19.076  0.00  0.00    +0.000 C 
BRANCH  20  25
ATOM     22  C   UNL     1       4.443  16.448  19.280  0.00  0.00    +0.000 A 
ATOM     23  C   UNL     1       3.928  16.307  17.991  0.00  0.00    +0.000 A 
ATOM     24  C   UNL     1       3.097  15.230  17.673  0.00  0.00    +0.000 A 
ATOM     25  C   UNL     1       2.787  14.261  18.634  0.00  0.00    +0.000 A 
ATOM     26  C   UNL     1       3.315  14.403  19.923  0.00  0.00    +0.000 A 
ATOM     27  C   UNL     1       4.139  15.489  20.244  0.00  0.00    +0.000 A 
BRANCH  22  29
ATOM     28  C   UNL     1       5.521  17.888  20.820  0.00  0.00    +0.000 C 
ATOM     29  O   UNL     1       5.253  17.535  19.468  0.00  0.00    +0.000 OA
ENDBRANCH  22  29
ENDBRANCH  20  25
ENDBRANCH   1  21
BRANCH   5  30
ATOM     30  O   UNL     1       3.150   6.021  19.376  0.00  0.00    +0.000 OA
ATOM     31  C   UNL     1       3.200   5.224  18.202  0.00  0.00    +0.000 C 
ENDBRANCH   5  30
TORSDOF 5
ENDMDL
MODEL 5
REMARK VINA RESULT:      -7.0      2.525      6.985
REMARK  Name = 
REMARK  7 active torsions:
REMARK  status: ('A' for Active; 'I' for Inactive)
REMARK    1  A    between atoms: C_1  and  O_2
REMARK    2  A    between atoms: O_2  and  C_3
REMARK    3  A    between atoms: C_6  and  C_7
REMARK    4  A    between atoms: C_8  and  C_9
REMARK    5  A    between atoms: C_13  and  O_14
REMARK    6  A    between atoms: O_14  and  C_15
REMARK    7  A    between atoms: C_21  and  C_23
REMARK                            x       y       z     vdW  Elec       q    Type
REMARK                         _______ _______ _______ _____ _____    ______ ____
ROOT
ATOM      1  C   UNL     1      -1.196  12.700  19.955  0.00  0.00    +0.000 C 
ATOM      2  C   UNL     1      -2.358  12.825  20.921  0.00  0.00    +0.000 A 
ATOM      3  C   UNL     1      -3.665  12.550  20.499  0.00  0.00    +0.000 A 
ATOM      4  C   UNL     1      -4.712  12.525  21.419  0.00  0.00    +0.000 A 
ATOM      5  C   UNL     1      -4.476  12.751  22.776  0.00  0.00    +0.000 A 
ATOM      6  C   UNL     1      -3.183  13.062  23.200  0.00  0.00    +0.000 A 
ATOM      7  C   UNL     1      -2.126  13.132  22.269  0.00  0.00    +0.000 A 
ATOM      8  C   UNL     1      -0.728  13.452  22.713  0.00  0.00    +0.000 C 
ATOM      9  C   UNL     1       0.247  13.904  21.606  0.00  0.00    +0.000 C 
ATOM     10  N   UNL     1      -0.173  13.724  20.206  0.00  0.00    +0.000 N 
ATOM     11  C   UNL     1       0.411  14.307  19.075  0.00  0.00    +0.000 C 
ATOM     12  O   UNL     1      -0.114  14.238  17.961  0.00  0.00    +0.000 OA
ENDROOT
BRANCH  11  13
ATOM     13  C   UNL     1       1.738  14.997  19.119  0.00  0.00    +0.000 A 
ATOM     14  C   UNL     1       1.786  16.319  19.594  0.00  0.00    +0.000 A 
ATOM     15  C   UNL     1       2.965  17.069  19.519  0.00  0.00    +0.000 A 
ATOM     16  C   UNL     1       4.117  16.501  18.979  0.00  0.00    +0.000 A 
ATOM     17  C   UNL     1       4.072  15.196  18.498  0.00  0.00    +0.000 A 
ATOM     18 CL   UNL     1       5.482  14.488  17.811  0.00  0.00    +0.000 Cl
ATOM     19  C   UNL     1       2.888  14.458  18.536  0.00  0.00    +0.000 A 
ENDBRANCH  11  13
BRANCH   1  21
ATOM     20  C   UNL     1       0.456  10.929  19.116  0.00  0.00    +0.000 C 
ATOM     21  C   UNL     1      -0.479  11.356  19.978  0.00  0.00    +0.000 C 
BRANCH  20  25
ATOM     22  C   UNL     1       2.277   7.055  19.353  0.00  0.00    +0.000 A 
ATOM     23  C   UNL     1       1.693   7.648  20.472  0.00  0.00    +0.000 A 
ATOM     24  C   UNL     1       1.114   8.916  20.384  0.00  0.00    +0.000 A 
ATOM     25  C   UNL     1       1.130   9.624  19.178  0.00  0.00    +0.000 A 
ATOM     26  C   UNL     1       1.726   9.028  18.060  0.00  0.00    +0.000 A 
ATOM     27  C   UNL     1       2.297   7.753  18.147  0.00  0.00    +0.000 A 
BRANCH  22  29
ATOM     28  C   UNL     1       4.215   5.696  19.304  0.00  0.00    +0.000 C 
ATOM     29  O   UNL     1       2.822   5.818  19.565  0.00  0.00    +0.000 OA
ENDBRANCH  22  29
ENDBRANCH  20  25
ENDBRANCH   1  21
BRANCH   5  30
ATOM     30  O   UNL     1      -5.589  12.630  23.561  0.00  0.00    +0.000 OA
ATOM     31  C   UNL     1      -6.858  12.744  22.936  0.00  0.00    +0.000 C 
ENDBRANCH   5  30
TORSDOF 5
ENDMDL
MODEL 6
REMARK VINA RESULT:      -6.9      2.037      7.093
REMARK  Name = 
REMARK  7 active torsions:
REMARK  status: ('A' for Active; 'I' for Inactive)
REMARK    1  A    between atoms: C_1  and  O_2
REMARK    2  A    between atoms: O_2  and  C_3
REMARK    3  A    between atoms: C_6  and  C_7
REMARK    4  A    between atoms: C_8  and  C_9
REMARK    5  A    between atoms: C_13  and  O_14
REMARK    6  A    between atoms: O_14  and  C_15
REMARK    7  A    between atoms: C_21  and  C_23
REMARK                            x       y       z     vdW  Elec       q    Type
REMARK                         _______ _______ _______ _____ _____    ______ ____
ROOT
ATOM      1  C   UNL     1      -0.267  11.879  18.384  0.00  0.00    +0.000 C 
ATOM      2  C   UNL     1      -1.770  11.836  18.183  0.00  0.00    +0.000 A 
ATOM      3  C   UNL     1      -2.310  11.581  16.916  0.00  0.00    +0.000 A 
ATOM      4  C   UNL     1      -3.683  11.400  16.759  0.00  0.00    +0.000 A 
ATOM      5  C   UNL     1      -4.541  11.448  17.859  0.00  0.00    +0.000 A 
ATOM      6  C   UNL     1      -4.016  11.738  19.119  0.00  0.00    +0.000 A 
ATOM      7  C   UNL     1      -2.634  11.966  19.280  0.00  0.00    +0.000 A 
ATOM      8  C   UNL     1      -2.054  12.265  20.633  0.00  0.00    +0.000 C 
ATOM      9  C   UNL     1      -0.644  12.892  20.640  0.00  0.00    +0.000 C 
ATOM     10  N   UNL     1       0.115  12.890  19.378  0.00  0.00    +0.000 N 
ATOM     11  C   UNL     1       1.263  13.638  19.091  0.00  0.00    +0.000 C 
ATOM     12  O   UNL     1       1.730  13.704  17.951  0.00  0.00    +0.000 OA
ENDROOT
BRANCH  11  13
ATOM     13  C   UNL     1       2.042  14.357  20.148  0.00  0.00    +0.000 A 
ATOM     14  C   UNL     1       1.811  15.732  20.326  0.00  0.00    +0.000 A 
ATOM     15  C   UNL     1       2.611  16.490  21.189  0.00  0.00    +0.000 A 
ATOM     16  C   UNL     1       3.645  15.878  21.896  0.00  0.00    +0.000 A 
ATOM     17  C   UNL     1       3.883  14.520  21.715  0.00  0.00    +0.000 A 
ATOM     18 CL   UNL     1       5.168  13.755  22.568  0.00  0.00    +0.000 Cl
ATOM     19  C   UNL     1       3.112  13.768  20.826  0.00  0.00    +0.000 A 
ENDBRANCH  11  13
BRANCH   1  21
ATOM     20  C   UNL     1       1.210   9.799  18.138  0.00  0.00    +0.000 C 
ATOM     21  C   UNL     1       0.360  10.566  18.837  0.00  0.00    +0.000 C 
BRANCH  20  25
ATOM     22  C   UNL     1       3.089   6.194  19.497  0.00  0.00    +0.000 A 
ATOM     23  C   UNL     1       3.326   6.692  18.216  0.00  0.00    +0.000 A 
ATOM     24  C   UNL     1       2.698   7.862  17.781  0.00  0.00    +0.000 A 
ATOM     25  C   UNL     1       1.801   8.541  18.614  0.00  0.00    +0.000 A 
ATOM     26  C   UNL     1       1.561   8.031  19.896  0.00  0.00    +0.000 A 
ATOM     27  C   UNL     1       2.199   6.864  20.334  0.00  0.00    +0.000 A 
BRANCH  22  29
ATOM     28  C   UNL     1       4.543   4.475  18.764  0.00  0.00    +0.000 C 
ATOM     29  O   UNL     1       3.751   5.037  19.804  0.00  0.00    +0.000 OA
ENDBRANCH  22  29
ENDBRANCH  20  25
ENDBRANCH   1  21
BRANCH   5  30
ATOM     30  O   UNL     1      -5.848  11.187  17.556  0.00  0.00    +0.000 OA
ATOM     31  C   UNL     1      -6.721  10.843  18.620  0.00  0.00    +0.000 C 
ENDBRANCH   5  30
TORSDOF 5
ENDMDL
MODEL 7
REMARK VINA RESULT:      -6.9      2.819      8.002
REMARK  Name = 
REMARK  7 active torsions:
REMARK  status: ('A' for Active; 'I' for Inactive)
REMARK    1  A    between atoms: C_1  and  O_2
REMARK    2  A    between atoms: O_2  and  C_3
REMARK    3  A    between atoms: C_6  and  C_7
REMARK    4  A    between atoms: C_8  and  C_9
REMARK    5  A    between atoms: C_13  and  O_14
REMARK    6  A    between atoms: O_14  and  C_15
REMARK    7  A    between atoms: C_21  and  C_23
REMARK                            x       y       z     vdW  Elec       q    Type
REMARK                         _______ _______ _______ _____ _____    ______ ____
ROOT
ATOM      1  C   UNL     1      -1.235  11.588  19.762  0.00  0.00    +0.000 C 
ATOM      2  C   UNL     1      -2.658  11.744  19.261  0.00  0.00    +0.000 A 
ATOM      3  C   UNL     1      -3.626  12.375  20.052  0.00  0.00    +0.000 A 
ATOM      4  C   UNL     1      -4.891  12.646  19.534  0.00  0.00    +0.000 A 
ATOM      5  C   UNL     1      -5.212  12.312  18.218  0.00  0.00    +0.000 A 
ATOM      6  C   UNL     1      -4.266  11.650  17.434  0.00  0.00    +0.000 A 
ATOM      7  C   UNL     1      -2.998  11.334  17.963  0.00  0.00    +0.000 A 
ATOM      8  C   UNL     1      -1.966  10.633  17.126  0.00  0.00    +0.000 C 
ATOM      9  C   UNL     1      -0.800   9.979  17.898  0.00  0.00    +0.000 C 
ATOM     10  N   UNL     1      -0.643  10.318  19.321  0.00  0.00    +0.000 N 
ATOM     11  C   UNL     1       0.146   9.644  20.261  0.00  0.00    +0.000 C 
ATOM     12  O   UNL     1       0.081   9.894  21.467  0.00  0.00    +0.000 OA
ENDROOT
BRANCH  11  13
ATOM     13  C   UNL     1       1.166   8.621  19.870  0.00  0.00    +0.000 A 
ATOM     14  C   UNL     1       1.873   8.809  18.671  0.00  0.00    +0.000 A 
ATOM     15  C   UNL     1       2.727   7.818  18.174  0.00  0.00    +0.000 A 
ATOM     16  C   UNL     1       2.896   6.628  18.881  0.00  0.00    +0.000 A 
ATOM     17  C   UNL     1       2.190   6.433  20.063  0.00  0.00    +0.000 A 
ATOM     18 CL   UNL     1       2.374   4.961  20.936  0.00  0.00    +0.000 Cl
ATOM     19  C   UNL     1       1.308   7.404  20.542  0.00  0.00    +0.000 A 
ENDBRANCH  11  13
BRANCH   1  21
ATOM     20  C   UNL     1       0.643  13.301  20.093  0.00  0.00    +0.000 C 
ATOM     21  C   UNL     1      -0.274  12.689  19.329  0.00  0.00    +0.000 C 
BRANCH  20  25
ATOM     22  C   UNL     1       3.365  16.272  18.629  0.00  0.00    +0.000 A 
ATOM     23  C   UNL     1       3.814  15.008  19.015  0.00  0.00    +0.000 A 
ATOM     24  C   UNL     1       2.918  14.054  19.502  0.00  0.00    +0.000 A 
ATOM     25  C   UNL     1       1.558  14.355  19.634  0.00  0.00    +0.000 A 
ATOM     26  C   UNL     1       1.115  15.628  19.254  0.00  0.00    +0.000 A 
ATOM     27  C   UNL     1       2.012  16.580  18.756  0.00  0.00    +0.000 A 
BRANCH  22  29
ATOM     28  C   UNL     1       5.579  17.074  18.871  0.00  0.00    +0.000 C 
ATOM     29  O   UNL     1       4.337  17.124  18.181  0.00  0.00    +0.000 OA
ENDBRANCH  22  29
ENDBRANCH  20  25
ENDBRANCH   1  21
BRANCH   5  30
ATOM     30  O   UNL     1      -6.466  12.698  17.837  0.00  0.00    +0.000 OA
ATOM     31  C   UNL     1      -7.481  12.731  18.829  0.00  0.00    +0.000 C 
ENDBRANCH   5  30
TORSDOF 5
ENDMDL
MODEL 8
REMARK VINA RESULT:      -6.9      2.956      8.210
REMARK  Name = 
REMARK  7 active torsions:
REMARK  status: ('A' for Active; 'I' for Inactive)
REMARK    1  A    between atoms: C_1  and  O_2
REMARK    2  A    between atoms: O_2  and  C_3
REMARK    3  A    between atoms: C_6  and  C_7
REMARK    4  A    between atoms: C_8  and  C_9
REMARK    5  A    between atoms: C_13  and  O_14
REMARK    6  A    between atoms: O_14  and  C_15
REMARK    7  A    between atoms: C_21  and  C_23
REMARK                            x       y       z     vdW  Elec       q    Type
REMARK                         _______ _______ _______ _____ _____    ______ ____
ROOT
ATOM      1  C   UNL     1       0.369  10.928  20.911  0.00  0.00    +0.000 C 
ATOM      2  C   UNL     1      -1.013  11.537  20.769  0.00  0.00    +0.000 A 
ATOM      3  C   UNL     1      -1.600  12.226  21.837  0.00  0.00    +0.000 A 
ATOM      4  C   UNL     1      -2.803  12.907  21.660  0.00  0.00    +0.000 A 
ATOM      5  C   UNL     1      -3.435  12.932  20.416  0.00  0.00    +0.000 A 
ATOM      6  C   UNL     1      -2.876  12.217  19.355  0.00  0.00    +0.000 A 
ATOM      7  C   UNL     1      -1.682  11.490  19.536  0.00  0.00    +0.000 A 
ATOM      8  C   UNL     1      -1.063  10.728  18.400  0.00  0.00    +0.000 C 
ATOM      9  C   UNL     1      -0.020   9.659  18.791  0.00  0.00    +0.000 C 
ATOM     10  N   UNL     1       0.478   9.661  20.176  0.00  0.00    +0.000 N 
ATOM     11  C   UNL     1       1.191   8.637  20.810  0.00  0.00    +0.000 C 
ATOM     12  O   UNL     1       1.417   8.653  22.023  0.00  0.00    +0.000 OA
ENDROOT
BRANCH  11  13
ATOM     13  C   UNL     1       1.784   7.485  20.061  0.00  0.00    +0.000 A 
ATOM     14  C   UNL     1       1.639   6.195  20.599  0.00  0.00    +0.000 A 
ATOM     15  C   UNL     1       2.297   5.099  20.030  0.00  0.00    +0.000 A 
ATOM     16  C   UNL     1       3.100   5.278  18.905  0.00  0.00    +0.000 A 
ATOM     17  C   UNL     1       3.255   6.554  18.375  0.00  0.00    +0.000 A 
ATOM     18 CL   UNL     1       4.258   6.793  16.997  0.00  0.00    +0.000 Cl
ATOM     19  C   UNL     1       2.631   7.656  18.963  0.00  0.00    +0.000 A 
ENDBRANCH  11  13
BRANCH   1  21
ATOM     20  C   UNL     1       1.442  13.103  20.083  0.00  0.00    +0.000 C 
ATOM     21  C   UNL     1       1.515  11.810  20.431  0.00  0.00    +0.000 C 
BRANCH  20  25
ATOM     22  C   UNL     1       4.855  15.379  18.837  0.00  0.00    +0.000 A 
ATOM     23  C   UNL     1       4.642  15.074  20.182  0.00  0.00    +0.000 A 
ATOM     24  C   UNL     1       3.520  14.342  20.575  0.00  0.00    +0.000 A 
ATOM     25  C   UNL     1       2.576  13.922  19.632  0.00  0.00    +0.000 A 
ATOM     26  C   UNL     1       2.790  14.239  18.285  0.00  0.00    +0.000 A 
ATOM     27  C   UNL     1       3.921  14.963  17.890  0.00  0.00    +0.000 A 
BRANCH  22  29
ATOM     28  C   UNL     1       7.095  15.383  18.069  0.00  0.00    +0.000 C 
ATOM     29  O   UNL     1       5.982  16.110  18.575  0.00  0.00    +0.000 OA
ENDBRANCH  22  29
ENDBRANCH  20  25
ENDBRANCH   1  21
BRANCH   5  30
ATOM     30  O   UNL     1      -4.570  13.692  20.384  0.00  0.00    +0.000 OA
ATOM     31  C   UNL     1      -5.779  13.100  20.833  0.00  0.00    +0.000 C 
ENDBRANCH   5  30
TORSDOF 5
ENDMDL
MODEL 9
REMARK VINA RESULT:      -6.9      3.179      8.191
REMARK  Name = 
REMARK  7 active torsions:
REMARK  status: ('A' for Active; 'I' for Inactive)
REMARK    1  A    between atoms: C_1  and  O_2
REMARK    2  A    between atoms: O_2  and  C_3
REMARK    3  A    between atoms: C_6  and  C_7
REMARK    4  A    between atoms: C_8  and  C_9
REMARK    5  A    between atoms: C_13  and  O_14
REMARK    6  A    between atoms: O_14  and  C_15
REMARK    7  A    between atoms: C_21  and  C_23
REMARK                            x       y       z     vdW  Elec       q    Type
REMARK                         _______ _______ _______ _____ _____    ______ ____
ROOT
ATOM      1  C   UNL     1       0.163  11.194  21.054  0.00  0.00    +0.000 C 
ATOM      2  C   UNL     1      -1.256  11.718  20.938  0.00  0.00    +0.000 A 
ATOM      3  C   UNL     1      -1.877  12.334  22.032  0.00  0.00    +0.000 A 
ATOM      4  C   UNL     1      -3.123  12.942  21.884  0.00  0.00    +0.000 A 
ATOM      5  C   UNL     1      -3.764  12.966  20.645  0.00  0.00    +0.000 A 
ATOM      6  C   UNL     1      -3.168  12.323  19.558  0.00  0.00    +0.000 A 
ATOM      7  C   UNL     1      -1.929  11.668  19.709  0.00  0.00    +0.000 A 
ATOM      8  C   UNL     1      -1.272  10.984  18.545  0.00  0.00    +0.000 C 
ATOM      9  C   UNL     1      -0.160   9.972  18.895  0.00  0.00    +0.000 C 
ATOM     10  N   UNL     1       0.347   9.961  20.277  0.00  0.00    +0.000 N 
ATOM     11  C   UNL     1       1.128   8.964  20.874  0.00  0.00    +0.000 C 
ATOM     12  O   UNL     1       1.362   8.956  22.085  0.00  0.00    +0.000 OA
ENDROOT
BRANCH  11  13
ATOM     13  C   UNL     1       1.788   7.877  20.084  0.00  0.00    +0.000 A 
ATOM     14  C   UNL     1       2.269   8.184  18.800  0.00  0.00    +0.000 A 
ATOM     15  C   UNL     1       2.757   7.181  17.955  0.00  0.00    +0.000 A 
ATOM     16  C   UNL     1       2.782   5.857  18.390  0.00  0.00    +0.000 A 
ATOM     17  C   UNL     1       2.298   5.547  19.657  0.00  0.00    +0.000 A 
ATOM     18 CL   UNL     1       2.306   3.914  20.200  0.00  0.00    +0.000 Cl
ATOM     19  C   UNL     1       1.775   6.539  20.488  0.00  0.00    +0.000 A 
ENDBRANCH  11  13
BRANCH   1  21
ATOM     20  C   UNL     1       1.086  13.453  20.271  0.00  0.00    +0.000 C 
ATOM     21  C   UNL     1       1.247  12.162  20.597  0.00  0.00    +0.000 C 
BRANCH  20  25
ATOM     22  C   UNL     1       4.115  16.222  19.033  0.00  0.00    +0.000 A 
ATOM     23  C   UNL     1       2.904  16.123  18.347  0.00  0.00    +0.000 A 
ATOM     24  C   UNL     1       1.931  15.208  18.754  0.00  0.00    +0.000 A 
ATOM     25  C   UNL     1       2.162  14.357  19.841  0.00  0.00    +0.000 A 
ATOM     26  C   UNL     1       3.383  14.455  20.519  0.00  0.00    +0.000 A 
ATOM     27  C   UNL     1       4.354  15.380  20.117  0.00  0.00    +0.000 A 
BRANCH  22  29
ATOM     28  C   UNL     1       6.359  16.965  18.891  0.00  0.00    +0.000 C 
ATOM     29  O   UNL     1       4.994  17.145  18.534  0.00  0.00    +0.000 OA
ENDBRANCH  22  29
ENDBRANCH  20  25
ENDBRANCH   1  21
BRANCH   5  30
ATOM     30  O   UNL     1      -4.945  13.653  20.644  0.00  0.00    +0.000 OA
ATOM     31  C   UNL     1      -5.849  13.419  19.575  0.00  0.00    +0.000 C 
ENDBRANCH   5  30
TORSDOF 5
ENDMDL
