MODEL 1
REMARK VINA RESULT:      -6.8      0.000      0.000
REMARK  Name = 
REMARK  7 active torsions:
REMARK  status: ('A' for Active; 'I' for Inactive)
REMARK    1  A    between atoms: C_1  and  C_2
REMARK    2  A    between atoms: C_5  and  C_6
REMARK    3  A    between atoms: C_6  and  C_7
REMARK    4  A    between atoms: C_7  and  C_8
REMARK    5  A    between atoms: C_8  and  C_9
REMARK    6  A    between atoms: C_9  and  C_10
REMARK    7  A    between atoms: C_10  and  C_11
REMARK                            x       y       z     vdW  Elec       q    Type
REMARK                         _______ _______ _______ _____ _____    ______ ____
ROOT
ATOM      1  C   UNL     1       4.777   7.285  16.254  0.00  0.00    +0.000 C 
ATOM      2  C   UNL     1       4.237   6.666  17.510  0.00  0.00    +0.000 A 
ATOM      3  C   UNL     1       4.698   5.440  17.989  0.00  0.00    +0.000 A 
ATOM      4  C   UNL     1       4.191   4.870  19.151  0.00  0.00    +0.000 A 
ATOM      5  C   UNL     1       3.201   5.488  19.920  0.00  0.00    +0.000 A 
ATOM      6  C   UNL     1       2.737   6.735  19.447  0.00  0.00    +0.000 A 
ATOM      7  C   UNL     1       3.238   7.309  18.259  0.00  0.00    +0.000 A 
ATOM      8  O   UNL     1       2.779   8.520  17.788  0.00  0.00    +0.000 OA
ATOM      9  C   UNL     1       1.792   9.122  18.522  0.00  0.00    +0.000 A 
ATOM     10  C   UNL     1       1.282  10.338  18.062  0.00  0.00    +0.000 A 
ATOM     11  C   UNL     1       0.274  10.986  18.781  0.00  0.00    +0.000 A 
ATOM     12  C   UNL     1      -0.227  10.416  19.951  0.00  0.00    +0.000 A 
ATOM     13  C   UNL     1       0.286   9.200  20.409  0.00  0.00    +0.000 A 
ATOM     14  C   UNL     1       1.299   8.561  19.693  0.00  0.00    +0.000 A 
ATOM     15  O   UNL     1       1.779   7.382  20.196  0.00  0.00    +0.000 OA
ATOM     16  C   UNL     1       4.879   3.584  19.352  0.00  0.00    +0.000 C 
ATOM     17  O   UNL     1       4.719   2.782  20.247  0.00  0.00    +0.000 OA
ATOM     18  O   UNL     1       5.755   3.431  18.317  0.00  0.00    +0.000 OA
ATOM     19  C   UNL     1       5.747   4.558  17.428  0.00  0.00    +0.000 C 
ENDROOT
BRANCH   5  20
ATOM     20  C   UNL     1       2.669   4.885  21.204  0.00  0.00    +0.000 C 
BRANCH  20  21
ATOM     21  C   UNL     1       1.346   4.135  21.012  0.00  0.00    +0.000 C 
BRANCH  21  22
ATOM     22  C   UNL     1       1.474   2.626  21.248  0.00  0.00    +0.000 C 
BRANCH  22  23
ATOM     23  C   UNL     1       1.442   1.899  19.900  0.00  0.00    +0.000 C 
BRANCH  23  24
ATOM     24  C   UNL     1       0.775   2.716  18.797  0.00  0.00    +0.000 C 
BRANCH  24  25
ATOM     25  C   UNL     1       1.700   2.913  17.667  0.00  0.00    +0.000 C 
ATOM     26  N   UNL     1       2.420   3.064  16.773  0.00  0.00    +0.000 NA
ENDBRANCH  24  25
ENDBRANCH  23  24
ENDBRANCH  22  23
ENDBRANCH  21  22
ENDBRANCH  20  21
ENDBRANCH   5  20
TORSDOF 6
ENDMDL
MODEL 2
REMARK VINA RESULT:      -6.8      2.649      4.929
REMARK  Name = 
REMARK  7 active torsions:
REMARK  status: ('A' for Active; 'I' for Inactive)
REMARK    1  A    between atoms: C_1  and  C_2
REMARK    2  A    between atoms: C_5  and  C_6
REMARK    3  A    between atoms: C_6  and  C_7
REMARK    4  A    between atoms: C_7  and  C_8
REMARK    5  A    between atoms: C_8  and  C_9
REMARK    6  A    between atoms: C_9  and  C_10
REMARK    7  A    between atoms: C_10  and  C_11
REMARK                            x       y       z     vdW  Elec       q    Type
REMARK                         _______ _______ _______ _____ _____    ______ ____
ROOT
ATOM      1  C   UNL     1       1.571   4.534  20.894  0.00  0.00    +0.000 C 
ATOM      2  C   UNL     1       2.359   5.003  19.705  0.00  0.00    +0.000 A 
ATOM      3  C   UNL     1       3.163   4.139  18.963  0.00  0.00    +0.000 A 
ATOM      4  C   UNL     1       3.893   4.580  17.866  0.00  0.00    +0.000 A 
ATOM      5  C   UNL     1       3.861   5.906  17.426  0.00  0.00    +0.000 A 
ATOM      6  C   UNL     1       3.040   6.784  18.167  0.00  0.00    +0.000 A 
ATOM      7  C   UNL     1       2.311   6.344  19.292  0.00  0.00    +0.000 A 
ATOM      8  O   UNL     1       1.517   7.201  20.024  0.00  0.00    +0.000 OA
ATOM      9  C   UNL     1       1.499   8.509  19.616  0.00  0.00    +0.000 A 
ATOM     10  C   UNL     1       0.728   9.413  20.349  0.00  0.00    +0.000 A 
ATOM     11  C   UNL     1       0.681  10.756  19.967  0.00  0.00    +0.000 A 
ATOM     12  C   UNL     1       1.408  11.194  18.860  0.00  0.00    +0.000 A 
ATOM     13  C   UNL     1       2.177  10.287  18.128  0.00  0.00    +0.000 A 
ATOM     14  C   UNL     1       2.214   8.944  18.508  0.00  0.00    +0.000 A 
ATOM     15  O   UNL     1       2.967   8.094  17.745  0.00  0.00    +0.000 OA
ATOM     16  C   UNL     1       4.636   3.426  17.334  0.00  0.00    +0.000 C 
ATOM     17  O   UNL     1       5.391   3.394  16.385  0.00  0.00    +0.000 OA
ATOM     18  O   UNL     1       4.333   2.354  18.123  0.00  0.00    +0.000 OA
ATOM     19  C   UNL     1       3.386   2.687  19.149  0.00  0.00    +0.000 C 
ENDROOT
BRANCH   5  20
ATOM     20  C   UNL     1       4.631   6.383  16.212  0.00  0.00    +0.000 C 
BRANCH  20  21
ATOM     21  C   UNL     1       6.014   6.945  16.560  0.00  0.00    +0.000 C 
BRANCH  21  22
ATOM     22  C   UNL     1       6.562   6.406  17.885  0.00  0.00    +0.000 C 
BRANCH  22  23
ATOM     23  C   UNL     1       7.865   7.136  18.228  0.00  0.00    +0.000 C 
BRANCH  23  24
ATOM     24  C   UNL     1       7.932   8.543  17.643  0.00  0.00    +0.000 C 
BRANCH  24  25
ATOM     25  C   UNL     1       8.672   9.444  18.543  0.00  0.00    +0.000 C 
ATOM     26  N   UNL     1       9.253  10.145  19.259  0.00  0.00    +0.000 NA
ENDBRANCH  24  25
ENDBRANCH  23  24
ENDBRANCH  22  23
ENDBRANCH  21  22
ENDBRANCH  20  21
ENDBRANCH   5  20
TORSDOF 6
ENDMDL
MODEL 3
REMARK VINA RESULT:      -6.7      2.081      4.490
REMARK  Name = 
REMARK  7 active torsions:
REMARK  status: ('A' for Active; 'I' for Inactive)
REMARK    1  A    between atoms: C_1  and  C_2
REMARK    2  A    between atoms: C_5  and  C_6
REMARK    3  A    between atoms: C_6  and  C_7
REMARK    4  A    between atoms: C_7  and  C_8
REMARK    5  A    between atoms: C_8  and  C_9
REMARK    6  A    between atoms: C_9  and  C_10
REMARK    7  A    between atoms: C_10  and  C_11
REMARK                            x       y       z     vdW  Elec       q    Type
REMARK                         _______ _______ _______ _____ _____    ______ ____
ROOT
ATOM      1  C   UNL     1       1.673   3.794  21.527  0.00  0.00    +0.000 C 
ATOM      2  C   UNL     1       2.232   4.466  20.307  0.00  0.00    +0.000 A 
ATOM      3  C   UNL     1       2.956   3.766  19.343  0.00  0.00    +0.000 A 
ATOM      4  C   UNL     1       3.475   4.395  18.217  0.00  0.00    +0.000 A 
ATOM      5  C   UNL     1       3.296   5.759  17.970  0.00  0.00    +0.000 A 
ATOM      6  C   UNL     1       2.554   6.472  18.936  0.00  0.00    +0.000 A 
ATOM      7  C   UNL     1       2.040   5.840  20.089  0.00  0.00    +0.000 A 
ATOM      8  O   UNL     1       1.325   6.535  21.041  0.00  0.00    +0.000 OA
ATOM      9  C   UNL     1       1.166   7.878  20.819  0.00  0.00    +0.000 A 
ATOM     10  C   UNL     1       0.470   8.621  21.774  0.00  0.00    +0.000 A 
ATOM     11  C   UNL     1       0.284   9.993  21.587  0.00  0.00    +0.000 A 
ATOM     12  C   UNL     1       0.798  10.620  20.452  0.00  0.00    +0.000 A 
ATOM     13  C   UNL     1       1.492   9.873  19.498  0.00  0.00    +0.000 A 
ATOM     14  C   UNL     1       1.668   8.502  19.684  0.00  0.00    +0.000 A 
ATOM     15  O   UNL     1       2.338   7.813  18.709  0.00  0.00    +0.000 OA
ATOM     16  C   UNL     1       4.189   3.377  17.430  0.00  0.00    +0.000 C 
ATOM     17  O   UNL     1       4.784   3.523  16.382  0.00  0.00    +0.000 OA
ATOM     18  O   UNL     1       4.079   2.196  18.105  0.00  0.00    +0.000 OA
ATOM     19  C   UNL     1       3.291   2.325  19.297  0.00  0.00    +0.000 C 
ENDROOT
BRANCH   5  20
ATOM     20  C   UNL     1       3.833   6.441  16.728  0.00  0.00    +0.000 C 
BRANCH  20  21
ATOM     21  C   UNL     1       5.277   6.929  16.887  0.00  0.00    +0.000 C 
BRANCH  21  22
ATOM     22  C   UNL     1       6.280   6.105  16.074  0.00  0.00    +0.000 C 
BRANCH  22  23
ATOM     23  C   UNL     1       7.463   5.721  16.969  0.00  0.00    +0.000 C 
BRANCH  23  24
ATOM     24  C   UNL     1       7.629   6.651  18.168  0.00  0.00    +0.000 C 
BRANCH  24  25
ATOM     25  C   UNL     1       7.667   5.877  19.421  0.00  0.00    +0.000 C 
ATOM     26  N   UNL     1       7.706   5.268  20.405  0.00  0.00    +0.000 NA
ENDBRANCH  24  25
ENDBRANCH  23  24
ENDBRANCH  22  23
ENDBRANCH  21  22
ENDBRANCH  20  21
ENDBRANCH   5  20
TORSDOF 6
ENDMDL
MODEL 4
REMARK VINA RESULT:      -6.5      3.663      8.197
REMARK  Name = 
REMARK  7 active torsions:
REMARK  status: ('A' for Active; 'I' for Inactive)
REMARK    1  A    between atoms: C_1  and  C_2
REMARK    2  A    between atoms: C_5  and  C_6
REMARK    3  A    between atoms: C_6  and  C_7
REMARK    4  A    between atoms: C_7  and  C_8
REMARK    5  A    between atoms: C_8  and  C_9
REMARK    6  A    between atoms: C_9  and  C_10
REMARK    7  A    between atoms: C_10  and  C_11
REMARK                            x       y       z     vdW  Elec       q    Type
REMARK                         _______ _______ _______ _____ _____    ______ ____
ROOT
ATOM      1  C   UNL     1      -0.147   9.298  23.602  0.00  0.00    +0.000 C 
ATOM      2  C   UNL     1      -0.210  10.050  22.305  0.00  0.00    +0.000 A 
ATOM      3  C   UNL     1      -0.907  11.251  22.179  0.00  0.00    +0.000 A 
ATOM      4  C   UNL     1      -0.964  11.941  20.973  0.00  0.00    +0.000 A 
ATOM      5  C   UNL     1      -0.321  11.489  19.818  0.00  0.00    +0.000 A 
ATOM      6  C   UNL     1       0.397  10.279  19.942  0.00  0.00    +0.000 A 
ATOM      7  C   UNL     1       0.443   9.567  21.159  0.00  0.00    +0.000 A 
ATOM      8  O   UNL     1       1.132   8.379  21.281  0.00  0.00    +0.000 OA
ATOM      9  C   UNL     1       1.745   7.915  20.147  0.00  0.00    +0.000 A 
ATOM     10  C   UNL     1       2.431   6.702  20.223  0.00  0.00    +0.000 A 
ATOM     11  C   UNL     1       3.071   6.192  19.091  0.00  0.00    +0.000 A 
ATOM     12  C   UNL     1       3.019   6.891  17.884  0.00  0.00    +0.000 A 
ATOM     13  C   UNL     1       2.334   8.106  17.812  0.00  0.00    +0.000 A 
ATOM     14  C   UNL     1       1.703   8.615  18.948  0.00  0.00    +0.000 A 
ATOM     15  O   UNL     1       1.063   9.818  18.827  0.00  0.00    +0.000 OA
ATOM     16  C   UNL     1      -1.787  13.142  21.188  0.00  0.00    +0.000 C 
ATOM     17  O   UNL     1      -2.082  14.001  20.384  0.00  0.00    +0.000 OA
ATOM     18  O   UNL     1      -2.191  13.125  22.492  0.00  0.00    +0.000 OA
ATOM     19  C   UNL     1      -1.660  12.001  23.209  0.00  0.00    +0.000 C 
ENDROOT
BRANCH   5  20
ATOM     20  C   UNL     1      -0.355  12.255  18.511  0.00  0.00    +0.000 C 
BRANCH  20  21
ATOM     21  C   UNL     1      -1.657  12.049  17.729  0.00  0.00    +0.000 C 
BRANCH  21  22
ATOM     22  C   UNL     1      -1.903  10.585  17.350  0.00  0.00    +0.000 C 
BRANCH  22  23
ATOM     23  C   UNL     1      -3.410  10.313  17.333  0.00  0.00    +0.000 C 
BRANCH  23  24
ATOM     24  C   UNL     1      -4.091  10.807  16.060  0.00  0.00    +0.000 C 
BRANCH  24  25
ATOM     25  C   UNL     1      -3.344  10.366  14.869  0.00  0.00    +0.000 C 
ATOM     26  N   UNL     1      -2.755  10.010  13.937  0.00  0.00    +0.000 NA
ENDBRANCH  24  25
ENDBRANCH  23  24
ENDBRANCH  22  23
ENDBRANCH  21  22
ENDBRANCH  20  21
ENDBRANCH   5  20
TORSDOF 6
ENDMDL
MODEL 5
REMARK VINA RESULT:      -6.4      2.067      4.410
REMARK  Name = 
REMARK  7 active torsions:
REMARK  status: ('A' for Active; 'I' for Inactive)
REMARK    1  A    between atoms: C_1  and  C_2
REMARK    2  A    between atoms: C_5  and  C_6
REMARK    3  A    between atoms: C_6  and  C_7
REMARK    4  A    between atoms: C_7  and  C_8
REMARK    5  A    between atoms: C_8  and  C_9
REMARK    6  A    between atoms: C_9  and  C_10
REMARK    7  A    between atoms: C_10  and  C_11
REMARK                            x       y       z     vdW  Elec       q    Type
REMARK                         _______ _______ _______ _____ _____    ______ ____
ROOT
ATOM      1  C   UNL     1       1.483   3.621  21.549  0.00  0.00    +0.000 C 
ATOM      2  C   UNL     1       2.130   4.279  20.366  0.00  0.00    +0.000 A 
ATOM      3  C   UNL     1       2.889   3.561  19.442  0.00  0.00    +0.000 A 
ATOM      4  C   UNL     1       3.488   4.178  18.350  0.00  0.00    +0.000 A 
ATOM      5  C   UNL     1       3.361   5.547  18.098  0.00  0.00    +0.000 A 
ATOM      6  C   UNL     1       2.584   6.278  19.023  0.00  0.00    +0.000 A 
ATOM      7  C   UNL     1       1.988   5.658  20.142  0.00  0.00    +0.000 A 
ATOM      8  O   UNL     1       1.239   6.371  21.054  0.00  0.00    +0.000 OA
ATOM      9  C   UNL     1       1.130   7.718  20.828  0.00  0.00    +0.000 A 
ATOM     10  C   UNL     1       0.401   8.478  21.745  0.00  0.00    +0.000 A 
ATOM     11  C   UNL     1       0.264   9.855  21.552  0.00  0.00    +0.000 A 
ATOM     12  C   UNL     1       0.860  10.470  20.450  0.00  0.00    +0.000 A 
ATOM     13  C   UNL     1       1.587   9.706  19.535  0.00  0.00    +0.000 A 
ATOM     14  C   UNL     1       1.714   8.330  19.726  0.00  0.00    +0.000 A 
ATOM     15  O   UNL     1       2.419   7.625  18.789  0.00  0.00    +0.000 OA
ATOM     16  C   UNL     1       4.218   3.142  17.601  0.00  0.00    +0.000 C 
ATOM     17  O   UNL     1       4.875   3.273  16.590  0.00  0.00    +0.000 OA
ATOM     18  O   UNL     1       4.037   1.963  18.264  0.00  0.00    +0.000 OA
ATOM     19  C   UNL     1       3.186   2.112  19.410  0.00  0.00    +0.000 C 
ENDROOT
BRANCH   5  20
ATOM     20  C   UNL     1       3.987   6.216  16.891  0.00  0.00    +0.000 C 
BRANCH  20  21
ATOM     21  C   UNL     1       5.373   6.803  17.181  0.00  0.00    +0.000 C 
BRANCH  21  22
ATOM     22  C   UNL     1       6.498   6.071  16.441  0.00  0.00    +0.000 C 
BRANCH  22  23
ATOM     23  C   UNL     1       5.988   5.610  15.073  0.00  0.00    +0.000 C 
BRANCH  23  24
ATOM     24  C   UNL     1       7.036   4.842  14.273  0.00  0.00    +0.000 C 
BRANCH  24  25
ATOM     25  C   UNL     1       6.390   3.964  13.281  0.00  0.00    +0.000 C 
ATOM     26  N   UNL     1       5.892   3.270  12.500  0.00  0.00    +0.000 NA
ENDBRANCH  24  25
ENDBRANCH  23  24
ENDBRANCH  22  23
ENDBRANCH  21  22
ENDBRANCH  20  21
ENDBRANCH   5  20
TORSDOF 6
ENDMDL
MODEL 6
REMARK VINA RESULT:      -6.1      1.714      5.033
REMARK  Name = 
REMARK  7 active torsions:
REMARK  status: ('A' for Active; 'I' for Inactive)
REMARK    1  A    between atoms: C_1  and  C_2
REMARK    2  A    between atoms: C_5  and  C_6
REMARK    3  A    between atoms: C_6  and  C_7
REMARK    4  A    between atoms: C_7  and  C_8
REMARK    5  A    between atoms: C_8  and  C_9
REMARK    6  A    between atoms: C_9  and  C_10
REMARK    7  A    between atoms: C_10  and  C_11
REMARK                            x       y       z     vdW  Elec       q    Type
REMARK                         _______ _______ _______ _____ _____    ______ ____
ROOT
ATOM      1  C   UNL     1       2.415  10.242  17.419  0.00  0.00    +0.000 C 
ATOM      2  C   UNL     1       2.255   9.063  18.334  0.00  0.00    +0.000 A 
ATOM      3  C   UNL     1       1.420   9.100  19.450  0.00  0.00    +0.000 A 
ATOM      4  C   UNL     1       1.280   8.006  20.296  0.00  0.00    +0.000 A 
ATOM      5  C   UNL     1       1.949   6.799  20.079  0.00  0.00    +0.000 A 
ATOM      6  C   UNL     1       2.788   6.750  18.944  0.00  0.00    +0.000 A 
ATOM      7  C   UNL     1       2.946   7.864  18.093  0.00  0.00    +0.000 A 
ATOM      8  O   UNL     1       3.772   7.825  16.991  0.00  0.00    +0.000 OA
ATOM      9  C   UNL     1       4.452   6.653  16.784  0.00  0.00    +0.000 A 
ATOM     10  C   UNL     1       5.320   6.583  15.693  0.00  0.00    +0.000 A 
ATOM     11  C   UNL     1       6.033   5.408  15.445  0.00  0.00    +0.000 A 
ATOM     12  C   UNL     1       5.883   4.308  16.291  0.00  0.00    +0.000 A 
ATOM     13  C   UNL     1       5.013   4.381  17.381  0.00  0.00    +0.000 A 
ATOM     14  C   UNL     1       4.297   5.554  17.619  0.00  0.00    +0.000 A 
ATOM     15  O   UNL     1       3.443   5.566  18.689  0.00  0.00    +0.000 OA
ATOM     16  C   UNL     1       0.349   8.391  21.370  0.00  0.00    +0.000 C 
ATOM     17  O   UNL     1      -0.031   7.722  22.307  0.00  0.00    +0.000 OA
ATOM     18  O   UNL     1      -0.023   9.683  21.134  0.00  0.00    +0.000 OA
ATOM     19  C   UNL     1       0.562  10.206  19.933  0.00  0.00    +0.000 C 
ENDROOT
BRANCH   5  20
ATOM     20  C   UNL     1       1.774   5.594  20.982  0.00  0.00    +0.000 C 
BRANCH  20  21
ATOM     21  C   UNL     1       0.866   4.518  20.378  0.00  0.00    +0.000 C 
BRANCH  21  22
ATOM     22  C   UNL     1       1.270   3.097  20.787  0.00  0.00    +0.000 C 
BRANCH  22  23
ATOM     23  C   UNL     1       1.265   2.193  19.550  0.00  0.00    +0.000 C 
BRANCH  23  24
ATOM     24  C   UNL     1       2.598   2.192  18.807  0.00  0.00    +0.000 C 
BRANCH  24  25
ATOM     25  C   UNL     1       3.721   2.138  19.759  0.00  0.00    +0.000 C 
ATOM     26  N   UNL     1       4.599   2.088  20.512  0.00  0.00    +0.000 NA
ENDBRANCH  24  25
ENDBRANCH  23  24
ENDBRANCH  22  23
ENDBRANCH  21  22
ENDBRANCH  20  21
ENDBRANCH   5  20
TORSDOF 6
ENDMDL
MODEL 7
REMARK VINA RESULT:      -6.1      3.932      8.386
REMARK  Name = 
REMARK  7 active torsions:
REMARK  status: ('A' for Active; 'I' for Inactive)
REMARK    1  A    between atoms: C_1  and  C_2
REMARK    2  A    between atoms: C_5  and  C_6
REMARK    3  A    between atoms: C_6  and  C_7
REMARK    4  A    between atoms: C_7  and  C_8
REMARK    5  A    between atoms: C_8  and  C_9
REMARK    6  A    between atoms: C_9  and  C_10
REMARK    7  A    between atoms: C_10  and  C_11
REMARK                            x       y       z     vdW  Elec       q    Type
REMARK                         _______ _______ _______ _____ _____    ______ ____
ROOT
ATOM      1  C   UNL     1      -0.059   9.352  23.600  0.00  0.00    +0.000 C 
ATOM      2  C   UNL     1      -0.174  10.080  22.292  0.00  0.00    +0.000 A 
ATOM      3  C   UNL     1      -0.904  11.261  22.164  0.00  0.00    +0.000 A 
ATOM      4  C   UNL     1      -1.010  11.928  20.949  0.00  0.00    +0.000 A 
ATOM      5  C   UNL     1      -0.386  11.471  19.785  0.00  0.00    +0.000 A 
ATOM      6  C   UNL     1       0.363  10.282  19.910  0.00  0.00    +0.000 A 
ATOM      7  C   UNL     1       0.459   9.593  21.137  0.00  0.00    +0.000 A 
ATOM      8  O   UNL     1       1.180   8.424  21.261  0.00  0.00    +0.000 OA
ATOM      9  C   UNL     1       1.775   7.955  20.119  0.00  0.00    +0.000 A 
ATOM     10  C   UNL     1       2.492   6.760  20.197  0.00  0.00    +0.000 A 
ATOM     11  C   UNL     1       3.114   6.246  19.057  0.00  0.00    +0.000 A 
ATOM     12  C   UNL     1       3.013   6.923  17.841  0.00  0.00    +0.000 A 
ATOM     13  C   UNL     1       2.296   8.118  17.766  0.00  0.00    +0.000 A 
ATOM     14  C   UNL     1       1.684   8.633  18.909  0.00  0.00    +0.000 A 
ATOM     15  O   UNL     1       1.011   9.818  18.786  0.00  0.00    +0.000 OA
ATOM     16  C   UNL     1      -1.857  13.113  21.165  0.00  0.00    +0.000 C 
ATOM     17  O   UNL     1      -2.194  13.950  20.355  0.00  0.00    +0.000 OA
ATOM     18  O   UNL     1      -2.225  13.109  22.480  0.00  0.00    +0.000 OA
ATOM     19  C   UNL     1      -1.648  12.011  23.201  0.00  0.00    +0.000 C 
ENDROOT
BRANCH   5  20
ATOM     20  C   UNL     1      -0.474  12.213  18.466  0.00  0.00    +0.000 C 
BRANCH  20  21
ATOM     21  C   UNL     1      -1.781  11.944  17.712  0.00  0.00    +0.000 C 
BRANCH  21  22
ATOM     22  C   UNL     1      -2.070  10.450  17.530  0.00  0.00    +0.000 C 
BRANCH  22  23
ATOM     23  C   UNL     1      -3.201  10.274  16.512  0.00  0.00    +0.000 C 
BRANCH  23  24
ATOM     24  C   UNL     1      -4.279  11.347  16.627  0.00  0.00    +0.000 C 
BRANCH  24  25
ATOM     25  C   UNL     1      -5.243  11.001  17.686  0.00  0.00    +0.000 C 
ATOM     26  N   UNL     1      -6.009  10.731  18.513  0.00  0.00    +0.000 NA
ENDBRANCH  24  25
ENDBRANCH  23  24
ENDBRANCH  22  23
ENDBRANCH  21  22
ENDBRANCH  20  21
ENDBRANCH   5  20
TORSDOF 6
ENDMDL
MODEL 8
REMARK VINA RESULT:      -6.1      8.578     10.676
REMARK  Name = 
REMARK  7 active torsions:
REMARK  status: ('A' for Active; 'I' for Inactive)
REMARK    1  A    between atoms: C_1  and  C_2
REMARK    2  A    between atoms: C_5  and  C_6
REMARK    3  A    between atoms: C_6  and  C_7
REMARK    4  A    between atoms: C_7  and  C_8
REMARK    5  A    between atoms: C_8  and  C_9
REMARK    6  A    between atoms: C_9  and  C_10
REMARK    7  A    between atoms: C_10  and  C_11
REMARK                            x       y       z     vdW  Elec       q    Type
REMARK                         _______ _______ _______ _____ _____    ______ ____
ROOT
ATOM      1  C   UNL     1       6.169  15.984  19.614  0.00  0.00    +0.000 C 
ATOM      2  C   UNL     1       7.498  15.308  19.788  0.00  0.00    +0.000 A 
ATOM      3  C   UNL     1       8.560  15.528  18.911  0.00  0.00    +0.000 A 
ATOM      4  C   UNL     1       9.787  14.895  19.075  0.00  0.00    +0.000 A 
ATOM      5  C   UNL     1      10.042  14.013  20.128  0.00  0.00    +0.000 A 
ATOM      6  C   UNL     1       8.974  13.794  21.026  0.00  0.00    +0.000 A 
ATOM      7  C   UNL     1       7.722  14.421  20.854  0.00  0.00    +0.000 A 
ATOM      8  O   UNL     1       6.674  14.202  21.721  0.00  0.00    +0.000 OA
ATOM      9  C   UNL     1       6.907  13.319  22.743  0.00  0.00    +0.000 A 
ATOM     10  C   UNL     1       5.860  13.049  23.627  0.00  0.00    +0.000 A 
ATOM     11  C   UNL     1       6.055  12.156  24.683  0.00  0.00    +0.000 A 
ATOM     12  C   UNL     1       7.290  11.529  24.850  0.00  0.00    +0.000 A 
ATOM     13  C   UNL     1       8.335  11.802  23.964  0.00  0.00    +0.000 A 
ATOM     14  C   UNL     1       8.139  12.702  22.916  0.00  0.00    +0.000 A 
ATOM     15  O   UNL     1       9.202  12.949  22.090  0.00  0.00    +0.000 OA
ATOM     16  C   UNL     1      10.663  15.335  17.977  0.00  0.00    +0.000 C 
ATOM     17  O   UNL     1      11.811  15.009  17.759  0.00  0.00    +0.000 OA
ATOM     18  O   UNL     1       9.939  16.196  17.205  0.00  0.00    +0.000 OA
ATOM     19  C   UNL     1       8.620  16.415  17.728  0.00  0.00    +0.000 C 
ENDROOT
BRANCH   5  20
ATOM     20  C   UNL     1      11.388  13.346  20.327  0.00  0.00    +0.000 C 
BRANCH  20  21
ATOM     21  C   UNL     1      11.384  11.860  19.954  0.00  0.00    +0.000 C 
BRANCH  21  22
ATOM     22  C   UNL     1      11.552  11.621  18.450  0.00  0.00    +0.000 C 
BRANCH  22  23
ATOM     23  C   UNL     1      10.203  11.212  17.848  0.00  0.00    +0.000 C 
BRANCH  23  24
ATOM     24  C   UNL     1       9.275  10.550  18.862  0.00  0.00    +0.000 C 
BRANCH  24  25
ATOM     25  C   UNL     1       8.509   9.462  18.229  0.00  0.00    +0.000 C 
ATOM     26  N   UNL     1       7.900   8.613  17.728  0.00  0.00    +0.000 NA
ENDBRANCH  24  25
ENDBRANCH  23  24
ENDBRANCH  22  23
ENDBRANCH  21  22
ENDBRANCH  20  21
ENDBRANCH   5  20
TORSDOF 6
ENDMDL
MODEL 9
REMARK VINA RESULT:      -6.0      4.951      8.002
REMARK  Name = 
REMARK  7 active torsions:
REMARK  status: ('A' for Active; 'I' for Inactive)
REMARK    1  A    between atoms: C_1  and  C_2
REMARK    2  A    between atoms: C_5  and  C_6
REMARK    3  A    between atoms: C_6  and  C_7
REMARK    4  A    between atoms: C_7  and  C_8
REMARK    5  A    between atoms: C_8  and  C_9
REMARK    6  A    between atoms: C_9  and  C_10
REMARK    7  A    between atoms: C_10  and  C_11
REMARK                            x       y       z     vdW  Elec       q    Type
REMARK                         _______ _______ _______ _____ _____    ______ ____
ROOT
ATOM      1  C   UNL     1      -0.131   9.334  23.536  0.00  0.00    +0.000 C 
ATOM      2  C   UNL     1      -0.234  10.012  22.201  0.00  0.00    +0.000 A 
ATOM      3  C   UNL     1       0.443   9.542  21.077  0.00  0.00    +0.000 A 
ATOM      4  C   UNL     1       0.346  10.178  19.845  0.00  0.00    +0.000 A 
ATOM      5  C   UNL     1      -0.442  11.315  19.647  0.00  0.00    +0.000 A 
ATOM      6  C   UNL     1      -1.140  11.790  20.778  0.00  0.00    +0.000 A 
ATOM      7  C   UNL     1      -1.030  11.158  22.035  0.00  0.00    +0.000 A 
ATOM      8  O   UNL     1      -1.701  11.625  23.145  0.00  0.00    +0.000 OA
ATOM      9  C   UNL     1      -2.456  12.754  22.966  0.00  0.00    +0.000 A 
ATOM     10  C   UNL     1      -3.129  13.274  24.073  0.00  0.00    +0.000 A 
ATOM     11  C   UNL     1      -3.911  14.424  23.935  0.00  0.00    +0.000 A 
ATOM     12  C   UNL     1      -4.014  15.054  22.695  0.00  0.00    +0.000 A 
ATOM     13  C   UNL     1      -3.340  14.531  21.589  0.00  0.00    +0.000 A 
ATOM     14  C   UNL     1      -2.568  13.378  21.729  0.00  0.00    +0.000 A 
ATOM     15  O   UNL     1      -1.945  12.895  20.610  0.00  0.00    +0.000 OA
ATOM     16  C   UNL     1       1.193   9.437  18.895  0.00  0.00    +0.000 C 
ATOM     17  O   UNL     1       1.383   9.673  17.721  0.00  0.00    +0.000 OA
ATOM     18  O   UNL     1       1.761   8.405  19.584  0.00  0.00    +0.000 OA
ATOM     19  C   UNL     1       1.324   8.360  20.951  0.00  0.00    +0.000 C 
ENDROOT
BRANCH   5  20
ATOM     20  C   UNL     1      -0.575  11.992  18.297  0.00  0.00    +0.000 C 
BRANCH  20  21
ATOM     21  C   UNL     1      -1.887  11.653  17.582  0.00  0.00    +0.000 C 
BRANCH  21  22
ATOM     22  C   UNL     1      -2.157  10.146  17.510  0.00  0.00    +0.000 C 
BRANCH  22  23
ATOM     23  C   UNL     1      -3.670   9.904  17.486  0.00  0.00    +0.000 C 
BRANCH  23  24
ATOM     24  C   UNL     1      -4.479  11.195  17.404  0.00  0.00    +0.000 C 
BRANCH  24  25
ATOM     25  C   UNL     1      -5.812  11.009  18.005  0.00  0.00    +0.000 C 
ATOM     26  N   UNL     1      -6.862  10.858  18.468  0.00  0.00    +0.000 NA
ENDBRANCH  24  25
ENDBRANCH  23  24
ENDBRANCH  22  23
ENDBRANCH  21  22
ENDBRANCH  20  21
ENDBRANCH   5  20
TORSDOF 6
ENDMDL
