MODEL 1
REMARK VINA RESULT:      -7.9      0.000      0.000
REMARK  Name = 
REMARK  4 active torsions:
REMARK  status: ('A' for Active; 'I' for Inactive)
REMARK    1  A    between atoms: C_1  and  O_2
REMARK    2  A    between atoms: O_2  and  C_3
REMARK    3  A    between atoms: C_6  and  C_7
REMARK    4  A    between atoms: C_13  and  C_15
REMARK                            x       y       z     vdW  Elec       q    Type
REMARK                         _______ _______ _______ _____ _____    ______ ____
ROOT
ATOM      1  C   UNL     1       2.114   7.104  19.863  0.00  0.00    +0.000 C 
ATOM      2  C   UNL     1       1.612   5.985  20.800  0.00  0.00    +0.000 C 
ATOM      3  C   UNL     1       2.188   4.587  20.543  0.00  0.00    +0.000 C 
ATOM      4  C   UNL     1       1.656   3.969  19.251  0.00  0.00    +0.000 C 
ATOM      5  C   UNL     1       2.473   4.323  18.010  0.00  0.00    +0.000 C 
ATOM      6  N   UNL     1       2.925   5.716  17.930  0.00  0.00    +0.000 N 
ATOM      7  C   UNL     1       4.182   6.126  17.479  0.00  0.00    +0.000 C 
ATOM      8  O   UNL     1       4.481   7.329  17.478  0.00  0.00    +0.000 OA
ATOM      9  C   UNL     1       1.973   6.755  18.361  0.00  0.00    +0.000 C 
ENDROOT
BRANCH   1  13
ATOM     10  C   UNL     1       0.080  10.765  21.076  0.00  0.00    +0.000 A 
ATOM     11  C   UNL     1       0.304   9.729  21.980  0.00  0.00    +0.000 A 
ATOM     12  C   UNL     1       0.982   8.573  21.582  0.00  0.00    +0.000 A 
ATOM     13  C   UNL     1       1.425   8.412  20.259  0.00  0.00    +0.000 A 
ATOM     14  C   UNL     1       1.162   9.447  19.348  0.00  0.00    +0.000 A 
ATOM     15  C   UNL     1       0.502  10.617  19.756  0.00  0.00    +0.000 A 
BRANCH  10  17
ATOM     16  C   UNL     1      -1.164  11.670  22.868  0.00  0.00    +0.000 C 
ATOM     17  O   UNL     1      -0.593  11.846  21.577  0.00  0.00    +0.000 OA
ENDBRANCH  10  17
ENDBRANCH   1  13
BRANCH   7  18
ATOM     18  C   UNL     1       5.183   5.081  16.968  0.00  0.00    +0.000 C 
ATOM     19  C   UNL     1       6.500   5.166  17.763  0.00  0.00    +0.000 C 
ATOM     20  C   UNL     1       7.618   4.373  17.105  0.00  0.00    +0.000 C 
ATOM     21  O   UNL     1       7.778   4.771  15.747  0.00  0.00    +0.000 OA
ATOM     22  C   UNL     1       6.626   4.452  14.973  0.00  0.00    +0.000 C 
ATOM     23  C   UNL     1       5.406   5.228  15.456  0.00  0.00    +0.000 C 
ENDBRANCH   7  18
TORSDOF 3
ENDMDL
MODEL 2
REMARK VINA RESULT:      -7.8      0.240      1.029
REMARK  Name = 
REMARK  4 active torsions:
REMARK  status: ('A' for Active; 'I' for Inactive)
REMARK    1  A    between atoms: C_1  and  O_2
REMARK    2  A    between atoms: O_2  and  C_3
REMARK    3  A    between atoms: C_6  and  C_7
REMARK    4  A    between atoms: C_13  and  C_15
REMARK                            x       y       z     vdW  Elec       q    Type
REMARK                         _______ _______ _______ _____ _____    ______ ____
ROOT
ATOM      1  C   UNL     1       2.124   7.012  19.921  0.00  0.00    +0.000 C 
ATOM      2  C   UNL     1       1.609   5.822  20.759  0.00  0.00    +0.000 C 
ATOM      3  C   UNL     1       2.159   4.444  20.373  0.00  0.00    +0.000 C 
ATOM      4  C   UNL     1       1.607   3.952  19.035  0.00  0.00    +0.000 C 
ATOM      5  C   UNL     1       2.421   4.403  17.824  0.00  0.00    +0.000 C 
ATOM      6  N   UNL     1       2.896   5.790  17.865  0.00  0.00    +0.000 N 
ATOM      7  C   UNL     1       4.157   6.218  17.441  0.00  0.00    +0.000 C 
ATOM      8  O   UNL     1       4.476   7.411  17.545  0.00  0.00    +0.000 OA
ATOM      9  C   UNL     1       1.965   6.802  18.395  0.00  0.00    +0.000 C 
ENDROOT
BRANCH   1  13
ATOM     10  C   UNL     1       0.295  10.722  21.302  0.00  0.00    +0.000 A 
ATOM     11  C   UNL     1       0.598  10.523  19.957  0.00  0.00    +0.000 A 
ATOM     12  C   UNL     1       1.160   9.317  19.527  0.00  0.00    +0.000 A 
ATOM     13  C   UNL     1       1.460   8.291  20.438  0.00  0.00    +0.000 A 
ATOM     14  C   UNL     1       1.183   8.517  21.795  0.00  0.00    +0.000 A 
ATOM     15  C   UNL     1       0.597   9.719  22.221  0.00  0.00    +0.000 A 
BRANCH  10  17
ATOM     16  C   UNL     1      -1.101  11.962  22.747  0.00  0.00    +0.000 C 
ATOM     17  O   UNL     1      -0.251  11.939  21.607  0.00  0.00    +0.000 OA
ENDBRANCH  10  17
ENDBRANCH   1  13
BRANCH   7  18
ATOM     18  C   UNL     1       5.136   5.206  16.830  0.00  0.00    +0.000 C 
ATOM     19  C   UNL     1       6.451   5.180  17.632  0.00  0.00    +0.000 C 
ATOM     20  C   UNL     1       7.553   4.432  16.900  0.00  0.00    +0.000 C 
ATOM     21  O   UNL     1       7.729   4.960  15.590  0.00  0.00    +0.000 OA
ATOM     22  C   UNL     1       6.574   4.748  14.785  0.00  0.00    +0.000 C 
ATOM     23  C   UNL     1       5.370   5.500  15.340  0.00  0.00    +0.000 C 
ENDBRANCH   7  18
TORSDOF 3
ENDMDL
MODEL 3
REMARK VINA RESULT:      -7.3      0.950      1.483
REMARK  Name = 
REMARK  4 active torsions:
REMARK  status: ('A' for Active; 'I' for Inactive)
REMARK    1  A    between atoms: C_1  and  O_2
REMARK    2  A    between atoms: O_2  and  C_3
REMARK    3  A    between atoms: C_6  and  C_7
REMARK    4  A    between atoms: C_13  and  C_15
REMARK                            x       y       z     vdW  Elec       q    Type
REMARK                         _______ _______ _______ _____ _____    ______ ____
ROOT
ATOM      1  C   UNL     1       1.990   7.563  19.595  0.00  0.00    +0.000 C 
ATOM      2  C   UNL     1       1.498   6.627  20.720  0.00  0.00    +0.000 C 
ATOM      3  C   UNL     1       2.115   5.223  20.740  0.00  0.00    +0.000 C 
ATOM      4  C   UNL     1       1.626   4.357  19.581  0.00  0.00    +0.000 C 
ATOM      5  C   UNL     1       2.458   4.495  18.307  0.00  0.00    +0.000 C 
ATOM      6  N   UNL     1       2.875   5.860  17.972  0.00  0.00    +0.000 N 
ATOM      7  C   UNL     1       4.130   6.214  17.471  0.00  0.00    +0.000 C 
ATOM      8  O   UNL     1       4.397   7.404  17.246  0.00  0.00    +0.000 OA
ATOM      9  C   UNL     1       1.888   6.933  18.185  0.00  0.00    +0.000 C 
ENDROOT
BRANCH   1  13
ATOM     10  C   UNL     1       0.004  11.433  19.902  0.00  0.00    +0.000 A 
ATOM     11  C   UNL     1       0.789  11.110  18.798  0.00  0.00    +0.000 A 
ATOM     12  C   UNL     1       1.397   9.854  18.702  0.00  0.00    +0.000 A 
ATOM     13  C   UNL     1       1.259   8.902  19.726  0.00  0.00    +0.000 A 
ATOM     14  C   UNL     1       0.496   9.253  20.850  0.00  0.00    +0.000 A 
ATOM     15  C   UNL     1      -0.133  10.505  20.932  0.00  0.00    +0.000 A 
BRANCH  10  17
ATOM     16  C   UNL     1       0.389  13.761  19.984  0.00  0.00    +0.000 C 
ATOM     17  O   UNL     1      -0.540  12.688  19.888  0.00  0.00    +0.000 OA
ENDBRANCH  10  17
ENDBRANCH   1  13
BRANCH   7  18
ATOM     18  C   UNL     1       5.168   5.122  17.182  0.00  0.00    +0.000 C 
ATOM     19  C   UNL     1       6.437   5.349  18.026  0.00  0.00    +0.000 C 
ATOM     20  C   UNL     1       7.597   4.486  17.560  0.00  0.00    +0.000 C 
ATOM     21  O   UNL     1       7.832   4.676  16.168  0.00  0.00    +0.000 OA
ATOM     22  C   UNL     1       6.729   4.223  15.389  0.00  0.00    +0.000 C 
ATOM     23  C   UNL     1       5.477   5.041  15.679  0.00  0.00    +0.000 C 
ENDBRANCH   7  18
TORSDOF 3
ENDMDL
MODEL 4
REMARK VINA RESULT:      -7.2      1.376      7.885
REMARK  Name = 
REMARK  4 active torsions:
REMARK  status: ('A' for Active; 'I' for Inactive)
REMARK    1  A    between atoms: C_1  and  O_2
REMARK    2  A    between atoms: O_2  and  C_3
REMARK    3  A    between atoms: C_6  and  C_7
REMARK    4  A    between atoms: C_13  and  C_15
REMARK                            x       y       z     vdW  Elec       q    Type
REMARK                         _______ _______ _______ _____ _____    ______ ____
ROOT
ATOM      1  C   UNL     1       3.199   5.416  17.868  0.00  0.00    +0.000 C 
ATOM      2  C   UNL     1       2.455   4.067  17.960  0.00  0.00    +0.000 C 
ATOM      3  C   UNL     1       1.206   4.050  18.850  0.00  0.00    +0.000 C 
ATOM      4  C   UNL     1       1.550   4.147  20.335  0.00  0.00    +0.000 C 
ATOM      5  C   UNL     1       1.665   5.580  20.854  0.00  0.00    +0.000 C 
ATOM      6  N   UNL     1       2.350   6.520  19.961  0.00  0.00    +0.000 N 
ATOM      7  C   UNL     1       1.959   7.842  19.737  0.00  0.00    +0.000 C 
ATOM      8  O   UNL     1       2.588   8.550  18.937  0.00  0.00    +0.000 OA
ATOM      9  C   UNL     1       3.542   6.022  19.251  0.00  0.00    +0.000 C 
ENDROOT
BRANCH   1  13
ATOM     10  C   UNL     1       6.650   5.028  15.231  0.00  0.00    +0.000 A 
ATOM     11  C   UNL     1       6.338   6.242  15.839  0.00  0.00    +0.000 A 
ATOM     12  C   UNL     1       5.244   6.343  16.703  0.00  0.00    +0.000 A 
ATOM     13  C   UNL     1       4.416   5.237  16.956  0.00  0.00    +0.000 A 
ATOM     14  C   UNL     1       4.719   4.029  16.310  0.00  0.00    +0.000 A 
ATOM     15  C   UNL     1       5.832   3.924  15.462  0.00  0.00    +0.000 A 
BRANCH  10  17
ATOM     16  C   UNL     1       7.461   4.938  13.016  0.00  0.00    +0.000 C 
ATOM     17  O   UNL     1       7.741   5.048  14.407  0.00  0.00    +0.000 OA
ENDBRANCH  10  17
ENDBRANCH   1  13
BRANCH   7  18
ATOM     18  C   UNL     1       0.757   8.417  20.498  0.00  0.00    +0.000 C 
ATOM     19  C   UNL     1       0.196   9.651  19.764  0.00  0.00    +0.000 C 
ATOM     20  C   UNL     1      -0.786  10.430  20.622  0.00  0.00    +0.000 C 
ATOM     21  O   UNL     1      -0.197  10.766  21.873  0.00  0.00    +0.000 OA
ATOM     22  C   UNL     1       0.087   9.603  22.644  0.00  0.00    +0.000 C 
ATOM     23  C   UNL     1       1.128   8.728  21.956  0.00  0.00    +0.000 C 
ENDBRANCH   7  18
TORSDOF 3
ENDMDL
MODEL 5
REMARK VINA RESULT:      -7.1      1.469      7.903
REMARK  Name = 
REMARK  4 active torsions:
REMARK  status: ('A' for Active; 'I' for Inactive)
REMARK    1  A    between atoms: C_1  and  O_2
REMARK    2  A    between atoms: O_2  and  C_3
REMARK    3  A    between atoms: C_6  and  C_7
REMARK    4  A    between atoms: C_13  and  C_15
REMARK                            x       y       z     vdW  Elec       q    Type
REMARK                         _______ _______ _______ _____ _____    ______ ____
ROOT
ATOM      1  C   UNL     1       2.942   5.377  17.972  0.00  0.00    +0.000 C 
ATOM      2  C   UNL     1       2.249   4.024  18.240  0.00  0.00    +0.000 C 
ATOM      3  C   UNL     1       1.120   4.044  19.277  0.00  0.00    +0.000 C 
ATOM      4  C   UNL     1       1.642   4.244  20.699  0.00  0.00    +0.000 C 
ATOM      5  C   UNL     1       1.783   5.709  21.109  0.00  0.00    +0.000 C 
ATOM      6  N   UNL     1       2.330   6.601  20.080  0.00  0.00    +0.000 N 
ATOM      7  C   UNL     1       1.880   7.898  19.824  0.00  0.00    +0.000 C 
ATOM      8  O   UNL     1       2.389   8.563  18.909  0.00  0.00    +0.000 OA
ATOM      9  C   UNL     1       3.437   6.078  19.260  0.00  0.00    +0.000 C 
ENDROOT
BRANCH   1  13
ATOM     10  C   UNL     1       6.108   4.649  15.063  0.00  0.00    +0.000 A 
ATOM     11  C   UNL     1       5.449   3.595  15.692  0.00  0.00    +0.000 A 
ATOM     12  C   UNL     1       4.417   3.846  16.602  0.00  0.00    +0.000 A 
ATOM     13  C   UNL     1       4.041   5.160  16.928  0.00  0.00    +0.000 A 
ATOM     14  C   UNL     1       4.737   6.212  16.316  0.00  0.00    +0.000 A 
ATOM     15  C   UNL     1       5.756   5.958  15.384  0.00  0.00    +0.000 A 
BRANCH  10  17
ATOM     16  C   UNL     1       6.661   3.852  12.910  0.00  0.00    +0.000 C 
ATOM     17  O   UNL     1       7.099   4.285  14.193  0.00  0.00    +0.000 OA
ENDBRANCH  10  17
ENDBRANCH   1  13
BRANCH   7  18
ATOM     18  C   UNL     1       0.767   8.502  20.691  0.00  0.00    +0.000 C 
ATOM     19  C   UNL     1       0.203   9.775  20.032  0.00  0.00    +0.000 C 
ATOM     20  C   UNL     1      -0.675  10.571  20.983  0.00  0.00    +0.000 C 
ATOM     21  O   UNL     1       0.024  10.851  22.191  0.00  0.00    +0.000 OA
ATOM     22  C   UNL     1       0.319   9.657  22.909  0.00  0.00    +0.000 C 
ATOM     23  C   UNL     1       1.265   8.759  22.121  0.00  0.00    +0.000 C 
ENDBRANCH   7  18
TORSDOF 3
ENDMDL
MODEL 6
REMARK VINA RESULT:      -6.9      1.734      7.975
REMARK  Name = 
REMARK  4 active torsions:
REMARK  status: ('A' for Active; 'I' for Inactive)
REMARK    1  A    between atoms: C_1  and  O_2
REMARK    2  A    between atoms: O_2  and  C_3
REMARK    3  A    between atoms: C_6  and  C_7
REMARK    4  A    between atoms: C_13  and  C_15
REMARK                            x       y       z     vdW  Elec       q    Type
REMARK                         _______ _______ _______ _____ _____    ______ ____
ROOT
ATOM      1  C   UNL     1       2.948   5.890  17.891  0.00  0.00    +0.000 C 
ATOM      2  C   UNL     1       2.407   4.712  18.729  0.00  0.00    +0.000 C 
ATOM      3  C   UNL     1       1.279   5.049  19.711  0.00  0.00    +0.000 C 
ATOM      4  C   UNL     1       1.770   5.880  20.896  0.00  0.00    +0.000 C 
ATOM      5  C   UNL     1       1.747   7.388  20.650  0.00  0.00    +0.000 C 
ATOM      6  N   UNL     1       2.195   7.816  19.321  0.00  0.00    +0.000 N 
ATOM      7  C   UNL     1       1.606   8.833  18.566  0.00  0.00    +0.000 C 
ATOM      8  O   UNL     1       2.041   9.101  17.436  0.00  0.00    +0.000 OA
ATOM      9  C   UNL     1       3.357   7.114  18.747  0.00  0.00    +0.000 C 
ENDROOT
BRANCH   1  13
ATOM     10  C   UNL     1       6.113   4.499  15.234  0.00  0.00    +0.000 A 
ATOM     11  C   UNL     1       5.783   5.849  15.319  0.00  0.00    +0.000 A 
ATOM     12  C   UNL     1       4.784   6.282  16.197  0.00  0.00    +0.000 A 
ATOM     13  C   UNL     1       4.068   5.368  16.988  0.00  0.00    +0.000 A 
ATOM     14  C   UNL     1       4.385   4.007  16.867  0.00  0.00    +0.000 A 
ATOM     15  C   UNL     1       5.405   3.577  16.004  0.00  0.00    +0.000 A 
BRANCH  10  17
ATOM     16  C   UNL     1       6.669   3.871  13.027  0.00  0.00    +0.000 C 
ATOM     17  O   UNL     1       7.104   4.191  14.343  0.00  0.00    +0.000 OA
ENDBRANCH  10  17
ENDBRANCH   1  13
BRANCH   7  18
ATOM     18  C   UNL     1       0.430   9.627  19.149  0.00  0.00    +0.000 C 
ATOM     19  C   UNL     1      -0.595   9.956  18.047  0.00  0.00    +0.000 C 
ATOM     20  C   UNL     1      -1.613  10.989  18.501  0.00  0.00    +0.000 C 
ATOM     21  O   UNL     1      -0.956  12.152  18.993  0.00  0.00    +0.000 OA
ATOM     22  C   UNL     1      -0.205  11.867  20.169  0.00  0.00    +0.000 C 
ATOM     23  C   UNL     1       0.925  10.886  19.876  0.00  0.00    +0.000 C 
ENDBRANCH   7  18
TORSDOF 3
ENDMDL
MODEL 7
REMARK VINA RESULT:      -6.8      2.921      4.090
REMARK  Name = 
REMARK  4 active torsions:
REMARK  status: ('A' for Active; 'I' for Inactive)
REMARK    1  A    between atoms: C_1  and  O_2
REMARK    2  A    between atoms: O_2  and  C_3
REMARK    3  A    between atoms: C_6  and  C_7
REMARK    4  A    between atoms: C_13  and  C_15
REMARK                            x       y       z     vdW  Elec       q    Type
REMARK                         _______ _______ _______ _____ _____    ______ ____
ROOT
ATOM      1  C   UNL     1       0.517   8.829  19.949  0.00  0.00    +0.000 C 
ATOM      2  C   UNL     1       0.619   9.622  18.628  0.00  0.00    +0.000 C 
ATOM      3  C   UNL     1       1.293   8.895  17.459  0.00  0.00    +0.000 C 
ATOM      4  C   UNL     1       2.798   8.731  17.668  0.00  0.00    +0.000 C 
ATOM      5  C   UNL     1       3.186   7.464  18.429  0.00  0.00    +0.000 C 
ATOM      6  N   UNL     1       2.327   7.127  19.569  0.00  0.00    +0.000 N 
ATOM      7  C   UNL     1       1.915   5.836  19.907  0.00  0.00    +0.000 C 
ATOM      8  O   UNL     1       1.162   5.657  20.876  0.00  0.00    +0.000 OA
ATOM      9  C   UNL     1       1.871   8.242  20.417  0.00  0.00    +0.000 C 
ENDROOT
BRANCH   1  13
ATOM     10  C   UNL     1      -1.386  11.457  22.862  0.00  0.00    +0.000 A 
ATOM     11  C   UNL     1      -1.274  11.824  21.523  0.00  0.00    +0.000 A 
ATOM     12  C   UNL     1      -0.685  10.958  20.596  0.00  0.00    +0.000 A 
ATOM     13  C   UNL     1      -0.166   9.715  20.994  0.00  0.00    +0.000 A 
ATOM     14  C   UNL     1      -0.252   9.372  22.352  0.00  0.00    +0.000 A 
ATOM     15  C   UNL     1      -0.865  10.232  23.276  0.00  0.00    +0.000 A 
BRANCH  10  17
ATOM     16  C   UNL     1      -3.400  12.429  23.620  0.00  0.00    +0.000 C 
ATOM     17  O   UNL     1      -1.979  12.382  23.676  0.00  0.00    +0.000 OA
ENDBRANCH  10  17
ENDBRANCH   1  13
BRANCH   7  18
ATOM     18  C   UNL     1       2.413   4.640  19.084  0.00  0.00    +0.000 C 
ATOM     19  C   UNL     1       1.257   3.660  18.807  0.00  0.00    +0.000 C 
ATOM     20  C   UNL     1       1.752   2.328  18.269  0.00  0.00    +0.000 C 
ATOM     21  O   UNL     1       2.735   1.774  19.136  0.00  0.00    +0.000 OA
ATOM     22  C   UNL     1       3.905   2.585  19.181  0.00  0.00    +0.000 C 
ATOM     23  C   UNL     1       3.602   3.956  19.775  0.00  0.00    +0.000 C 
ENDBRANCH   7  18
TORSDOF 3
ENDMDL
MODEL 8
REMARK VINA RESULT:      -6.7      1.169      1.245
REMARK  Name = 
REMARK  4 active torsions:
REMARK  status: ('A' for Active; 'I' for Inactive)
REMARK    1  A    between atoms: C_1  and  O_2
REMARK    2  A    between atoms: O_2  and  C_3
REMARK    3  A    between atoms: C_6  and  C_7
REMARK    4  A    between atoms: C_13  and  C_15
REMARK                            x       y       z     vdW  Elec       q    Type
REMARK                         _______ _______ _______ _____ _____    ______ ____
ROOT
ATOM      1  C   UNL     1       1.920   6.309  20.205  0.00  0.00    +0.000 C 
ATOM      2  C   UNL     1       1.323   4.979  20.713  0.00  0.00    +0.000 C 
ATOM      3  C   UNL     1       1.849   3.707  20.037  0.00  0.00    +0.000 C 
ATOM      4  C   UNL     1       1.356   3.568  18.597  0.00  0.00    +0.000 C 
ATOM      5  C   UNL     1       2.249   4.255  17.566  0.00  0.00    +0.000 C 
ATOM      6  N   UNL     1       2.765   5.571  17.956  0.00  0.00    +0.000 N 
ATOM      7  C   UNL     1       4.060   6.031  17.704  0.00  0.00    +0.000 C 
ATOM      8  O   UNL     1       4.411   7.152  18.102  0.00  0.00    +0.000 OA
ATOM      9  C   UNL     1       1.839   6.470  18.667  0.00  0.00    +0.000 C 
ENDROOT
BRANCH   1  13
ATOM     10  C   UNL     1       0.164   9.577  22.497  0.00  0.00    +0.000 A 
ATOM     11  C   UNL     1       1.544   9.391  22.444  0.00  0.00    +0.000 A 
ATOM     12  C   UNL     1       2.092   8.355  21.682  0.00  0.00    +0.000 A 
ATOM     13  C   UNL     1       1.270   7.458  20.980  0.00  0.00    +0.000 A 
ATOM     14  C   UNL     1      -0.119   7.634  21.070  0.00  0.00    +0.000 A 
ATOM     15  C   UNL     1      -0.667   8.689  21.815  0.00  0.00    +0.000 A 
BRANCH  10  17
ATOM     16  C   UNL     1      -1.349  11.371  22.751  0.00  0.00    +0.000 C 
ATOM     17  O   UNL     1      -0.258  10.621  23.273  0.00  0.00    +0.000 OA
ENDBRANCH  10  17
ENDBRANCH   1  13
BRANCH   7  18
ATOM     18  C   UNL     1       5.039   5.150  16.916  0.00  0.00    +0.000 C 
ATOM     19  C   UNL     1       6.373   5.018  17.675  0.00  0.00    +0.000 C 
ATOM     20  C   UNL     1       7.468   4.419  16.808  0.00  0.00    +0.000 C 
ATOM     21  O   UNL     1       7.604   5.154  15.598  0.00  0.00    +0.000 OA
ATOM     22  C   UNL     1       6.433   5.054  14.794  0.00  0.00    +0.000 C 
ATOM     23  C   UNL     1       5.232   5.684  15.489  0.00  0.00    +0.000 C 
ENDBRANCH   7  18
TORSDOF 3
ENDMDL
MODEL 9
REMARK VINA RESULT:      -6.5      1.898      7.975
REMARK  Name = 
REMARK  4 active torsions:
REMARK  status: ('A' for Active; 'I' for Inactive)
REMARK    1  A    between atoms: C_1  and  O_2
REMARK    2  A    between atoms: O_2  and  C_3
REMARK    3  A    between atoms: C_6  and  C_7
REMARK    4  A    between atoms: C_13  and  C_15
REMARK                            x       y       z     vdW  Elec       q    Type
REMARK                         _______ _______ _______ _____ _____    ______ ____
ROOT
ATOM      1  C   UNL     1       2.631   6.272  18.146  0.00  0.00    +0.000 C 
ATOM      2  C   UNL     1       2.213   5.192  19.166  0.00  0.00    +0.000 C 
ATOM      3  C   UNL     1       1.143   5.609  20.183  0.00  0.00    +0.000 C 
ATOM      4  C   UNL     1       1.676   6.606  21.210  0.00  0.00    +0.000 C 
ATOM      5  C   UNL     1       1.558   8.067  20.778  0.00  0.00    +0.000 C 
ATOM      6  N   UNL     1       1.887   8.336  19.374  0.00  0.00    +0.000 N 
ATOM      7  C   UNL     1       1.194   9.220  18.544  0.00  0.00    +0.000 C 
ATOM      8  O   UNL     1       1.532   9.356  17.359  0.00  0.00    +0.000 OA
ATOM      9  C   UNL     1       3.038   7.613  18.805  0.00  0.00    +0.000 C 
ENDROOT
BRANCH   1  13
ATOM     10  C   UNL     1       5.710   4.493  15.622  0.00  0.00    +0.000 A 
ATOM     11  C   UNL     1       4.837   3.701  16.364  0.00  0.00    +0.000 A 
ATOM     12  C   UNL     1       3.838   4.287  17.148  0.00  0.00    +0.000 A 
ATOM     13  C   UNL     1       3.708   5.683  17.231  0.00  0.00    +0.000 A 
ATOM     14  C   UNL     1       4.615   6.471  16.508  0.00  0.00    +0.000 A 
ATOM     15  C   UNL     1       5.602   5.881  15.704  0.00  0.00    +0.000 A 
BRANCH  10  17
ATOM     16  C   UNL     1       6.479   3.860  13.482  0.00  0.00    +0.000 C 
ATOM     17  O   UNL     1       6.646   3.812  14.894  0.00  0.00    +0.000 OA
ENDBRANCH  10  17
ENDBRANCH   1  13
BRANCH   7  18
ATOM     18  C   UNL     1       0.024  10.036  19.112  0.00  0.00    +0.000 C 
ATOM     19  C   UNL     1      -1.127  10.107  18.090  0.00  0.00    +0.000 C 
ATOM     20  C   UNL     1      -2.169  11.144  18.474  0.00  0.00    +0.000 C 
ATOM     21  O   UNL     1      -1.557  12.411  18.689  0.00  0.00    +0.000 OA
ATOM     22  C   UNL     1      -0.674  12.378  19.806  0.00  0.00    +0.000 C 
ATOM     23  C   UNL     1       0.492  11.429  19.559  0.00  0.00    +0.000 C 
ENDBRANCH   7  18
TORSDOF 3
ENDMDL
