MODEL 1
REMARK VINA RESULT:      -8.2      0.000      0.000
REMARK  Name = 
REMARK  10 active torsions:
REMARK  status: ('A' for Active; 'I' for Inactive)
REMARK    1  A    between atoms: C_1  and  C_2
REMARK    2  A    between atoms: C_4  and  C_5
REMARK    3  A    between atoms: C_6  and  N_7
REMARK    4  A    between atoms: C_8  and  C_10
REMARK    5  A    between atoms: C_10  and  N_11
REMARK    6  A    between atoms: C_12  and  C_13
REMARK    7  A    between atoms: C_15  and  C_16
REMARK    8  A    between atoms: C_17  and  C_18
REMARK    9  A    between atoms: C_20  and  C_21
REMARK   10  A    between atoms: C_34  and  C_35
REMARK                            x       y       z     vdW  Elec       q    Type
REMARK                         _______ _______ _______ _____ _____    ______ ____
ROOT
ATOM      1  N   UNL     1       2.745   4.412  20.529  0.00  0.00    +0.000 N 
ATOM      2  C   UNL     1       2.191   3.134  20.613  0.00  0.00    +0.000 A 
ATOM      3  C   UNL     1       1.020   2.863  21.520  0.00  0.00    +0.000 C 
ATOM      4  C   UNL     1       2.671   2.141  19.839  0.00  0.00    +0.000 A 
ATOM      5  C   UNL     1       3.752   2.359  18.904  0.00  0.00    +0.000 A 
ATOM      6  C   UNL     1       4.191   1.139  18.133  0.00  0.00    +0.000 C 
ATOM      7  C   UNL     1       4.261   3.604  18.760  0.00  0.00    +0.000 A 
ATOM      8  C   UNL     1       3.737   4.725  19.601  0.00  0.00    +0.000 A 
ATOM      9  O   UNL     1       4.139   5.880  19.450  0.00  0.00    +0.000 OA
ENDROOT
BRANCH   7  10
ATOM     10  C   UNL     1       5.219   3.927  17.761  0.00  0.00    +0.000 A 
ATOM     11  N   UNL     1       4.990   3.978  16.463  0.00  0.00    +0.000 NA
ATOM     12  C   UNL     1       6.169   4.416  15.920  0.00  0.00    +0.000 A 
ATOM     13  N   UNL     1       7.138   4.608  16.821  0.00  0.00    +0.000 NA
ATOM     14  O   UNL     1       6.526   4.291  18.030  0.00  0.00    +0.000 OA
BRANCH  12  15
ATOM     15  C   UNL     1       6.353   4.434  14.479  0.00  0.00    +0.000 A 
ATOM     16  C   UNL     1       7.417   5.150  13.883  0.00  0.00    +0.000 A 
ATOM     17  C   UNL     1       7.821   4.866  12.574  0.00  0.00    +0.000 A 
ATOM     18  C   UNL     1       7.165   3.843  11.928  0.00  0.00    +0.000 A 
ATOM     19  C   UNL     1       6.052   3.231  12.468  0.00  0.00    +0.000 A 
ATOM     20  C   UNL     1       5.584   3.543  13.714  0.00  0.00    +0.000 A 
ATOM     21  O   UNL     1       5.634   2.172  11.721  0.00  0.00    +0.000 OA
ATOM     22  C   UNL     1       6.839   1.977  10.956  0.00  0.00    +0.000 C 
ATOM     23  O   UNL     1       7.582   3.207  10.794  0.00  0.00    +0.000 OA
ENDBRANCH  12  15
ENDBRANCH   7  10
BRANCH   1  24
ATOM     24  C   UNL     1       2.331   5.493  21.429  0.00  0.00    +0.000 C 
BRANCH  24  26
ATOM     25  N   UNL     1       1.886   7.839  20.786  0.00  0.00    +0.000 N 
ATOM     26  C   UNL     1       1.385   6.545  20.828  0.00  0.00    +0.000 C 
ATOM     27  O   UNL     1       0.211   6.241  20.602  0.00  0.00    +0.000 OA
ATOM     28  H   UNL     1       2.602   8.026  21.482  0.00  0.00    +0.000 HD
BRANCH  25  34
ATOM     29  C   UNL     1      -1.245  12.338  19.019  0.00  0.00    +0.000 C 
ATOM     30  C   UNL     1      -0.438  11.164  19.491  0.00  0.00    +0.000 A 
ATOM     31  C   UNL     1      -0.377  10.809  20.841  0.00  0.00    +0.000 A 
ATOM     32  C   UNL     1       0.401   9.714  21.273  0.00  0.00    +0.000 A 
ATOM     33  C   UNL     1       0.382   9.374  22.738  0.00  0.00    +0.000 C 
ATOM     34  C   UNL     1       1.129   8.953  20.328  0.00  0.00    +0.000 A 
ATOM     35  C   UNL     1       1.120   9.345  18.974  0.00  0.00    +0.000 A 
ATOM     36  C   UNL     1       1.984   8.715  17.917  0.00  0.00    +0.000 C 
ATOM     37  C   UNL     1       0.306  10.425  18.569  0.00  0.00    +0.000 A 
ENDBRANCH  25  34
ENDBRANCH  24  26
ENDBRANCH   1  24
TORSDOF 5
ENDMDL
MODEL 2
REMARK VINA RESULT:      -7.8      4.623      8.296
REMARK  Name = 
REMARK  10 active torsions:
REMARK  status: ('A' for Active; 'I' for Inactive)
REMARK    1  A    between atoms: C_1  and  C_2
REMARK    2  A    between atoms: C_4  and  C_5
REMARK    3  A    between atoms: C_6  and  N_7
REMARK    4  A    between atoms: C_8  and  C_10
REMARK    5  A    between atoms: C_10  and  N_11
REMARK    6  A    between atoms: C_12  and  C_13
REMARK    7  A    between atoms: C_15  and  C_16
REMARK    8  A    between atoms: C_17  and  C_18
REMARK    9  A    between atoms: C_20  and  C_21
REMARK   10  A    between atoms: C_34  and  C_35
REMARK                            x       y       z     vdW  Elec       q    Type
REMARK                         _______ _______ _______ _____ _____    ______ ____
ROOT
ATOM      1  N   UNL     1      -0.193  13.022  20.685  0.00  0.00    +0.000 N 
ATOM      2  C   UNL     1      -1.451  13.197  20.106  0.00  0.00    +0.000 A 
ATOM      3  C   UNL     1      -2.289  14.403  20.440  0.00  0.00    +0.000 C 
ATOM      4  C   UNL     1      -1.903  12.308  19.200  0.00  0.00    +0.000 A 
ATOM      5  C   UNL     1      -1.115  11.166  18.794  0.00  0.00    +0.000 A 
ATOM      6  C   UNL     1      -1.776  10.252  17.793  0.00  0.00    +0.000 C 
ATOM      7  C   UNL     1       0.133  11.012  19.295  0.00  0.00    +0.000 A 
ATOM      8  C   UNL     1       0.660  11.991  20.294  0.00  0.00    +0.000 A 
ATOM      9  O   UNL     1       1.813  11.911  20.722  0.00  0.00    +0.000 OA
ENDROOT
BRANCH   7  10
ATOM     10  C   UNL     1       1.020  10.001  18.836  0.00  0.00    +0.000 A 
ATOM     11  N   UNL     1       1.232   8.839  19.423  0.00  0.00    +0.000 NA
ATOM     12  C   UNL     1       2.081   8.173  18.578  0.00  0.00    +0.000 A 
ATOM     13  N   UNL     1       2.437   8.885  17.503  0.00  0.00    +0.000 NA
ATOM     14  O   UNL     1       1.747  10.083  17.663  0.00  0.00    +0.000 OA
BRANCH  12  15
ATOM     15  C   UNL     1       2.676   6.910  18.979  0.00  0.00    +0.000 A 
ATOM     16  C   UNL     1       2.197   6.198  20.103  0.00  0.00    +0.000 A 
ATOM     17  C   UNL     1       2.493   4.840  20.263  0.00  0.00    +0.000 A 
ATOM     18  C   UNL     1       3.225   4.239  19.265  0.00  0.00    +0.000 A 
ATOM     19  C   UNL     1       3.790   4.964  18.235  0.00  0.00    +0.000 A 
ATOM     20  C   UNL     1       3.585   6.309  18.095  0.00  0.00    +0.000 A 
ATOM     21  O   UNL     1       4.368   4.163  17.299  0.00  0.00    +0.000 OA
ATOM     22  C   UNL     1       3.721   2.928  17.663  0.00  0.00    +0.000 C 
ATOM     23  O   UNL     1       3.366   2.896  19.064  0.00  0.00    +0.000 OA
ENDBRANCH  12  15
ENDBRANCH   7  10
BRANCH   1  24
ATOM     24  C   UNL     1       0.292  13.900  21.754  0.00  0.00    +0.000 C 
BRANCH  24  26
ATOM     25  N   UNL     1       1.875  15.120  20.299  0.00  0.00    +0.000 N 
ATOM     26  C   UNL     1       1.679  14.525  21.537  0.00  0.00    +0.000 C 
ATOM     27  O   UNL     1       2.574  14.308  22.359  0.00  0.00    +0.000 OA
ATOM     28  H   UNL     1       1.280  14.748  19.564  0.00  0.00    +0.000 HD
BRANCH  25  34
ATOM     29  C   UNL     1       6.930  17.319  18.631  0.00  0.00    +0.000 C 
ATOM     30  C   UNL     1       5.617  16.733  19.061  0.00  0.00    +0.000 A 
ATOM     31  C   UNL     1       5.110  15.565  18.487  0.00  0.00    +0.000 A 
ATOM     32  C   UNL     1       3.865  15.035  18.888  0.00  0.00    +0.000 A 
ATOM     33  C   UNL     1       3.409  13.753  18.248  0.00  0.00    +0.000 C 
ATOM     34  C   UNL     1       3.115  15.688  19.895  0.00  0.00    +0.000 A 
ATOM     35  C   UNL     1       3.594  16.900  20.432  0.00  0.00    +0.000 A 
ATOM     36  C   UNL     1       2.805  17.762  21.380  0.00  0.00    +0.000 C 
ATOM     37  C   UNL     1       4.857  17.386  20.033  0.00  0.00    +0.000 A 
ENDBRANCH  25  34
ENDBRANCH  24  26
ENDBRANCH   1  24
TORSDOF 5
ENDMDL
MODEL 3
REMARK VINA RESULT:      -7.7      5.930     10.034
REMARK  Name = 
REMARK  10 active torsions:
REMARK  status: ('A' for Active; 'I' for Inactive)
REMARK    1  A    between atoms: C_1  and  C_2
REMARK    2  A    between atoms: C_4  and  C_5
REMARK    3  A    between atoms: C_6  and  N_7
REMARK    4  A    between atoms: C_8  and  C_10
REMARK    5  A    between atoms: C_10  and  N_11
REMARK    6  A    between atoms: C_12  and  C_13
REMARK    7  A    between atoms: C_15  and  C_16
REMARK    8  A    between atoms: C_17  and  C_18
REMARK    9  A    between atoms: C_20  and  C_21
REMARK   10  A    between atoms: C_34  and  C_35
REMARK                            x       y       z     vdW  Elec       q    Type
REMARK                         _______ _______ _______ _____ _____    ______ ____
ROOT
ATOM      1  N   UNL     1       0.011  13.265  19.920  0.00  0.00    +0.000 N 
ATOM      2  C   UNL     1      -0.298  13.494  21.262  0.00  0.00    +0.000 A 
ATOM      3  C   UNL     1      -1.386  12.707  21.944  0.00  0.00    +0.000 C 
ATOM      4  C   UNL     1       0.415  14.389  21.972  0.00  0.00    +0.000 A 
ATOM      5  C   UNL     1       1.512  15.126  21.388  0.00  0.00    +0.000 A 
ATOM      6  C   UNL     1       2.190  16.110  22.308  0.00  0.00    +0.000 C 
ATOM      7  C   UNL     1       1.870  14.874  20.107  0.00  0.00    +0.000 A 
ATOM      8  C   UNL     1       1.100  13.877  19.301  0.00  0.00    +0.000 A 
ATOM      9  O   UNL     1       1.439  13.583  18.153  0.00  0.00    +0.000 OA
ENDROOT
BRANCH   7  10
ATOM     10  C   UNL     1       3.024  15.449  19.509  0.00  0.00    +0.000 A 
ATOM     11  N   UNL     1       4.181  14.840  19.329  0.00  0.00    +0.000 NA
ATOM     12  C   UNL     1       4.945  15.746  18.641  0.00  0.00    +0.000 A 
ATOM     13  N   UNL     1       4.327  16.910  18.415  0.00  0.00    +0.000 NA
ATOM     14  O   UNL     1       3.068  16.725  18.979  0.00  0.00    +0.000 OA
BRANCH  12  15
ATOM     15  C   UNL     1       6.357  15.490  18.409  0.00  0.00    +0.000 A 
ATOM     16  C   UNL     1       7.357  16.215  19.098  0.00  0.00    +0.000 A 
ATOM     17  C   UNL     1       8.666  15.727  19.171  0.00  0.00    +0.000 A 
ATOM     18  C   UNL     1       8.910  14.507  18.583  0.00  0.00    +0.000 A 
ATOM     19  C   UNL     1       7.963  13.865  17.811  0.00  0.00    +0.000 A 
ATOM     20  C   UNL     1       6.697  14.357  17.655  0.00  0.00    +0.000 A 
ATOM     21  O   UNL     1       8.370  12.624  17.425  0.00  0.00    +0.000 OA
ATOM     22  C   UNL     1       9.432  12.453  18.384  0.00  0.00    +0.000 C 
ATOM     23  O   UNL     1      10.005  13.718  18.787  0.00  0.00    +0.000 OA
ENDBRANCH  12  15
ENDBRANCH   7  10
BRANCH   1  24
ATOM     24  C   UNL     1      -0.806  12.385  19.080  0.00  0.00    +0.000 C 
BRANCH  24  26
ATOM     25  N   UNL     1       0.692  10.539  19.762  0.00  0.00    +0.000 N 
ATOM     26  C   UNL     1      -0.542  10.877  19.225  0.00  0.00    +0.000 C 
ATOM     27  O   UNL     1      -1.323  10.076  18.704  0.00  0.00    +0.000 OA
ATOM     28  H   UNL     1       1.408  11.248  19.626  0.00  0.00    +0.000 HD
BRANCH  25  34
ATOM     29  C   UNL     1       2.493   5.090  20.240  0.00  0.00    +0.000 C 
ATOM     30  C   UNL     1       2.023   6.509  20.100  0.00  0.00    +0.000 A 
ATOM     31  C   UNL     1       2.277   7.257  18.949  0.00  0.00    +0.000 A 
ATOM     32  C   UNL     1       1.847   8.597  18.840  0.00  0.00    +0.000 A 
ATOM     33  C   UNL     1       2.127   9.321  17.552  0.00  0.00    +0.000 C 
ATOM     34  C   UNL     1       1.137   9.196  19.907  0.00  0.00    +0.000 A 
ATOM     35  C   UNL     1       0.933   8.464  21.094  0.00  0.00    +0.000 A 
ATOM     36  C   UNL     1       0.343   9.053  22.346  0.00  0.00    +0.000 C 
ATOM     37  C   UNL     1       1.347   7.117  21.160  0.00  0.00    +0.000 A 
ENDBRANCH  25  34
ENDBRANCH  24  26
ENDBRANCH   1  24
TORSDOF 5
ENDMDL
MODEL 4
REMARK VINA RESULT:      -7.7      4.961      8.411
REMARK  Name = 
REMARK  10 active torsions:
REMARK  status: ('A' for Active; 'I' for Inactive)
REMARK    1  A    between atoms: C_1  and  C_2
REMARK    2  A    between atoms: C_4  and  C_5
REMARK    3  A    between atoms: C_6  and  N_7
REMARK    4  A    between atoms: C_8  and  C_10
REMARK    5  A    between atoms: C_10  and  N_11
REMARK    6  A    between atoms: C_12  and  C_13
REMARK    7  A    between atoms: C_15  and  C_16
REMARK    8  A    between atoms: C_17  and  C_18
REMARK    9  A    between atoms: C_20  and  C_21
REMARK   10  A    between atoms: C_34  and  C_35
REMARK                            x       y       z     vdW  Elec       q    Type
REMARK                         _______ _______ _______ _____ _____    ______ ____
ROOT
ATOM      1  N   UNL     1       0.551  13.479  20.270  0.00  0.00    +0.000 N 
ATOM      2  C   UNL     1      -0.312  13.804  19.223  0.00  0.00    +0.000 A 
ATOM      3  C   UNL     1      -0.620  15.243  18.901  0.00  0.00    +0.000 C 
ATOM      4  C   UNL     1      -0.837  12.828  18.457  0.00  0.00    +0.000 A 
ATOM      5  C   UNL     1      -0.527  11.434  18.680  0.00  0.00    +0.000 A 
ATOM      6  C   UNL     1      -1.218  10.465  17.755  0.00  0.00    +0.000 C 
ATOM      7  C   UNL     1       0.358  11.101  19.649  0.00  0.00    +0.000 A 
ATOM      8  C   UNL     1       0.962  12.168  20.505  0.00  0.00    +0.000 A 
ATOM      9  O   UNL     1       1.814  11.900  21.354  0.00  0.00    +0.000 OA
ENDROOT
BRANCH   7  10
ATOM     10  C   UNL     1       0.824   9.771  19.832  0.00  0.00    +0.000 A 
ATOM     11  N   UNL     1       1.531   9.077  18.961  0.00  0.00    +0.000 NA
ATOM     12  C   UNL     1       1.823   7.904  19.607  0.00  0.00    +0.000 A 
ATOM     13  N   UNL     1       1.297   7.821  20.834  0.00  0.00    +0.000 NA
ATOM     14  O   UNL     1       0.642   9.039  20.991  0.00  0.00    +0.000 OA
BRANCH  12  15
ATOM     15  C   UNL     1       2.453   6.808  18.891  0.00  0.00    +0.000 A 
ATOM     16  C   UNL     1       3.461   7.045  17.926  0.00  0.00    +0.000 A 
ATOM     17  C   UNL     1       4.319   6.015  17.528  0.00  0.00    +0.000 A 
ATOM     18  C   UNL     1       4.159   4.795  18.145  0.00  0.00    +0.000 A 
ATOM     19  C   UNL     1       3.101   4.538  18.994  0.00  0.00    +0.000 A 
ATOM     20  C   UNL     1       2.197   5.504  19.341  0.00  0.00    +0.000 A 
ATOM     21  O   UNL     1       3.200   3.315  19.583  0.00  0.00    +0.000 OA
ATOM     22  C   UNL     1       4.599   3.081  19.329  0.00  0.00    +0.000 C 
ATOM     23  O   UNL     1       5.053   3.764  18.137  0.00  0.00    +0.000 OA
ENDBRANCH  12  15
ENDBRANCH   7  10
BRANCH   1  24
ATOM     24  C   UNL     1       1.058  14.496  21.197  0.00  0.00    +0.000 C 
BRANCH  24  26
ATOM     25  N   UNL     1       3.415  14.413  20.454  0.00  0.00    +0.000 N 
ATOM     26  C   UNL     1       2.336  15.230  20.760  0.00  0.00    +0.000 C 
ATOM     27  O   UNL     1       2.399  16.456  20.883  0.00  0.00    +0.000 OA
ATOM     28  H   UNL     1       3.389  13.507  20.914  0.00  0.00    +0.000 HD
BRANCH  25  34
ATOM     29  C   UNL     1       8.625  16.471  19.119  0.00  0.00    +0.000 C 
ATOM     30  C   UNL     1       7.270  15.937  19.481  0.00  0.00    +0.000 A 
ATOM     31  C   UNL     1       7.005  15.401  20.743  0.00  0.00    +0.000 A 
ATOM     32  C   UNL     1       5.731  14.885  21.063  0.00  0.00    +0.000 A 
ATOM     33  C   UNL     1       5.516  14.361  22.456  0.00  0.00    +0.000 C 
ATOM     34  C   UNL     1       4.697  14.916  20.097  0.00  0.00    +0.000 A 
ATOM     35  C   UNL     1       4.978  15.400  18.804  0.00  0.00    +0.000 A 
ATOM     36  C   UNL     1       4.009  15.324  17.656  0.00  0.00    +0.000 C 
ATOM     37  C   UNL     1       6.253  15.938  18.525  0.00  0.00    +0.000 A 
ENDBRANCH  25  34
ENDBRANCH  24  26
ENDBRANCH   1  24
TORSDOF 5
ENDMDL
MODEL 5
REMARK VINA RESULT:      -7.7      4.791      8.411
REMARK  Name = 
REMARK  10 active torsions:
REMARK  status: ('A' for Active; 'I' for Inactive)
REMARK    1  A    between atoms: C_1  and  C_2
REMARK    2  A    between atoms: C_4  and  C_5
REMARK    3  A    between atoms: C_6  and  N_7
REMARK    4  A    between atoms: C_8  and  C_10
REMARK    5  A    between atoms: C_10  and  N_11
REMARK    6  A    between atoms: C_12  and  C_13
REMARK    7  A    between atoms: C_15  and  C_16
REMARK    8  A    between atoms: C_17  and  C_18
REMARK    9  A    between atoms: C_20  and  C_21
REMARK   10  A    between atoms: C_34  and  C_35
REMARK                            x       y       z     vdW  Elec       q    Type
REMARK                         _______ _______ _______ _____ _____    ______ ____
ROOT
ATOM      1  N   UNL     1       0.145  12.998  20.664  0.00  0.00    +0.000 N 
ATOM      2  C   UNL     1      -1.009  13.284  19.933  0.00  0.00    +0.000 A 
ATOM      3  C   UNL     1      -1.725  14.596  20.112  0.00  0.00    +0.000 C 
ATOM      4  C   UNL     1      -1.461  12.403  19.020  0.00  0.00    +0.000 A 
ATOM      5  C   UNL     1      -0.778  11.156  18.760  0.00  0.00    +0.000 A 
ATOM      6  C   UNL     1      -1.428  10.269  17.728  0.00  0.00    +0.000 C 
ATOM      7  C   UNL     1       0.378  10.887  19.411  0.00  0.00    +0.000 A 
ATOM      8  C   UNL     1       0.905  11.855  20.422  0.00  0.00    +0.000 A 
ATOM      9  O   UNL     1       1.984  11.666  20.987  0.00  0.00    +0.000 OA
ENDROOT
BRANCH   7  10
ATOM     10  C   UNL     1       1.181   9.756  19.105  0.00  0.00    +0.000 A 
ATOM     11  N   UNL     1       1.242   8.642  19.810  0.00  0.00    +0.000 NA
ATOM     12  C   UNL     1       2.063   7.818  19.085  0.00  0.00    +0.000 A 
ATOM     13  N   UNL     1       2.547   8.383  17.973  0.00  0.00    +0.000 NA
ATOM     14  O   UNL     1       1.974   9.651  17.977  0.00  0.00    +0.000 OA
BRANCH  12  15
ATOM     15  C   UNL     1       2.505   6.550  19.639  0.00  0.00    +0.000 A 
ATOM     16  C   UNL     1       1.742   5.871  20.617  0.00  0.00    +0.000 A 
ATOM     17  C   UNL     1       1.951   4.510  20.864  0.00  0.00    +0.000 A 
ATOM     18  C   UNL     1       2.892   3.873  20.088  0.00  0.00    +0.000 A 
ATOM     19  C   UNL     1       3.716   4.564  19.222  0.00  0.00    +0.000 A 
ATOM     20  C   UNL     1       3.589   5.911  19.018  0.00  0.00    +0.000 A 
ATOM     21  O   UNL     1       4.487   3.731  18.470  0.00  0.00    +0.000 OA
ATOM     22  C   UNL     1       3.736   2.519  18.677  0.00  0.00    +0.000 C 
ATOM     23  O   UNL     1       3.042   2.523  19.946  0.00  0.00    +0.000 OA
ENDBRANCH  12  15
ENDBRANCH   7  10
BRANCH   1  24
ATOM     24  C   UNL     1       0.611  13.874  21.744  0.00  0.00    +0.000 C 
BRANCH  24  26
ATOM     25  N   UNL     1       2.828  14.405  20.786  0.00  0.00    +0.000 N 
ATOM     26  C   UNL     1       1.671  14.917  21.357  0.00  0.00    +0.000 C 
ATOM     27  O   UNL     1       1.533  16.085  21.730  0.00  0.00    +0.000 OA
ATOM     28  H   UNL     1       3.023  13.442  21.044  0.00  0.00    +0.000 HD
BRANCH  25  34
ATOM     29  C   UNL     1       7.369  17.683  19.443  0.00  0.00    +0.000 C 
ATOM     30  C   UNL     1       6.189  16.830  19.807  0.00  0.00    +0.000 A 
ATOM     31  C   UNL     1       6.153  16.092  20.993  0.00  0.00    +0.000 A 
ATOM     32  C   UNL     1       5.045  15.279  21.313  0.00  0.00    +0.000 A 
ATOM     33  C   UNL     1       5.068  14.548  22.627  0.00  0.00    +0.000 C 
ATOM     34  C   UNL     1       3.943  15.212  20.427  0.00  0.00    +0.000 A 
ATOM     35  C   UNL     1       4.002  15.906  19.202  0.00  0.00    +0.000 A 
ATOM     36  C   UNL     1       2.968  15.772  18.117  0.00  0.00    +0.000 C 
ATOM     37  C   UNL     1       5.110  16.735  18.926  0.00  0.00    +0.000 A 
ENDBRANCH  25  34
ENDBRANCH  24  26
ENDBRANCH   1  24
TORSDOF 5
ENDMDL
MODEL 6
REMARK VINA RESULT:      -7.6      3.561      7.037
REMARK  Name = 
REMARK  10 active torsions:
REMARK  status: ('A' for Active; 'I' for Inactive)
REMARK    1  A    between atoms: C_1  and  C_2
REMARK    2  A    between atoms: C_4  and  C_5
REMARK    3  A    between atoms: C_6  and  N_7
REMARK    4  A    between atoms: C_8  and  C_10
REMARK    5  A    between atoms: C_10  and  N_11
REMARK    6  A    between atoms: C_12  and  C_13
REMARK    7  A    between atoms: C_15  and  C_16
REMARK    8  A    between atoms: C_17  and  C_18
REMARK    9  A    between atoms: C_20  and  C_21
REMARK   10  A    between atoms: C_34  and  C_35
REMARK                            x       y       z     vdW  Elec       q    Type
REMARK                         _______ _______ _______ _____ _____    ______ ____
ROOT
ATOM      1  N   UNL     1       0.439  11.464  21.145  0.00  0.00    +0.000 N 
ATOM      2  C   UNL     1       0.535  12.179  19.950  0.00  0.00    +0.000 A 
ATOM      3  C   UNL     1       0.307  13.667  19.925  0.00  0.00    +0.000 C 
ATOM      4  C   UNL     1       0.884  11.544  18.814  0.00  0.00    +0.000 A 
ATOM      5  C   UNL     1       1.176  10.129  18.790  0.00  0.00    +0.000 A 
ATOM      6  C   UNL     1       1.524   9.566  17.435  0.00  0.00    +0.000 C 
ATOM      7  C   UNL     1       1.152   9.430  19.949  0.00  0.00    +0.000 A 
ATOM      8  C   UNL     1       0.777  10.114  21.224  0.00  0.00    +0.000 A 
ATOM      9  O   UNL     1       0.804   9.518  22.303  0.00  0.00    +0.000 OA
ENDROOT
BRANCH   7  10
ATOM     10  C   UNL     1       1.568   8.073  20.031  0.00  0.00    +0.000 A 
ATOM     11  N   UNL     1       2.463   7.495  19.253  0.00  0.00    +0.000 NA
ATOM     12  C   UNL     1       2.600   6.230  19.763  0.00  0.00    +0.000 A 
ATOM     13  N   UNL     1       1.802   5.982  20.806  0.00  0.00    +0.000 NA
ATOM     14  O   UNL     1       1.122   7.182  20.990  0.00  0.00    +0.000 OA
BRANCH  12  15
ATOM     15  C   UNL     1       3.386   5.234  19.055  0.00  0.00    +0.000 A 
ATOM     16  C   UNL     1       2.888   4.596  17.895  0.00  0.00    +0.000 A 
ATOM     17  C   UNL     1       3.758   3.946  17.013  0.00  0.00    +0.000 A 
ATOM     18  C   UNL     1       5.101   3.998  17.309  0.00  0.00    +0.000 A 
ATOM     19  C   UNL     1       5.567   4.515  18.501  0.00  0.00    +0.000 A 
ATOM     20  C   UNL     1       4.732   5.087  19.421  0.00  0.00    +0.000 A 
ATOM     21  O   UNL     1       6.927   4.576  18.538  0.00  0.00    +0.000 OA
ATOM     22  C   UNL     1       7.173   4.450  17.124  0.00  0.00    +0.000 C 
ATOM     23  O   UNL     1       6.127   3.706  16.457  0.00  0.00    +0.000 OA
ENDBRANCH  12  15
ENDBRANCH   7  10
BRANCH   1  24
ATOM     24  C   UNL     1      -0.045  12.089  22.380  0.00  0.00    +0.000 C 
BRANCH  24  26
ATOM     25  N   UNL     1      -2.265  13.165  22.219  0.00  0.00    +0.000 N 
ATOM     26  C   UNL     1      -1.563  12.035  22.614  0.00  0.00    +0.000 C 
ATOM     27  O   UNL     1      -2.038  11.114  23.285  0.00  0.00    +0.000 OA
ATOM     28  H   UNL     1      -1.706  14.013  22.206  0.00  0.00    +0.000 HD
BRANCH  25  34
ATOM     29  C   UNL     1      -7.915  13.800  23.140  0.00  0.00    +0.000 C 
ATOM     30  C   UNL     1      -6.440  13.634  22.915  0.00  0.00    +0.000 A 
ATOM     31  C   UNL     1      -5.500  14.057  23.858  0.00  0.00    +0.000 A 
ATOM     32  C   UNL     1      -4.116  13.912  23.624  0.00  0.00    +0.000 A 
ATOM     33  C   UNL     1      -3.172  14.357  24.707  0.00  0.00    +0.000 C 
ATOM     34  C   UNL     1      -3.665  13.322  22.420  0.00  0.00    +0.000 A 
ATOM     35  C   UNL     1      -4.608  12.952  21.439  0.00  0.00    +0.000 A 
ATOM     36  C   UNL     1      -4.235  12.474  20.062  0.00  0.00    +0.000 C 
ATOM     37  C   UNL     1      -5.985  13.080  21.717  0.00  0.00    +0.000 A 
ENDBRANCH  25  34
ENDBRANCH  24  26
ENDBRANCH   1  24
TORSDOF 5
ENDMDL
MODEL 7
REMARK VINA RESULT:      -7.6      0.642      1.588
REMARK  Name = 
REMARK  10 active torsions:
REMARK  status: ('A' for Active; 'I' for Inactive)
REMARK    1  A    between atoms: C_1  and  C_2
REMARK    2  A    between atoms: C_4  and  C_5
REMARK    3  A    between atoms: C_6  and  N_7
REMARK    4  A    between atoms: C_8  and  C_10
REMARK    5  A    between atoms: C_10  and  N_11
REMARK    6  A    between atoms: C_12  and  C_13
REMARK    7  A    between atoms: C_15  and  C_16
REMARK    8  A    between atoms: C_17  and  C_18
REMARK    9  A    between atoms: C_20  and  C_21
REMARK   10  A    between atoms: C_34  and  C_35
REMARK                            x       y       z     vdW  Elec       q    Type
REMARK                         _______ _______ _______ _____ _____    ______ ____
ROOT
ATOM      1  N   UNL     1       2.716   4.691  20.274  0.00  0.00    +0.000 N 
ATOM      2  C   UNL     1       2.281   3.367  20.346  0.00  0.00    +0.000 A 
ATOM      3  C   UNL     1       1.252   2.952  21.364  0.00  0.00    +0.000 C 
ATOM      4  C   UNL     1       2.743   2.460  19.464  0.00  0.00    +0.000 A 
ATOM      5  C   UNL     1       3.683   2.815  18.425  0.00  0.00    +0.000 A 
ATOM      6  C   UNL     1       4.123   1.678  17.538  0.00  0.00    +0.000 C 
ATOM      7  C   UNL     1       4.069   4.106  18.298  0.00  0.00    +0.000 A 
ATOM      8  C   UNL     1       3.561   5.134  19.258  0.00  0.00    +0.000 A 
ATOM      9  O   UNL     1       3.848   6.326  19.131  0.00  0.00    +0.000 OA
ENDROOT
BRANCH   7  10
ATOM     10  C   UNL     1       4.872   4.560  17.216  0.00  0.00    +0.000 A 
ATOM     11  N   UNL     1       4.843   4.086  15.986  0.00  0.00    +0.000 NA
ATOM     12  C   UNL     1       5.709   4.886  15.286  0.00  0.00    +0.000 A 
ATOM     13  N   UNL     1       6.305   5.818  16.036  0.00  0.00    +0.000 NA
ATOM     14  O   UNL     1       5.763   5.614  17.301  0.00  0.00    +0.000 OA
BRANCH  12  15
ATOM     15  C   UNL     1       6.069   4.557  13.917  0.00  0.00    +0.000 A 
ATOM     16  C   UNL     1       7.303   4.972  13.363  0.00  0.00    +0.000 A 
ATOM     17  C   UNL     1       7.813   4.352  12.218  0.00  0.00    +0.000 A 
ATOM     18  C   UNL     1       7.083   3.308  11.697  0.00  0.00    +0.000 A 
ATOM     19  C   UNL     1       5.825   2.988  12.168  0.00  0.00    +0.000 A 
ATOM     20  C   UNL     1       5.265   3.630  13.237  0.00  0.00    +0.000 A 
ATOM     21  O   UNL     1       5.334   1.855  11.594  0.00  0.00    +0.000 OA
ATOM     22  C   UNL     1       6.576   1.334  11.081  0.00  0.00    +0.000 C 
ATOM     23  O   UNL     1       7.526   2.386  10.793  0.00  0.00    +0.000 OA
ENDBRANCH  12  15
ENDBRANCH   7  10
BRANCH   1  24
ATOM     24  C   UNL     1       2.327   5.686  21.278  0.00  0.00    +0.000 C 
BRANCH  24  26
ATOM     25  N   UNL     1       1.816   8.045  20.738  0.00  0.00    +0.000 N 
ATOM     26  C   UNL     1       1.319   6.751  20.817  0.00  0.00    +0.000 C 
ATOM     27  O   UNL     1       0.125   6.454  20.730  0.00  0.00    +0.000 OA
ATOM     28  H   UNL     1       2.613   8.217  21.344  0.00  0.00    +0.000 HD
BRANCH  25  34
ATOM     29  C   UNL     1      -1.368  12.611  19.264  0.00  0.00    +0.000 C 
ATOM     30  C   UNL     1      -0.530  11.423  19.636  0.00  0.00    +0.000 A 
ATOM     31  C   UNL     1       0.180  10.696  18.678  0.00  0.00    +0.000 A 
ATOM     32  C   UNL     1       0.949   9.569  19.040  0.00  0.00    +0.000 A 
ATOM     33  C   UNL     1       1.715   8.864  17.954  0.00  0.00    +0.000 C 
ATOM     34  C   UNL     1       1.013   9.168  20.396  0.00  0.00    +0.000 A 
ATOM     35  C   UNL     1       0.249   9.862  21.355  0.00  0.00    +0.000 A 
ATOM     36  C   UNL     1       0.110   9.423  22.787  0.00  0.00    +0.000 C 
ATOM     37  C   UNL     1      -0.484  11.003  20.967  0.00  0.00    +0.000 A 
ENDBRANCH  25  34
ENDBRANCH  24  26
ENDBRANCH   1  24
TORSDOF 5
ENDMDL
MODEL 8
REMARK VINA RESULT:      -7.6      4.835      8.125
REMARK  Name = 
REMARK  10 active torsions:
REMARK  status: ('A' for Active; 'I' for Inactive)
REMARK    1  A    between atoms: C_1  and  C_2
REMARK    2  A    between atoms: C_4  and  C_5
REMARK    3  A    between atoms: C_6  and  N_7
REMARK    4  A    between atoms: C_8  and  C_10
REMARK    5  A    between atoms: C_10  and  N_11
REMARK    6  A    between atoms: C_12  and  C_13
REMARK    7  A    between atoms: C_15  and  C_16
REMARK    8  A    between atoms: C_17  and  C_18
REMARK    9  A    between atoms: C_20  and  C_21
REMARK   10  A    between atoms: C_34  and  C_35
REMARK                            x       y       z     vdW  Elec       q    Type
REMARK                         _______ _______ _______ _____ _____    ______ ____
ROOT
ATOM      1  N   UNL     1       0.282  13.121  20.647  0.00  0.00    +0.000 N 
ATOM      2  C   UNL     1      -0.796  13.434  19.818  0.00  0.00    +0.000 A 
ATOM      3  C   UNL     1      -1.302  14.848  19.718  0.00  0.00    +0.000 C 
ATOM      4  C   UNL     1      -1.360  12.474  19.060  0.00  0.00    +0.000 A 
ATOM      5  C   UNL     1      -0.875  11.112  19.067  0.00  0.00    +0.000 A 
ATOM      6  C   UNL     1      -1.633  10.154  18.184  0.00  0.00    +0.000 C 
ATOM      7  C   UNL     1       0.209  10.802  19.815  0.00  0.00    +0.000 A 
ATOM      8  C   UNL     1       0.859  11.852  20.657  0.00  0.00    +0.000 A 
ATOM      9  O   UNL     1       1.883  11.614  21.301  0.00  0.00    +0.000 OA
ENDROOT
BRANCH   7  10
ATOM     10  C   UNL     1       0.833   9.525  19.762  0.00  0.00    +0.000 A 
ATOM     11  N   UNL     1       1.497   9.036  18.733  0.00  0.00    +0.000 NA
ATOM     12  C   UNL     1       1.988   7.835  19.176  0.00  0.00    +0.000 A 
ATOM     13  N   UNL     1       1.629   7.537  20.430  0.00  0.00    +0.000 NA
ATOM     14  O   UNL     1       0.872   8.638  20.822  0.00  0.00    +0.000 OA
BRANCH  12  15
ATOM     15  C   UNL     1       2.638   6.921  18.253  0.00  0.00    +0.000 A 
ATOM     16  C   UNL     1       3.852   7.265  17.613  0.00  0.00    +0.000 A 
ATOM     17  C   UNL     1       4.661   6.275  17.045  0.00  0.00    +0.000 A 
ATOM     18  C   UNL     1       4.238   4.972  17.178  0.00  0.00    +0.000 A 
ATOM     19  C   UNL     1       2.998   4.654  17.695  0.00  0.00    +0.000 A 
ATOM     20  C   UNL     1       2.150   5.608  18.187  0.00  0.00    +0.000 A 
ATOM     21  O   UNL     1       2.833   3.311  17.846  0.00  0.00    +0.000 OA
ATOM     22  C   UNL     1       4.220   2.927  17.772  0.00  0.00    +0.000 C 
ATOM     23  O   UNL     1       4.996   3.854  16.978  0.00  0.00    +0.000 OA
ENDBRANCH  12  15
ENDBRANCH   7  10
BRANCH   1  24
ATOM     24  C   UNL     1       0.855  14.105  21.571  0.00  0.00    +0.000 C 
BRANCH  24  26
ATOM     25  N   UNL     1       3.167  14.321  20.718  0.00  0.00    +0.000 N 
ATOM     26  C   UNL     1       1.982  14.985  21.006  0.00  0.00    +0.000 C 
ATOM     27  O   UNL     1       1.852  16.212  21.016  0.00  0.00    +0.000 OA
ATOM     28  H   UNL     1       3.304  13.471  21.258  0.00  0.00    +0.000 HD
BRANCH  25  34
ATOM     29  C   UNL     1       7.892  16.951  18.737  0.00  0.00    +0.000 C 
ATOM     30  C   UNL     1       6.658  16.260  19.240  0.00  0.00    +0.000 A 
ATOM     31  C   UNL     1       5.618  15.895  18.382  0.00  0.00    +0.000 A 
ATOM     32  C   UNL     1       4.455  15.263  18.872  0.00  0.00    +0.000 A 
ATOM     33  C   UNL     1       3.399  14.868  17.877  0.00  0.00    +0.000 C 
ATOM     34  C   UNL     1       4.337  14.982  20.254  0.00  0.00    +0.000 A 
ATOM     35  C   UNL     1       5.357  15.404  21.131  0.00  0.00    +0.000 A 
ATOM     36  C   UNL     1       5.260  15.310  22.629  0.00  0.00    +0.000 C 
ATOM     37  C   UNL     1       6.521  16.005  20.606  0.00  0.00    +0.000 A 
ENDBRANCH  25  34
ENDBRANCH  24  26
ENDBRANCH   1  24
TORSDOF 5
ENDMDL
MODEL 9
REMARK VINA RESULT:      -7.5      4.807      9.131
REMARK  Name = 
REMARK  10 active torsions:
REMARK  status: ('A' for Active; 'I' for Inactive)
REMARK    1  A    between atoms: C_1  and  C_2
REMARK    2  A    between atoms: C_4  and  C_5
REMARK    3  A    between atoms: C_6  and  N_7
REMARK    4  A    between atoms: C_8  and  C_10
REMARK    5  A    between atoms: C_10  and  N_11
REMARK    6  A    between atoms: C_12  and  C_13
REMARK    7  A    between atoms: C_15  and  C_16
REMARK    8  A    between atoms: C_17  and  C_18
REMARK    9  A    between atoms: C_20  and  C_21
REMARK   10  A    between atoms: C_34  and  C_35
REMARK                            x       y       z     vdW  Elec       q    Type
REMARK                         _______ _______ _______ _____ _____    ______ ____
ROOT
ATOM      1  N   UNL     1      -4.362  12.157  19.163  0.00  0.00    +0.000 N 
ATOM      2  C   UNL     1      -5.010  11.978  17.939  0.00  0.00    +0.000 A 
ATOM      3  C   UNL     1      -6.398  12.519  17.720  0.00  0.00    +0.000 C 
ATOM      4  C   UNL     1      -4.372  11.363  16.925  0.00  0.00    +0.000 A 
ATOM      5  C   UNL     1      -3.016  10.880  17.058  0.00  0.00    +0.000 A 
ATOM      6  C   UNL     1      -2.456  10.189  15.841  0.00  0.00    +0.000 C 
ATOM      7  C   UNL     1      -2.347  11.099  18.215  0.00  0.00    +0.000 A 
ATOM      8  C   UNL     1      -3.031  11.789  19.351  0.00  0.00    +0.000 A 
ATOM      9  O   UNL     1      -2.429  12.056  20.393  0.00  0.00    +0.000 OA
ENDROOT
BRANCH   7  10
ATOM     10  C   UNL     1      -0.969  10.786  18.370  0.00  0.00    +0.000 A 
ATOM     11  N   UNL     1      -0.474   9.585  18.593  0.00  0.00    +0.000 NA
ATOM     12  C   UNL     1       0.885   9.761  18.576  0.00  0.00    +0.000 A 
ATOM     13  N   UNL     1       1.260  11.031  18.386  0.00  0.00    +0.000 NA
ATOM     14  O   UNL     1       0.053  11.710  18.250  0.00  0.00    +0.000 OA
BRANCH  12  15
ATOM     15  C   UNL     1       1.772   8.676  18.957  0.00  0.00    +0.000 A 
ATOM     16  C   UNL     1       1.606   7.989  20.183  0.00  0.00    +0.000 A 
ATOM     17  C   UNL     1       2.188   6.732  20.377  0.00  0.00    +0.000 A 
ATOM     18  C   UNL     1       2.882   6.194  19.316  0.00  0.00    +0.000 A 
ATOM     19  C   UNL     1       3.141   6.918  18.170  0.00  0.00    +0.000 A 
ATOM     20  C   UNL     1       2.652   8.182  17.982  0.00  0.00    +0.000 A 
ATOM     21  O   UNL     1       3.734   6.161  17.207  0.00  0.00    +0.000 OA
ATOM     22  C   UNL     1       3.405   4.863  17.740  0.00  0.00    +0.000 C 
ATOM     23  O   UNL     1       3.261   4.890  19.178  0.00  0.00    +0.000 OA
ENDBRANCH  12  15
ENDBRANCH   7  10
BRANCH   1  24
ATOM     24  C   UNL     1      -5.054  12.720  20.326  0.00  0.00    +0.000 C 
BRANCH  24  26
ATOM     25  N   UNL     1      -4.032  13.382  22.479  0.00  0.00    +0.000 N 
ATOM     26  C   UNL     1      -4.257  13.739  21.157  0.00  0.00    +0.000 C 
ATOM     27  O   UNL     1      -4.033  14.857  20.686  0.00  0.00    +0.000 OA
ATOM     28  H   UNL     1      -4.719  12.733  22.852  0.00  0.00    +0.000 HD
BRANCH  25  34
ATOM     29  C   UNL     1      -1.447  16.886  26.248  0.00  0.00    +0.000 C 
ATOM     30  C   UNL     1      -2.131  15.982  25.264  0.00  0.00    +0.000 A 
ATOM     31  C   UNL     1      -3.508  16.049  25.040  0.00  0.00    +0.000 A 
ATOM     32  C   UNL     1      -4.141  15.181  24.126  0.00  0.00    +0.000 A 
ATOM     33  C   UNL     1      -5.621  15.343  23.913  0.00  0.00    +0.000 C 
ATOM     34  C   UNL     1      -3.374  14.229  23.413  0.00  0.00    +0.000 A 
ATOM     35  C   UNL     1      -1.994  14.117  23.683  0.00  0.00    +0.000 A 
ATOM     36  C   UNL     1      -1.118  13.035  23.112  0.00  0.00    +0.000 C 
ATOM     37  C   UNL     1      -1.386  15.021  24.579  0.00  0.00    +0.000 A 
ENDBRANCH  25  34
ENDBRANCH  24  26
ENDBRANCH   1  24
TORSDOF 5
ENDMDL
