MODEL 1
REMARK VINA RESULT:      -8.3      0.000      0.000
REMARK  Name = 
REMARK  6 active torsions:
REMARK  status: ('A' for Active; 'I' for Inactive)
REMARK    1  A    between atoms: C_2  and  O_3
REMARK    2  A    between atoms: C_2  and  C_15
REMARK    3  A    between atoms: O_3  and  C_4
REMARK    4  A    between atoms: C_4  and  C_5
REMARK    5  A    between atoms: C_17  and  N_18
REMARK    6  A    between atoms: C_23  and  N_24
REMARK                            x       y       z     vdW  Elec       q    Type
REMARK                         _______ _______ _______ _____ _____    ______ ____
ROOT
ATOM      1  O   UNL     1       1.992   7.614  19.816  0.00  0.00    +0.000 OA
ATOM      2  C   UNL     1       2.452   7.531  18.687  0.00  0.00    +0.000 C 
ENDROOT
BRANCH   2   3
ATOM      3  C   UNL     1       3.415   6.446  18.327  0.00  0.00    +0.000 A 
ATOM      4  C   UNL     1       4.614   6.946  17.756  0.00  0.00    +0.000 A 
ATOM      5  C   UNL     1       5.614   6.078  17.317  0.00  0.00    +0.000 A 
ATOM      6  C   UNL     1       5.453   4.709  17.471  0.00  0.00    +0.000 A 
ATOM      7  C   UNL     1       4.269   4.218  18.040  0.00  0.00    +0.000 A 
ATOM      8  C   UNL     1       3.200   5.046  18.466  0.00  0.00    +0.000 A 
BRANCH   8   9
ATOM      9  N   UNL     1       2.032   4.467  18.947  0.00  0.00    +0.000 N 
ATOM     10  C   UNL     1       1.711   4.280  20.367  0.00  0.00    +0.000 C 
ATOM     11  C   UNL     1       1.321   2.812  20.473  0.00  0.00    +0.000 C 
ATOM     12  C   UNL     1       0.616   2.549  19.159  0.00  0.00    +0.000 C 
ATOM     13  C   UNL     1       1.346   3.434  18.151  0.00  0.00    +0.000 C 
ENDBRANCH   8   9
BRANCH   5  14
ATOM     14  N   UNL     1       6.818   6.602  16.660  0.00  0.00    +0.000 N 
ATOM     15  O   UNL     1       7.344   5.908  15.780  0.00  0.00    +0.000 OA
ATOM     16  O   UNL     1       7.243   7.707  17.032  0.00  0.00    +0.000 OA
ENDBRANCH   5  14
ENDBRANCH   2   3
BRANCH   2  17
ATOM     17  O   UNL     1       2.084   8.306  17.641  0.00  0.00    +0.000 OA
BRANCH  17  18
ATOM     18  C   UNL     1       1.872   9.703  17.954  0.00  0.00    +0.000 C 
BRANCH  18  19
ATOM     19  C   UNL     1       0.430  10.116  18.060  0.00  0.00    +0.000 A 
ATOM     20  C   UNL     1      -0.124  11.128  18.823  0.00  0.00    +0.000 A 
ATOM     21  N   UNL     1      -1.473  11.097  18.583  0.00  0.00    +0.000 N 
ATOM     22  C   UNL     1      -2.481  11.926  19.068  0.00  0.00    +0.000 A 
ATOM     23  C   UNL     1      -3.748  11.694  18.691  0.00  0.00    +0.000 A 
ATOM     24 CL   UNL     1      -5.044  12.688  19.225  0.00  0.00    +0.000 Cl
ATOM     25  C   UNL     1      -4.036  10.572  17.810  0.00  0.00    +0.000 A 
ATOM     26  C   UNL     1      -3.052   9.776  17.344  0.00  0.00    +0.000 A 
ATOM     27  C   UNL     1      -1.698  10.034  17.714  0.00  0.00    +0.000 A 
ATOM     28  N   UNL     1      -0.571   9.441  17.379  0.00  0.00    +0.000 NA
ENDBRANCH  18  19
ENDBRANCH  17  18
ENDBRANCH   2  17
TORSDOF 6
ENDMDL
MODEL 2
REMARK VINA RESULT:      -8.3      2.178      2.782
REMARK  Name = 
REMARK  6 active torsions:
REMARK  status: ('A' for Active; 'I' for Inactive)
REMARK    1  A    between atoms: C_2  and  O_3
REMARK    2  A    between atoms: C_2  and  C_15
REMARK    3  A    between atoms: O_3  and  C_4
REMARK    4  A    between atoms: C_4  and  C_5
REMARK    5  A    between atoms: C_17  and  N_18
REMARK    6  A    between atoms: C_23  and  N_24
REMARK                            x       y       z     vdW  Elec       q    Type
REMARK                         _______ _______ _______ _____ _____    ______ ____
ROOT
ATOM      1  O   UNL     1       1.516   5.670  17.648  0.00  0.00    +0.000 OA
ATOM      2  C   UNL     1       2.413   6.231  18.259  0.00  0.00    +0.000 C 
ENDROOT
BRANCH   2   3
ATOM      3  C   UNL     1       3.774   5.621  18.360  0.00  0.00    +0.000 A 
ATOM      4  C   UNL     1       4.761   6.367  17.665  0.00  0.00    +0.000 A 
ATOM      5  C   UNL     1       6.083   5.927  17.611  0.00  0.00    +0.000 A 
ATOM      6  C   UNL     1       6.450   4.765  18.274  0.00  0.00    +0.000 A 
ATOM      7  C   UNL     1       5.473   4.032  18.964  0.00  0.00    +0.000 A 
ATOM      8  C   UNL     1       4.106   4.405  19.020  0.00  0.00    +0.000 A 
BRANCH   8   9
ATOM      9  N   UNL     1       3.194   3.576  19.662  0.00  0.00    +0.000 N 
ATOM     10  C   UNL     1       2.371   2.559  18.996  0.00  0.00    +0.000 C 
ATOM     11  C   UNL     1       0.956   2.851  19.473  0.00  0.00    +0.000 C 
ATOM     12  C   UNL     1       1.163   3.311  20.901  0.00  0.00    +0.000 C 
ATOM     13  C   UNL     1       2.500   4.050  20.872  0.00  0.00    +0.000 C 
ENDBRANCH   8   9
BRANCH   5  14
ATOM     14  N   UNL     1       7.082   6.667  16.828  0.00  0.00    +0.000 N 
ATOM     15  O   UNL     1       7.611   6.085  15.871  0.00  0.00    +0.000 OA
ATOM     16  O   UNL     1       7.342   7.829  17.176  0.00  0.00    +0.000 OA
ENDBRANCH   5  14
ENDBRANCH   2   3
BRANCH   2  17
ATOM     17  O   UNL     1       2.324   7.466  18.804  0.00  0.00    +0.000 OA
BRANCH  17  18
ATOM     18  C   UNL     1       2.038   7.493  20.223  0.00  0.00    +0.000 C 
BRANCH  18  19
ATOM     19  C   UNL     1       1.119   8.600  20.662  0.00  0.00    +0.000 A 
ATOM     20  C   UNL     1       0.614   9.648  19.914  0.00  0.00    +0.000 A 
ATOM     21  N   UNL     1      -0.162  10.389  20.766  0.00  0.00    +0.000 N 
ATOM     22  C   UNL     1      -0.927  11.524  20.511  0.00  0.00    +0.000 A 
ATOM     23  C   UNL     1      -1.609  12.087  21.523  0.00  0.00    +0.000 A 
ATOM     24 CL   UNL     1      -2.596  13.472  21.282  0.00  0.00    +0.000 Cl
ATOM     25  C   UNL     1      -1.510  11.513  22.856  0.00  0.00    +0.000 A 
ATOM     26  C   UNL     1      -0.767  10.412  23.091  0.00  0.00    +0.000 A 
ATOM     27  C   UNL     1      -0.065   9.788  22.018  0.00  0.00    +0.000 A 
ATOM     28  N   UNL     1       0.688   8.709  21.974  0.00  0.00    +0.000 NA
ENDBRANCH  18  19
ENDBRANCH  17  18
ENDBRANCH   2  17
TORSDOF 6
ENDMDL
MODEL 3
REMARK VINA RESULT:      -8.1      2.321      2.604
REMARK  Name = 
REMARK  6 active torsions:
REMARK  status: ('A' for Active; 'I' for Inactive)
REMARK    1  A    between atoms: C_2  and  O_3
REMARK    2  A    between atoms: C_2  and  C_15
REMARK    3  A    between atoms: O_3  and  C_4
REMARK    4  A    between atoms: C_4  and  C_5
REMARK    5  A    between atoms: C_17  and  N_18
REMARK    6  A    between atoms: C_23  and  N_24
REMARK                            x       y       z     vdW  Elec       q    Type
REMARK                         _______ _______ _______ _____ _____    ______ ____
ROOT
ATOM      1  O   UNL     1       1.489   6.629  17.572  0.00  0.00    +0.000 OA
ATOM      2  C   UNL     1       2.555   7.055  17.991  0.00  0.00    +0.000 C 
ENDROOT
BRANCH   2   3
ATOM      3  C   UNL     1       3.723   6.143  18.186  0.00  0.00    +0.000 A 
ATOM      4  C   UNL     1       4.864   6.550  17.446  0.00  0.00    +0.000 A 
ATOM      5  C   UNL     1       6.038   5.797  17.469  0.00  0.00    +0.000 A 
ATOM      6  C   UNL     1       6.107   4.653  18.252  0.00  0.00    +0.000 A 
ATOM      7  C   UNL     1       4.979   4.256  18.985  0.00  0.00    +0.000 A 
ATOM      8  C   UNL     1       3.746   4.956  18.970  0.00  0.00    +0.000 A 
BRANCH   8   9
ATOM      9  N   UNL     1       2.658   4.445  19.667  0.00  0.00    +0.000 N 
ATOM     10  C   UNL     1       2.424   4.625  21.105  0.00  0.00    +0.000 C 
ATOM     11  C   UNL     1       2.171   3.216  21.623  0.00  0.00    +0.000 C 
ATOM     12  C   UNL     1       1.429   2.558  20.478  0.00  0.00    +0.000 C 
ATOM     13  C   UNL     1       2.028   3.189  19.223  0.00  0.00    +0.000 C 
ENDBRANCH   8   9
BRANCH   5  14
ATOM     14  N   UNL     1       7.188   6.186  16.642  0.00  0.00    +0.000 N 
ATOM     15  O   UNL     1       7.483   5.458  15.685  0.00  0.00    +0.000 OA
ATOM     16  O   UNL     1       7.801   7.217  16.957  0.00  0.00    +0.000 OA
ENDBRANCH   5  14
ENDBRANCH   2   3
BRANCH   2  17
ATOM     17  O   UNL     1       2.833   8.359  18.219  0.00  0.00    +0.000 OA
BRANCH  17  18
ATOM     18  C   UNL     1       1.753   9.278  17.930  0.00  0.00    +0.000 C 
BRANCH  18  19
ATOM     19  C   UNL     1       1.077   9.861  19.140  0.00  0.00    +0.000 A 
ATOM     20  C   UNL     1       0.757  11.182  19.396  0.00  0.00    +0.000 A 
ATOM     21  N   UNL     1       0.164  11.202  20.631  0.00  0.00    +0.000 N 
ATOM     22  C   UNL     1      -0.378  12.271  21.340  0.00  0.00    +0.000 A 
ATOM     23  C   UNL     1      -0.907  12.042  22.553  0.00  0.00    +0.000 A 
ATOM     24 CL   UNL     1      -1.619  13.303  23.477  0.00  0.00    +0.000 Cl
ATOM     25  C   UNL     1      -0.877  10.695  23.102  0.00  0.00    +0.000 A 
ATOM     26  C   UNL     1      -0.351   9.667  22.406  0.00  0.00    +0.000 A 
ATOM     27  C   UNL     1       0.185   9.893  21.104  0.00  0.00    +0.000 A 
ATOM     28  N   UNL     1       0.717   9.073  20.221  0.00  0.00    +0.000 NA
ENDBRANCH  18  19
ENDBRANCH  17  18
ENDBRANCH   2  17
TORSDOF 6
ENDMDL
MODEL 4
REMARK VINA RESULT:      -8.1      2.151      2.729
REMARK  Name = 
REMARK  6 active torsions:
REMARK  status: ('A' for Active; 'I' for Inactive)
REMARK    1  A    between atoms: C_2  and  O_3
REMARK    2  A    between atoms: C_2  and  C_15
REMARK    3  A    between atoms: O_3  and  C_4
REMARK    4  A    between atoms: C_4  and  C_5
REMARK    5  A    between atoms: C_17  and  N_18
REMARK    6  A    between atoms: C_23  and  N_24
REMARK                            x       y       z     vdW  Elec       q    Type
REMARK                         _______ _______ _______ _____ _____    ______ ____
ROOT
ATOM      1  O   UNL     1       1.537   5.821  17.750  0.00  0.00    +0.000 OA
ATOM      2  C   UNL     1       2.466   6.320  18.366  0.00  0.00    +0.000 C 
ENDROOT
BRANCH   2   3
ATOM      3  C   UNL     1       3.807   5.660  18.403  0.00  0.00    +0.000 A 
ATOM      4  C   UNL     1       4.800   6.398  17.708  0.00  0.00    +0.000 A 
ATOM      5  C   UNL     1       6.104   5.917  17.598  0.00  0.00    +0.000 A 
ATOM      6  C   UNL     1       6.448   4.717  18.205  0.00  0.00    +0.000 A 
ATOM      7  C   UNL     1       5.466   3.991  18.894  0.00  0.00    +0.000 A 
ATOM      8  C   UNL     1       4.115   4.408  19.005  0.00  0.00    +0.000 A 
BRANCH   8   9
ATOM      9  N   UNL     1       3.193   3.586  19.642  0.00  0.00    +0.000 N 
ATOM     10  C   UNL     1       2.318   2.623  18.963  0.00  0.00    +0.000 C 
ATOM     11  C   UNL     1       0.927   2.943  19.491  0.00  0.00    +0.000 C 
ATOM     12  C   UNL     1       1.189   3.342  20.928  0.00  0.00    +0.000 C 
ATOM     13  C   UNL     1       2.548   4.036  20.889  0.00  0.00    +0.000 C 
ENDBRANCH   8   9
BRANCH   5  14
ATOM     14  N   UNL     1       7.105   6.652  16.814  0.00  0.00    +0.000 N 
ATOM     15  O   UNL     1       7.370   7.810  17.161  0.00  0.00    +0.000 OA
ATOM     16  O   UNL     1       7.619   6.071  15.846  0.00  0.00    +0.000 OA
ENDBRANCH   5  14
ENDBRANCH   2   3
BRANCH   2  17
ATOM     17  O   UNL     1       2.433   7.527  18.976  0.00  0.00    +0.000 OA
BRANCH  17  18
ATOM     18  C   UNL     1       1.982   7.510  20.351  0.00  0.00    +0.000 C 
BRANCH  18  19
ATOM     19  C   UNL     1       1.082   8.652  20.736  0.00  0.00    +0.000 A 
ATOM     20  C   UNL     1       0.633   9.008  21.994  0.00  0.00    +0.000 A 
ATOM     21  N   UNL     1      -0.167  10.108  21.821  0.00  0.00    +0.000 N 
ATOM     22  C   UNL     1      -0.834  10.880  22.767  0.00  0.00    +0.000 A 
ATOM     23  C   UNL     1      -1.573  11.921  22.350  0.00  0.00    +0.000 A 
ATOM     24 CL   UNL     1      -2.403  12.938  23.458  0.00  0.00    +0.000 Cl
ATOM     25  C   UNL     1      -1.676  12.197  20.924  0.00  0.00    +0.000 A 
ATOM     26  C   UNL     1      -1.024  11.443  20.016  0.00  0.00    +0.000 A 
ATOM     27  C   UNL     1      -0.211  10.355  20.451  0.00  0.00    +0.000 A 
ATOM     28  N   UNL     1       0.540   9.501  19.786  0.00  0.00    +0.000 NA
ENDBRANCH  18  19
ENDBRANCH  17  18
ENDBRANCH   2  17
TORSDOF 6
ENDMDL
MODEL 5
REMARK VINA RESULT:      -8.0      2.002      2.627
REMARK  Name = 
REMARK  6 active torsions:
REMARK  status: ('A' for Active; 'I' for Inactive)
REMARK    1  A    between atoms: C_2  and  O_3
REMARK    2  A    between atoms: C_2  and  C_15
REMARK    3  A    between atoms: O_3  and  C_4
REMARK    4  A    between atoms: C_4  and  C_5
REMARK    5  A    between atoms: C_17  and  N_18
REMARK    6  A    between atoms: C_23  and  N_24
REMARK                            x       y       z     vdW  Elec       q    Type
REMARK                         _______ _______ _______ _____ _____    ______ ____
ROOT
ATOM      1  O   UNL     1       1.855   7.849  17.636  0.00  0.00    +0.000 OA
ATOM      2  C   UNL     1       2.552   7.392  18.530  0.00  0.00    +0.000 C 
ENDROOT
BRANCH   2   3
ATOM      3  C   UNL     1       3.525   6.291  18.258  0.00  0.00    +0.000 A 
ATOM      4  C   UNL     1       4.722   6.755  17.653  0.00  0.00    +0.000 A 
ATOM      5  C   UNL     1       5.731   5.864  17.286  0.00  0.00    +0.000 A 
ATOM      6  C   UNL     1       5.581   4.509  17.547  0.00  0.00    +0.000 A 
ATOM      7  C   UNL     1       4.399   4.054  18.149  0.00  0.00    +0.000 A 
ATOM      8  C   UNL     1       3.322   4.904  18.507  0.00  0.00    +0.000 A 
BRANCH   8   9
ATOM      9  N   UNL     1       2.157   4.355  19.028  0.00  0.00    +0.000 N 
ATOM     10  C   UNL     1       1.917   4.094  20.452  0.00  0.00    +0.000 C 
ATOM     11  C   UNL     1       1.457   2.644  20.496  0.00  0.00    +0.000 C 
ATOM     12  C   UNL     1       0.657   2.499  19.218  0.00  0.00    +0.000 C 
ATOM     13  C   UNL     1       1.367   3.409  18.219  0.00  0.00    +0.000 C 
ENDBRANCH   8   9
BRANCH   5  14
ATOM     14  N   UNL     1       6.933   6.345  16.593  0.00  0.00    +0.000 N 
ATOM     15  O   UNL     1       7.418   7.423  16.962  0.00  0.00    +0.000 OA
ATOM     16  O   UNL     1       7.387   5.647  15.674  0.00  0.00    +0.000 OA
ENDBRANCH   5  14
ENDBRANCH   2   3
BRANCH   2  17
ATOM     17  O   UNL     1       2.606   7.872  19.793  0.00  0.00    +0.000 OA
BRANCH  17  18
ATOM     18  C   UNL     1       1.441   7.597  20.607  0.00  0.00    +0.000 C 
BRANCH  18  19
ATOM     19  C   UNL     1       0.599   8.800  20.932  0.00  0.00    +0.000 A 
ATOM     20  C   UNL     1       0.194   9.822  20.091  0.00  0.00    +0.000 A 
ATOM     21  N   UNL     1      -0.544  10.683  20.860  0.00  0.00    +0.000 N 
ATOM     22  C   UNL     1      -1.213  11.849  20.496  0.00  0.00    +0.000 A 
ATOM     23  C   UNL     1      -1.875  12.537  21.440  0.00  0.00    +0.000 A 
ATOM     24 CL   UNL     1      -2.746  13.969  21.066  0.00  0.00    +0.000 Cl
ATOM     25  C   UNL     1      -1.853  12.063  22.816  0.00  0.00    +0.000 A 
ATOM     26  C   UNL     1      -1.203  10.932  23.157  0.00  0.00    +0.000 A 
ATOM     27  C   UNL     1      -0.524  10.176  22.156  0.00  0.00    +0.000 A 
ATOM     28  N   UNL     1       0.145   9.043  22.218  0.00  0.00    +0.000 NA
ENDBRANCH  18  19
ENDBRANCH  17  18
ENDBRANCH   2  17
TORSDOF 6
ENDMDL
MODEL 6
REMARK VINA RESULT:      -8.0      2.890      4.913
REMARK  Name = 
REMARK  6 active torsions:
REMARK  status: ('A' for Active; 'I' for Inactive)
REMARK    1  A    between atoms: C_2  and  O_3
REMARK    2  A    between atoms: C_2  and  C_15
REMARK    3  A    between atoms: O_3  and  C_4
REMARK    4  A    between atoms: C_4  and  C_5
REMARK    5  A    between atoms: C_17  and  N_18
REMARK    6  A    between atoms: C_23  and  N_24
REMARK                            x       y       z     vdW  Elec       q    Type
REMARK                         _______ _______ _______ _____ _____    ______ ____
ROOT
ATOM      1  O   UNL     1       4.156   7.438  17.431  0.00  0.00    +0.000 OA
ATOM      2  C   UNL     1       3.249   6.794  17.936  0.00  0.00    +0.000 C 
ENDROOT
BRANCH   2   3
ATOM      3  C   UNL     1       3.195   5.306  17.799  0.00  0.00    +0.000 A 
ATOM      4  C   UNL     1       2.133   4.726  18.542  0.00  0.00    +0.000 A 
ATOM      5  C   UNL     1       1.951   3.344  18.570  0.00  0.00    +0.000 A 
ATOM      6  C   UNL     1       2.795   2.523  17.836  0.00  0.00    +0.000 A 
ATOM      7  C   UNL     1       3.840   3.099  17.099  0.00  0.00    +0.000 A 
ATOM      8  C   UNL     1       4.102   4.492  17.065  0.00  0.00    +0.000 A 
BRANCH   8   9
ATOM      9  N   UNL     1       5.208   4.966  16.370  0.00  0.00    +0.000 N 
ATOM     10  C   UNL     1       5.323   5.013  14.907  0.00  0.00    +0.000 C 
ATOM     11  C   UNL     1       6.655   4.336  14.614  0.00  0.00    +0.000 C 
ATOM     12  C   UNL     1       7.520   4.760  15.783  0.00  0.00    +0.000 C 
ATOM     13  C   UNL     1       6.552   4.844  16.962  0.00  0.00    +0.000 C 
ENDBRANCH   8   9
BRANCH   5  14
ATOM     14  N   UNL     1       0.895   2.750  19.400  0.00  0.00    +0.000 N 
ATOM     15  O   UNL     1       0.059   2.029  18.840  0.00  0.00    +0.000 OA
ATOM     16  O   UNL     1       0.899   3.012  20.613  0.00  0.00    +0.000 OA
ENDBRANCH   5  14
ENDBRANCH   2   3
BRANCH   2  17
ATOM     17  O   UNL     1       2.286   7.306  18.735  0.00  0.00    +0.000 OA
BRANCH  17  18
ATOM     18  C   UNL     1       1.919   8.678  18.454  0.00  0.00    +0.000 C 
BRANCH  18  19
ATOM     19  C   UNL     1       1.157   9.366  19.553  0.00  0.00    +0.000 A 
ATOM     20  C   UNL     1       0.798  10.698  19.650  0.00  0.00    +0.000 A 
ATOM     21  N   UNL     1       0.128  10.832  20.838  0.00  0.00    +0.000 N 
ATOM     22  C   UNL     1      -0.476  11.955  21.396  0.00  0.00    +0.000 A 
ATOM     23  C   UNL     1      -1.077  11.840  22.592  0.00  0.00    +0.000 A 
ATOM     24 CL   UNL     1      -1.868  13.172  23.333  0.00  0.00    +0.000 Cl
ATOM     25  C   UNL     1      -1.058  10.557  23.280  0.00  0.00    +0.000 A 
ATOM     26  C   UNL     1      -0.471   9.476  22.729  0.00  0.00    +0.000 A 
ATOM     27  C   UNL     1       0.142   9.579  21.445  0.00  0.00    +0.000 A 
ATOM     28  N   UNL     1       0.743   8.686  20.687  0.00  0.00    +0.000 NA
ENDBRANCH  18  19
ENDBRANCH  17  18
ENDBRANCH   2  17
TORSDOF 6
ENDMDL
MODEL 7
REMARK VINA RESULT:      -8.0      2.412      3.065
REMARK  Name = 
REMARK  6 active torsions:
REMARK  status: ('A' for Active; 'I' for Inactive)
REMARK    1  A    between atoms: C_2  and  O_3
REMARK    2  A    between atoms: C_2  and  C_15
REMARK    3  A    between atoms: O_3  and  C_4
REMARK    4  A    between atoms: C_4  and  C_5
REMARK    5  A    between atoms: C_17  and  N_18
REMARK    6  A    between atoms: C_23  and  N_24
REMARK                            x       y       z     vdW  Elec       q    Type
REMARK                         _______ _______ _______ _____ _____    ______ ____
ROOT
ATOM      1  O   UNL     1       4.814   7.990  17.775  0.00  0.00    +0.000 OA
ATOM      2  C   UNL     1       3.964   7.143  17.547  0.00  0.00    +0.000 C 
ENDROOT
BRANCH   2   3
ATOM      3  C   UNL     1       4.347   5.766  17.109  0.00  0.00    +0.000 A 
ATOM      4  C   UNL     1       5.307   5.771  16.063  0.00  0.00    +0.000 A 
ATOM      5  C   UNL     1       5.752   4.578  15.495  0.00  0.00    +0.000 A 
ATOM      6  C   UNL     1       5.281   3.366  15.981  0.00  0.00    +0.000 A 
ATOM      7  C   UNL     1       4.337   3.364  17.018  0.00  0.00    +0.000 A 
ATOM      8  C   UNL     1       3.815   4.544  17.607  0.00  0.00    +0.000 A 
BRANCH   8   9
ATOM      9  N   UNL     1       2.824   4.447  18.576  0.00  0.00    +0.000 N 
ATOM     10  C   UNL     1       3.068   4.223  20.006  0.00  0.00    +0.000 C 
ATOM     11  C   UNL     1       2.163   3.052  20.362  0.00  0.00    +0.000 C 
ATOM     12  C   UNL     1       0.943   3.285  19.495  0.00  0.00    +0.000 C 
ATOM     13  C   UNL     1       1.498   3.911  18.217  0.00  0.00    +0.000 C 
ENDBRANCH   8   9
BRANCH   5  14
ATOM     14  N   UNL     1       6.689   4.597  14.364  0.00  0.00    +0.000 N 
ATOM     15  O   UNL     1       7.643   5.384  14.419  0.00  0.00    +0.000 OA
ATOM     16  O   UNL     1       6.464   3.828  13.417  0.00  0.00    +0.000 OA
ENDBRANCH   5  14
ENDBRANCH   2   3
BRANCH   2  17
ATOM     17  O   UNL     1       2.636   7.302  17.754  0.00  0.00    +0.000 OA
BRANCH  17  18
ATOM     18  C   UNL     1       2.159   8.666  17.670  0.00  0.00    +0.000 C 
BRANCH  18  19
ATOM     19  C   UNL     1       1.459   9.168  18.902  0.00  0.00    +0.000 A 
ATOM     20  C   UNL     1       0.764  10.351  19.077  0.00  0.00    +0.000 A 
ATOM     21  N   UNL     1       0.323  10.351  20.374  0.00  0.00    +0.000 N 
ATOM     22  C   UNL     1      -0.456  11.287  21.049  0.00  0.00    +0.000 A 
ATOM     23  C   UNL     1      -0.760  11.068  22.338  0.00  0.00    +0.000 A 
ATOM     24 CL   UNL     1      -1.739  12.162  23.230  0.00  0.00    +0.000 Cl
ATOM     25  C   UNL     1      -0.249   9.877  23.000  0.00  0.00    +0.000 A 
ATOM     26  C   UNL     1       0.504   8.976  22.337  0.00  0.00    +0.000 A 
ATOM     27  C   UNL     1       0.806   9.183  20.958  0.00  0.00    +0.000 A 
ATOM     28  N   UNL     1       1.478   8.456  20.090  0.00  0.00    +0.000 NA
ENDBRANCH  18  19
ENDBRANCH  17  18
ENDBRANCH   2  17
TORSDOF 6
ENDMDL
MODEL 8
REMARK VINA RESULT:      -7.9      1.751      2.244
REMARK  Name = 
REMARK  6 active torsions:
REMARK  status: ('A' for Active; 'I' for Inactive)
REMARK    1  A    between atoms: C_2  and  O_3
REMARK    2  A    between atoms: C_2  and  C_15
REMARK    3  A    between atoms: O_3  and  C_4
REMARK    4  A    between atoms: C_4  and  C_5
REMARK    5  A    between atoms: C_17  and  N_18
REMARK    6  A    between atoms: C_23  and  N_24
REMARK                            x       y       z     vdW  Elec       q    Type
REMARK                         _______ _______ _______ _____ _____    ______ ____
ROOT
ATOM      1  O   UNL     1       1.598   5.824  17.604  0.00  0.00    +0.000 OA
ATOM      2  C   UNL     1       2.454   6.246  18.366  0.00  0.00    +0.000 C 
ENDROOT
BRANCH   2   3
ATOM      3  C   UNL     1       3.806   5.611  18.431  0.00  0.00    +0.000 A 
ATOM      4  C   UNL     1       4.790   6.343  17.717  0.00  0.00    +0.000 A 
ATOM      5  C   UNL     1       6.102   5.880  17.628  0.00  0.00    +0.000 A 
ATOM      6  C   UNL     1       6.463   4.706  18.275  0.00  0.00    +0.000 A 
ATOM      7  C   UNL     1       5.490   3.987  18.984  0.00  0.00    +0.000 A 
ATOM      8  C   UNL     1       4.132   4.384  19.075  0.00  0.00    +0.000 A 
BRANCH   8   9
ATOM      9  N   UNL     1       3.220   3.568  19.733  0.00  0.00    +0.000 N 
ATOM     10  C   UNL     1       2.321   2.613  19.075  0.00  0.00    +0.000 C 
ATOM     11  C   UNL     1       0.946   2.942  19.640  0.00  0.00    +0.000 C 
ATOM     12  C   UNL     1       1.248   3.336  21.070  0.00  0.00    +0.000 C 
ATOM     13  C   UNL     1       2.612   4.020  20.997  0.00  0.00    +0.000 C 
ENDBRANCH   8   9
BRANCH   5  14
ATOM     14  N   UNL     1       7.095   6.606  16.826  0.00  0.00    +0.000 N 
ATOM     15  O   UNL     1       7.609   6.012  15.868  0.00  0.00    +0.000 OA
ATOM     16  O   UNL     1       7.366   7.769  17.160  0.00  0.00    +0.000 OA
ENDBRANCH   5  14
ENDBRANCH   2   3
BRANCH   2  17
ATOM     17  O   UNL     1       2.333   7.354  19.133  0.00  0.00    +0.000 OA
BRANCH  17  18
ATOM     18  C   UNL     1       1.961   8.558  18.421  0.00  0.00    +0.000 C 
BRANCH  18  19
ATOM     19  C   UNL     1       1.017   9.464  19.161  0.00  0.00    +0.000 A 
ATOM     20  C   UNL     1       0.895   9.653  20.525  0.00  0.00    +0.000 A 
ATOM     21  N   UNL     1      -0.110  10.569  20.700  0.00  0.00    +0.000 N 
ATOM     22  C   UNL     1      -0.603  11.135  21.872  0.00  0.00    +0.000 A 
ATOM     23  C   UNL     1      -1.611  12.018  21.790  0.00  0.00    +0.000 A 
ATOM     24 CL   UNL     1      -2.256  12.780  23.189  0.00  0.00    +0.000 Cl
ATOM     25  C   UNL     1      -2.175  12.339  20.488  0.00  0.00    +0.000 A 
ATOM     26  C   UNL     1      -1.688  11.786  19.358  0.00  0.00    +0.000 A 
ATOM     27  C   UNL     1      -0.596  10.871  19.431  0.00  0.00    +0.000 A 
ATOM     28  N   UNL     1       0.073  10.229  18.496  0.00  0.00    +0.000 NA
ENDBRANCH  18  19
ENDBRANCH  17  18
ENDBRANCH   2  17
TORSDOF 6
ENDMDL
MODEL 9
REMARK VINA RESULT:      -7.9      2.101      2.623
REMARK  Name = 
REMARK  6 active torsions:
REMARK  status: ('A' for Active; 'I' for Inactive)
REMARK    1  A    between atoms: C_2  and  O_3
REMARK    2  A    between atoms: C_2  and  C_15
REMARK    3  A    between atoms: O_3  and  C_4
REMARK    4  A    between atoms: C_4  and  C_5
REMARK    5  A    between atoms: C_17  and  N_18
REMARK    6  A    between atoms: C_23  and  N_24
REMARK                            x       y       z     vdW  Elec       q    Type
REMARK                         _______ _______ _______ _____ _____    ______ ____
ROOT
ATOM      1  O   UNL     1       1.837   7.851  17.640  0.00  0.00    +0.000 OA
ATOM      2  C   UNL     1       2.543   7.421  18.540  0.00  0.00    +0.000 C 
ENDROOT
BRANCH   2   3
ATOM      3  C   UNL     1       3.526   6.323  18.288  0.00  0.00    +0.000 A 
ATOM      4  C   UNL     1       4.718   6.785  17.673  0.00  0.00    +0.000 A 
ATOM      5  C   UNL     1       5.734   5.896  17.322  0.00  0.00    +0.000 A 
ATOM      6  C   UNL     1       5.595   4.545  17.609  0.00  0.00    +0.000 A 
ATOM      7  C   UNL     1       4.418   4.092  18.221  0.00  0.00    +0.000 A 
ATOM      8  C   UNL     1       3.334   4.940  18.563  0.00  0.00    +0.000 A 
BRANCH   8   9
ATOM      9  N   UNL     1       2.174   4.391  19.095  0.00  0.00    +0.000 N 
ATOM     10  C   UNL     1       1.970   4.074  20.514  0.00  0.00    +0.000 C 
ATOM     11  C   UNL     1       1.482   2.632  20.510  0.00  0.00    +0.000 C 
ATOM     12  C   UNL     1       0.642   2.558  19.252  0.00  0.00    +0.000 C 
ATOM     13  C   UNL     1       1.341   3.496  18.271  0.00  0.00    +0.000 C 
ENDBRANCH   8   9
BRANCH   5  14
ATOM     14  N   UNL     1       6.931   6.374  16.620  0.00  0.00    +0.000 N 
ATOM     15  O   UNL     1       7.442   7.434  17.006  0.00  0.00    +0.000 OA
ATOM     16  O   UNL     1       7.357   5.692  15.675  0.00  0.00    +0.000 OA
ENDBRANCH   5  14
ENDBRANCH   2   3
BRANCH   2  17
ATOM     17  O   UNL     1       2.601   7.932  19.791  0.00  0.00    +0.000 OA
BRANCH  17  18
ATOM     18  C   UNL     1       1.460   7.632  20.631  0.00  0.00    +0.000 C 
BRANCH  18  19
ATOM     19  C   UNL     1       0.632   8.825  21.021  0.00  0.00    +0.000 A 
ATOM     20  C   UNL     1       0.074   9.122  22.251  0.00  0.00    +0.000 A 
ATOM     21  N   UNL     1      -0.595  10.308  22.094  0.00  0.00    +0.000 N 
ATOM     22  C   UNL     1      -1.292  11.066  23.031  0.00  0.00    +0.000 A 
ATOM     23  C   UNL     1      -1.878  12.207  22.635  0.00  0.00    +0.000 A 
ATOM     24 CL   UNL     1      -2.733  13.210  23.737  0.00  0.00    +0.000 Cl
ATOM     25  C   UNL     1      -1.789  12.607  21.238  0.00  0.00    +0.000 A 
ATOM     26  C   UNL     1      -1.109  11.867  20.340  0.00  0.00    +0.000 A 
ATOM     27  C   UNL     1      -0.457  10.669  20.757  0.00  0.00    +0.000 A 
ATOM     28  N   UNL     1       0.283   9.800  20.100  0.00  0.00    +0.000 NA
ENDBRANCH  18  19
ENDBRANCH  17  18
ENDBRANCH   2  17
TORSDOF 6
ENDMDL
