MODEL 1
REMARK VINA RESULT:      -9.2      0.000      0.000
REMARK  Name = 
REMARK  5 active torsions:
REMARK  status: ('A' for Active; 'I' for Inactive)
REMARK    1  A    between atoms: C_1  and  C_2
REMARK    2  A    between atoms: C_2  and  C_3
REMARK    3  A    between atoms: C_7  and  O_8
REMARK    4  A    between atoms: O_8  and  C_9
REMARK    5  A    between atoms: C_24  and  N_25
REMARK                            x       y       z     vdW  Elec       q    Type
REMARK                         _______ _______ _______ _____ _____    ______ ____
ROOT
ATOM      1  C   UNL     1       2.553   4.566  20.812  0.00  0.00    +0.000 A 
ATOM      2  N   UNL     1       1.950   5.788  20.670  0.00  0.00    +0.000 N 
ATOM      3  C   UNL     1       2.436   6.420  19.560  0.00  0.00    +0.000 A 
ATOM      4  N   UNL     1       2.025   7.629  19.170  0.00  0.00    +0.000 NA
ATOM      5  C   UNL     1       2.676   8.046  18.078  0.00  0.00    +0.000 A 
ATOM      6  N   UNL     1       3.612   7.364  17.381  0.00  0.00    +0.000 NA
ATOM      7  C   UNL     1       4.010   6.123  17.788  0.00  0.00    +0.000 A 
ATOM      8  N   UNL     1       5.010   5.456  17.080  0.00  0.00    +0.000 N 
ATOM      9  C   UNL     1       5.820   6.209  16.109  0.00  0.00    +0.000 C 
ATOM     10  C   UNL     1       5.696   5.450  14.820  0.00  0.00    +0.000 C 
ATOM     11  C   UNL     1       6.389   4.131  14.594  0.00  0.00    +0.000 C 
ATOM     12  C   UNL     1       4.974   4.177  15.100  0.00  0.00    +0.000 C 
ATOM     13  C   UNL     1       4.673   4.122  16.565  0.00  0.00    +0.000 C 
ATOM     14  C   UNL     1       3.397   5.613  18.960  0.00  0.00    +0.000 A 
ATOM     15  C   UNL     1       3.492   4.459  19.800  0.00  0.00    +0.000 A 
ATOM     16 CL   UNL     1       4.569   3.150  19.641  0.00  0.00    +0.000 Cl
ATOM     17  H   UNL     1       1.253   6.190  21.283  0.00  0.00    +0.000 HD
ENDROOT
BRANCH  11  18
ATOM     18  N   UNL     1       6.642   3.677  13.225  0.00  0.00    +0.000 NA
ATOM     19  H   UNL     1       6.151   2.807  13.023  0.00  0.00    +0.000 HD
ATOM     20  H   UNL     1       7.633   3.478  13.086  0.00  0.00    +0.000 HD
ENDBRANCH  11  18
BRANCH   1  22
ATOM     21  C   UNL     1       1.328   2.479  21.405  0.00  0.00    +0.000 C 
ATOM     22  C   UNL     1       2.190   3.624  21.908  0.00  0.00    +0.000 C 
ENDBRANCH   1  22
BRANCH   5  23
ATOM     23  O   UNL     1       2.275   9.295  17.624  0.00  0.00    +0.000 OA
BRANCH  23  24
ATOM     24  C   UNL     1       1.246   9.928  18.270  0.00  0.00    +0.000 A 
ATOM     25  C   UNL     1      -0.091   9.854  17.913  0.00  0.00    +0.000 A 
ATOM     26  N   UNL     1      -1.079  10.517  18.554  0.00  0.00    +0.000 NA
ATOM     27  C   UNL     1      -0.722  11.303  19.588  0.00  0.00    +0.000 A 
ATOM     28  C   UNL     1      -1.697  11.994  20.284  0.00  0.00    +0.000 A 
ATOM     29  C   UNL     1      -1.363  12.830  21.344  0.00  0.00    +0.000 A 
ATOM     30  C   UNL     1      -0.028  12.944  21.680  0.00  0.00    +0.000 A 
ATOM     31  N   UNL     1       0.963  12.289  21.039  0.00  0.00    +0.000 NA
ATOM     32  C   UNL     1       0.613  11.482  20.014  0.00  0.00    +0.000 A 
ATOM     33  C   UNL     1       1.587  10.778  19.323  0.00  0.00    +0.000 A 
ENDBRANCH  23  24
ENDBRANCH   5  23
TORSDOF 4
ENDMDL
MODEL 2
REMARK VINA RESULT:      -9.0      0.678      1.581
REMARK  Name = 
REMARK  5 active torsions:
REMARK  status: ('A' for Active; 'I' for Inactive)
REMARK    1  A    between atoms: C_1  and  C_2
REMARK    2  A    between atoms: C_2  and  C_3
REMARK    3  A    between atoms: C_7  and  O_8
REMARK    4  A    between atoms: O_8  and  C_9
REMARK    5  A    between atoms: C_24  and  N_25
REMARK                            x       y       z     vdW  Elec       q    Type
REMARK                         _______ _______ _______ _____ _____    ______ ____
ROOT
ATOM      1  C   UNL     1       2.511   4.634  20.808  0.00  0.00    +0.000 A 
ATOM      2  N   UNL     1       1.932   5.865  20.647  0.00  0.00    +0.000 N 
ATOM      3  C   UNL     1       2.437   6.474  19.533  0.00  0.00    +0.000 A 
ATOM      4  N   UNL     1       2.051   7.685  19.125  0.00  0.00    +0.000 NA
ATOM      5  C   UNL     1       2.717   8.076  18.032  0.00  0.00    +0.000 A 
ATOM      6  N   UNL     1       3.644   7.368  17.350  0.00  0.00    +0.000 NA
ATOM      7  C   UNL     1       4.016   6.125  17.774  0.00  0.00    +0.000 A 
ATOM      8  N   UNL     1       5.007   5.430  17.081  0.00  0.00    +0.000 N 
ATOM      9  C   UNL     1       5.837   6.155  16.106  0.00  0.00    +0.000 C 
ATOM     10  C   UNL     1       5.706   5.383  14.826  0.00  0.00    +0.000 C 
ATOM     11  C   UNL     1       6.376   4.049  14.620  0.00  0.00    +0.000 C 
ATOM     12  C   UNL     1       4.958   4.127  15.117  0.00  0.00    +0.000 C 
ATOM     13  C   UNL     1       4.648   4.097  16.580  0.00  0.00    +0.000 C 
ATOM     14  C   UNL     1       3.386   5.641  18.949  0.00  0.00    +0.000 A 
ATOM     15  C   UNL     1       3.454   4.497  19.803  0.00  0.00    +0.000 A 
ATOM     16 CL   UNL     1       4.507   3.165  19.667  0.00  0.00    +0.000 Cl
ATOM     17  H   UNL     1       1.239   6.288  21.251  0.00  0.00    +0.000 HD
ENDROOT
BRANCH  11  18
ATOM     18  N   UNL     1       6.628   3.573  13.259  0.00  0.00    +0.000 NA
ATOM     19  H   UNL     1       5.759   3.352  12.772  0.00  0.00    +0.000 HD
ATOM     20  H   UNL     1       7.169   2.708  13.271  0.00  0.00    +0.000 HD
ENDBRANCH  11  18
BRANCH   1  22
ATOM     21  C   UNL     1       1.351   2.509  21.400  0.00  0.00    +0.000 C 
ATOM     22  C   UNL     1       2.123   3.712  21.913  0.00  0.00    +0.000 C 
ENDBRANCH   1  22
BRANCH   5  23
ATOM     23  O   UNL     1       2.343   9.327  17.560  0.00  0.00    +0.000 OA
BRANCH  23  24
ATOM     24  C   UNL     1       1.381  10.024  18.243  0.00  0.00    +0.000 A 
ATOM     25  C   UNL     1       1.566  10.664  19.458  0.00  0.00    +0.000 A 
ATOM     26  N   UNL     1       0.586  11.318  20.121  0.00  0.00    +0.000 NA
ATOM     27  C   UNL     1      -0.639  11.322  19.561  0.00  0.00    +0.000 A 
ATOM     28  C   UNL     1      -1.673  11.986  20.195  0.00  0.00    +0.000 A 
ATOM     29  C   UNL     1      -2.955  11.996  19.654  0.00  0.00    +0.000 A 
ATOM     30  C   UNL     1      -3.159  11.324  18.465  0.00  0.00    +0.000 A 
ATOM     31  N   UNL     1      -2.185  10.665  17.802  0.00  0.00    +0.000 NA
ATOM     32  C   UNL     1      -0.949  10.672  18.345  0.00  0.00    +0.000 A 
ATOM     33  C   UNL     1       0.093  10.017  17.706  0.00  0.00    +0.000 A 
ENDBRANCH  23  24
ENDBRANCH   5  23
TORSDOF 4
ENDMDL
MODEL 3
REMARK VINA RESULT:      -8.5      1.816      4.775
REMARK  Name = 
REMARK  5 active torsions:
REMARK  status: ('A' for Active; 'I' for Inactive)
REMARK    1  A    between atoms: C_1  and  C_2
REMARK    2  A    between atoms: C_2  and  C_3
REMARK    3  A    between atoms: C_7  and  O_8
REMARK    4  A    between atoms: O_8  and  C_9
REMARK    5  A    between atoms: C_24  and  N_25
REMARK                            x       y       z     vdW  Elec       q    Type
REMARK                         _______ _______ _______ _____ _____    ______ ____
ROOT
ATOM      1  C   UNL     1       5.826   5.527  16.003  0.00  0.00    +0.000 A 
ATOM      2  N   UNL     1       5.391   6.827  16.018  0.00  0.00    +0.000 N 
ATOM      3  C   UNL     1       4.299   6.941  16.831  0.00  0.00    +0.000 A 
ATOM      4  N   UNL     1       3.664   8.097  17.042  0.00  0.00    +0.000 NA
ATOM      5  C   UNL     1       2.605   7.942  17.844  0.00  0.00    +0.000 A 
ATOM      6  N   UNL     1       2.197   6.799  18.438  0.00  0.00    +0.000 NA
ATOM      7  C   UNL     1       2.866   5.629  18.221  0.00  0.00    +0.000 A 
ATOM      8  N   UNL     1       2.400   4.452  18.807  0.00  0.00    +0.000 N 
ATOM      9  C   UNL     1       1.048   4.430  19.388  0.00  0.00    +0.000 C 
ATOM     10  C   UNL     1       1.235   3.961  20.801  0.00  0.00    +0.000 C 
ATOM     11  C   UNL     1       1.557   2.527  21.135  0.00  0.00    +0.000 C 
ATOM     12  C   UNL     1       2.655   3.541  20.966  0.00  0.00    +0.000 C 
ATOM     13  C   UNL     1       3.351   3.717  19.653  0.00  0.00    +0.000 C 
ATOM     14  C   UNL     1       3.985   5.690  17.352  0.00  0.00    +0.000 A 
ATOM     15  C   UNL     1       4.939   4.796  16.774  0.00  0.00    +0.000 A 
ATOM     16 CL   UNL     1       5.014   3.104  16.956  0.00  0.00    +0.000 Cl
ATOM     17  H   UNL     1       5.795   7.602  15.510  0.00  0.00    +0.000 HD
ENDROOT
BRANCH  11  18
ATOM     18  N   UNL     1       1.260   2.017  22.475  0.00  0.00    +0.000 NA
ATOM     19  H   UNL     1       0.593   1.246  22.443  0.00  0.00    +0.000 HD
ATOM     20  H   UNL     1       0.825   2.739  23.050  0.00  0.00    +0.000 HD
ENDBRANCH  11  18
BRANCH   1  22
ATOM     21  C   UNL     1       6.668   4.368  13.964  0.00  0.00    +0.000 C 
ATOM     22  C   UNL     1       7.035   5.103  15.241  0.00  0.00    +0.000 C 
ENDBRANCH   1  22
BRANCH   5  23
ATOM     23  O   UNL     1       1.917   9.120  18.105  0.00  0.00    +0.000 OA
BRANCH  23  24
ATOM     24  C   UNL     1       1.367   9.295  19.348  0.00  0.00    +0.000 A 
ATOM     25  C   UNL     1       1.542   8.446  20.429  0.00  0.00    +0.000 A 
ATOM     26  N   UNL     1       0.959   8.632  21.634  0.00  0.00    +0.000 NA
ATOM     27  C   UNL     1       0.152   9.701  21.768  0.00  0.00    +0.000 A 
ATOM     28  C   UNL     1      -0.461   9.942  22.985  0.00  0.00    +0.000 A 
ATOM     29  C   UNL     1      -1.315  11.026  23.154  0.00  0.00    +0.000 A 
ATOM     30  C   UNL     1      -1.530  11.854  22.069  0.00  0.00    +0.000 A 
ATOM     31  N   UNL     1      -0.956  11.669  20.862  0.00  0.00    +0.000 NA
ATOM     32  C   UNL     1      -0.127  10.611  20.723  0.00  0.00    +0.000 A 
ATOM     33  C   UNL     1       0.498  10.374  19.508  0.00  0.00    +0.000 A 
ENDBRANCH  23  24
ENDBRANCH   5  23
TORSDOF 4
ENDMDL
MODEL 4
REMARK VINA RESULT:      -8.5      0.901      1.227
REMARK  Name = 
REMARK  5 active torsions:
REMARK  status: ('A' for Active; 'I' for Inactive)
REMARK    1  A    between atoms: C_1  and  C_2
REMARK    2  A    between atoms: C_2  and  C_3
REMARK    3  A    between atoms: C_7  and  O_8
REMARK    4  A    between atoms: O_8  and  C_9
REMARK    5  A    between atoms: C_24  and  N_25
REMARK                            x       y       z     vdW  Elec       q    Type
REMARK                         _______ _______ _______ _____ _____    ______ ____
ROOT
ATOM      1  C   UNL     1       2.556   4.671  20.756  0.00  0.00    +0.000 A 
ATOM      2  N   UNL     1       1.931   5.876  20.568  0.00  0.00    +0.000 N 
ATOM      3  C   UNL     1       2.407   6.475  19.436  0.00  0.00    +0.000 A 
ATOM      4  N   UNL     1       1.974   7.661  19.001  0.00  0.00    +0.000 NA
ATOM      5  C   UNL     1       2.620   8.049  17.895  0.00  0.00    +0.000 A 
ATOM      6  N   UNL     1       3.568   7.359  17.224  0.00  0.00    +0.000 NA
ATOM      7  C   UNL     1       3.989   6.142  17.677  0.00  0.00    +0.000 A 
ATOM      8  N   UNL     1       5.002   5.467  16.995  0.00  0.00    +0.000 N 
ATOM      9  C   UNL     1       5.799   6.198  15.998  0.00  0.00    +0.000 C 
ATOM     10  C   UNL     1       5.691   5.390  14.738  0.00  0.00    +0.000 C 
ATOM     11  C   UNL     1       6.409   4.076  14.561  0.00  0.00    +0.000 C 
ATOM     12  C   UNL     1       4.992   4.115  15.064  0.00  0.00    +0.000 C 
ATOM     13  C   UNL     1       4.690   4.109  16.530  0.00  0.00    +0.000 C 
ATOM     14  C   UNL     1       3.384   5.664  18.867  0.00  0.00    +0.000 A 
ATOM     15  C   UNL     1       3.498   4.544  19.749  0.00  0.00    +0.000 A 
ATOM     16 CL   UNL     1       4.599   3.249  19.639  0.00  0.00    +0.000 Cl
ATOM     17  H   UNL     1       1.226   6.288  21.165  0.00  0.00    +0.000 HD
ENDROOT
BRANCH  11  18
ATOM     18  N   UNL     1       6.671   3.577  13.211  0.00  0.00    +0.000 NA
ATOM     19  H   UNL     1       7.263   2.747  13.226  0.00  0.00    +0.000 HD
ATOM     20  H   UNL     1       7.177   4.271  12.659  0.00  0.00    +0.000 HD
ENDBRANCH  11  18
BRANCH   1  22
ATOM     21  C   UNL     1       1.413   2.558  21.417  0.00  0.00    +0.000 C 
ATOM     22  C   UNL     1       2.208   3.763  21.886  0.00  0.00    +0.000 C 
ENDBRANCH   1  22
BRANCH   5  23
ATOM     23  O   UNL     1       2.196   9.273  17.394  0.00  0.00    +0.000 OA
BRANCH  23  24
ATOM     24  C   UNL     1       1.787  10.237  18.278  0.00  0.00    +0.000 A 
ATOM     25  C   UNL     1       2.276  11.532  18.334  0.00  0.00    +0.000 A 
ATOM     26  N   UNL     1       1.872  12.450  19.241  0.00  0.00    +0.000 NA
ATOM     27  C   UNL     1       0.954  12.059  20.144  0.00  0.00    +0.000 A 
ATOM     28  C   UNL     1       0.500  12.965  21.087  0.00  0.00    +0.000 A 
ATOM     29  C   UNL     1      -0.435  12.591  22.046  0.00  0.00    +0.000 A 
ATOM     30  C   UNL     1      -0.896  11.288  22.026  0.00  0.00    +0.000 A 
ATOM     31  N   UNL     1      -0.491  10.367  21.127  0.00  0.00    +0.000 NA
ATOM     32  C   UNL     1       0.415  10.755  20.203  0.00  0.00    +0.000 A 
ATOM     33  C   UNL     1       0.862   9.852  19.249  0.00  0.00    +0.000 A 
ENDBRANCH  23  24
ENDBRANCH   5  23
TORSDOF 4
ENDMDL
MODEL 5
REMARK VINA RESULT:      -8.0      3.809      6.713
REMARK  Name = 
REMARK  5 active torsions:
REMARK  status: ('A' for Active; 'I' for Inactive)
REMARK    1  A    between atoms: C_1  and  C_2
REMARK    2  A    between atoms: C_2  and  C_3
REMARK    3  A    between atoms: C_7  and  O_8
REMARK    4  A    between atoms: O_8  and  C_9
REMARK    5  A    between atoms: C_24  and  N_25
REMARK                            x       y       z     vdW  Elec       q    Type
REMARK                         _______ _______ _______ _____ _____    ______ ____
ROOT
ATOM      1  C   UNL     1       2.270   7.355  20.059  0.00  0.00    +0.000 A 
ATOM      2  N   UNL     1       2.025   7.774  21.341  0.00  0.00    +0.000 N 
ATOM      3  C   UNL     1       1.159   8.831  21.326  0.00  0.00    +0.000 A 
ATOM      4  N   UNL     1       0.736   9.443  22.435  0.00  0.00    +0.000 NA
ATOM      5  C   UNL     1      -0.074  10.471  22.156  0.00  0.00    +0.000 A 
ATOM      6  N   UNL     1      -0.490  10.868  20.933  0.00  0.00    +0.000 NA
ATOM      7  C   UNL     1      -0.057  10.221  19.811  0.00  0.00    +0.000 A 
ATOM      8  N   UNL     1      -0.462  10.676  18.556  0.00  0.00    +0.000 N 
ATOM      9  C   UNL     1      -1.088  12.004  18.447  0.00  0.00    +0.000 C 
ATOM     10  C   UNL     1      -2.396  11.765  17.751  0.00  0.00    +0.000 C 
ATOM     11  C   UNL     1      -2.478  11.446  16.280  0.00  0.00    +0.000 C 
ATOM     12  C   UNL     1      -2.431  10.345  17.303  0.00  0.00    +0.000 C 
ATOM     13  C   UNL     1      -1.136   9.701  17.689  0.00  0.00    +0.000 C 
ATOM     14  C   UNL     1       0.836   9.138  20.008  0.00  0.00    +0.000 A 
ATOM     15  C   UNL     1       1.592   8.218  19.216  0.00  0.00    +0.000 A 
ATOM     16 CL   UNL     1       1.692   8.156  17.517  0.00  0.00    +0.000 Cl
ATOM     17  H   UNL     1       2.416   7.382  22.187  0.00  0.00    +0.000 HD
ENDROOT
BRANCH  11  18
ATOM     18  N   UNL     1      -3.728  11.695  15.559  0.00  0.00    +0.000 NA
ATOM     19  H   UNL     1      -3.667  12.532  14.981  0.00  0.00    +0.000 HD
ATOM     20  H   UNL     1      -4.496  11.861  16.211  0.00  0.00    +0.000 HD
ENDBRANCH  11  18
BRANCH   1  22
ATOM     21  C   UNL     1       2.402   4.869  19.944  0.00  0.00    +0.000 C 
ATOM     22  C   UNL     1       3.141   6.183  19.760  0.00  0.00    +0.000 C 
ENDBRANCH   1  22
BRANCH   5  23
ATOM     23  O   UNL     1      -0.553  11.134  23.278  0.00  0.00    +0.000 OA
BRANCH  23  24
ATOM     24  C   UNL     1      -1.438  12.165  23.102  0.00  0.00    +0.000 A 
ATOM     25  C   UNL     1      -1.095  13.466  22.771  0.00  0.00    +0.000 A 
ATOM     26  N   UNL     1      -1.992  14.469  22.635  0.00  0.00    +0.000 NA
ATOM     27  C   UNL     1      -3.286  14.170  22.855  0.00  0.00    +0.000 A 
ATOM     28  C   UNL     1      -4.244  15.158  22.718  0.00  0.00    +0.000 A 
ATOM     29  C   UNL     1      -5.588  14.890  22.956  0.00  0.00    +0.000 A 
ATOM     30  C   UNL     1      -5.934  13.606  23.329  0.00  0.00    +0.000 A 
ATOM     31  N   UNL     1      -5.042  12.603  23.472  0.00  0.00    +0.000 NA
ATOM     32  C   UNL     1      -3.743  12.888  23.233  0.00  0.00    +0.000 A 
ATOM     33  C   UNL     1      -2.782  11.895  23.357  0.00  0.00    +0.000 A 
ENDBRANCH  23  24
ENDBRANCH   5  23
TORSDOF 4
ENDMDL
MODEL 6
REMARK VINA RESULT:      -8.0      3.298      9.279
REMARK  Name = 
REMARK  5 active torsions:
REMARK  status: ('A' for Active; 'I' for Inactive)
REMARK    1  A    between atoms: C_1  and  C_2
REMARK    2  A    between atoms: C_2  and  C_3
REMARK    3  A    between atoms: C_7  and  O_8
REMARK    4  A    between atoms: O_8  and  C_9
REMARK    5  A    between atoms: C_24  and  N_25
REMARK                            x       y       z     vdW  Elec       q    Type
REMARK                         _______ _______ _______ _____ _____    ______ ____
ROOT
ATOM      1  C   UNL     1       2.859  13.866  18.197  0.00  0.00    +0.000 A 
ATOM      2  N   UNL     1       2.973  12.687  17.506  0.00  0.00    +0.000 N 
ATOM      3  C   UNL     1       2.273  11.704  18.146  0.00  0.00    +0.000 A 
ATOM      4  N   UNL     1       2.201  10.449  17.696  0.00  0.00    +0.000 NA
ATOM      5  C   UNL     1       1.488   9.668  18.516  0.00  0.00    +0.000 A 
ATOM      6  N   UNL     1       0.856  10.045  19.649  0.00  0.00    +0.000 NA
ATOM      7  C   UNL     1       0.929  11.336  20.087  0.00  0.00    +0.000 A 
ATOM      8  N   UNL     1       0.307  11.693  21.283  0.00  0.00    +0.000 N 
ATOM      9  C   UNL     1      -0.150  10.631  22.194  0.00  0.00    +0.000 C 
ATOM     10  C   UNL     1      -1.603  10.918  22.435  0.00  0.00    +0.000 C 
ATOM     11  C   UNL     1      -2.064  12.060  23.303  0.00  0.00    +0.000 C 
ATOM     12  C   UNL     1      -1.924  12.235  21.816  0.00  0.00    +0.000 C 
ATOM     13  C   UNL     1      -0.670  12.788  21.215  0.00  0.00    +0.000 C 
ATOM     14  C   UNL     1       1.696  12.230  19.297  0.00  0.00    +0.000 A 
ATOM     15  C   UNL     1       2.122  13.595  19.337  0.00  0.00    +0.000 A 
ATOM     16 CL   UNL     1       1.817  14.738  20.562  0.00  0.00    +0.000 Cl
ATOM     17  H   UNL     1       3.496  12.538  16.653  0.00  0.00    +0.000 HD
ENDROOT
BRANCH  11  18
ATOM     18  N   UNL     1      -3.403  12.020  23.892  0.00  0.00    +0.000 NA
ATOM     19  H   UNL     1      -4.095  11.675  23.228  0.00  0.00    +0.000 HD
ATOM     20  H   UNL     1      -3.712  12.957  24.156  0.00  0.00    +0.000 HD
ENDBRANCH  11  18
BRANCH   1  22
ATOM     21  C   UNL     1       4.916  15.272  18.181  0.00  0.00    +0.000 C 
ATOM     22  C   UNL     1       3.478  15.133  17.714  0.00  0.00    +0.000 C 
ENDBRANCH   1  22
BRANCH   5  23
ATOM     23  O   UNL     1       1.372   8.353  18.085  0.00  0.00    +0.000 OA
BRANCH  23  24
ATOM     24  C   UNL     1       2.393   7.482  18.360  0.00  0.00    +0.000 A 
ATOM     25  C   UNL     1       2.482   6.682  19.489  0.00  0.00    +0.000 A 
ATOM     26  N   UNL     1       3.520   5.855  19.745  0.00  0.00    +0.000 NA
ATOM     27  C   UNL     1       4.524   5.832  18.847  0.00  0.00    +0.000 A 
ATOM     28  C   UNL     1       5.604   4.994  19.058  0.00  0.00    +0.000 A 
ATOM     29  C   UNL     1       6.667   4.958  18.162  0.00  0.00    +0.000 A 
ATOM     30  C   UNL     1       6.608   5.784  17.056  0.00  0.00    +0.000 A 
ATOM     31  N   UNL     1       5.577   6.616  16.799  0.00  0.00    +0.000 NA
ATOM     32  C   UNL     1       4.555   6.631  17.682  0.00  0.00    +0.000 A 
ATOM     33  C   UNL     1       3.465   7.461  17.467  0.00  0.00    +0.000 A 
ENDBRANCH  23  24
ENDBRANCH   5  23
TORSDOF 4
ENDMDL
MODEL 7
REMARK VINA RESULT:      -7.8      4.005      8.908
REMARK  Name = 
REMARK  5 active torsions:
REMARK  status: ('A' for Active; 'I' for Inactive)
REMARK    1  A    between atoms: C_1  and  C_2
REMARK    2  A    between atoms: C_2  and  C_3
REMARK    3  A    between atoms: C_7  and  O_8
REMARK    4  A    between atoms: O_8  and  C_9
REMARK    5  A    between atoms: C_24  and  N_25
REMARK                            x       y       z     vdW  Elec       q    Type
REMARK                         _______ _______ _______ _____ _____    ______ ____
ROOT
ATOM      1  C   UNL     1      -5.031  13.365  20.880  0.00  0.00    +0.000 A 
ATOM      2  N   UNL     1      -3.769  13.390  21.415  0.00  0.00    +0.000 N 
ATOM      3  C   UNL     1      -2.919  12.661  20.631  0.00  0.00    +0.000 A 
ATOM      4  N   UNL     1      -1.620  12.513  20.906  0.00  0.00    +0.000 NA
ATOM      5  C   UNL     1      -1.011  11.726  20.011  0.00  0.00    +0.000 A 
ATOM      6  N   UNL     1      -1.567  11.157  18.919  0.00  0.00    +0.000 NA
ATOM      7  C   UNL     1      -2.893  11.331  18.647  0.00  0.00    +0.000 A 
ATOM      8  N   UNL     1      -3.457  10.697  17.539  0.00  0.00    +0.000 N 
ATOM      9  C   UNL     1      -2.701   9.626  16.869  0.00  0.00    +0.000 C 
ATOM     10  C   UNL     1      -2.630  10.039  15.428  0.00  0.00    +0.000 C 
ATOM     11  C   UNL     1      -3.823   9.967  14.511  0.00  0.00    +0.000 C 
ATOM     12  C   UNL     1      -3.495  11.238  15.245  0.00  0.00    +0.000 C 
ATOM     13  C   UNL     1      -4.132  11.560  16.560  0.00  0.00    +0.000 C 
ATOM     14  C   UNL     1      -3.630  12.123  19.563  0.00  0.00    +0.000 A 
ATOM     15  C   UNL     1      -4.982  12.543  19.767  0.00  0.00    +0.000 A 
ATOM     16 CL   UNL     1      -6.347  12.122  18.839  0.00  0.00    +0.000 Cl
ATOM     17  H   UNL     1      -3.484  13.861  22.263  0.00  0.00    +0.000 HD
ENDROOT
BRANCH  11  18
ATOM     18  N   UNL     1      -3.615   9.907  13.063  0.00  0.00    +0.000 NA
ATOM     19  H   UNL     1      -4.403   9.467  12.589  0.00  0.00    +0.000 HD
ATOM     20  H   UNL     1      -2.799   9.338  12.837  0.00  0.00    +0.000 HD
ENDBRANCH  11  18
BRANCH   1  22
ATOM     21  C   UNL     1      -5.814  14.649  22.867  0.00  0.00    +0.000 C 
ATOM     22  C   UNL     1      -6.166  14.115  21.490  0.00  0.00    +0.000 C 
ENDBRANCH   1  22
BRANCH   5  23
ATOM     23  O   UNL     1       0.346  11.551  20.245  0.00  0.00    +0.000 OA
BRANCH  23  24
ATOM     24  C   UNL     1       0.995  10.530  19.602  0.00  0.00    +0.000 A 
ATOM     25  C   UNL     1       1.477  10.579  18.304  0.00  0.00    +0.000 A 
ATOM     26  N   UNL     1       2.087   9.541  17.687  0.00  0.00    +0.000 NA
ATOM     27  C   UNL     1       2.207   8.396  18.386  0.00  0.00    +0.000 A 
ATOM     28  C   UNL     1       2.833   7.308  17.804  0.00  0.00    +0.000 A 
ATOM     29  C   UNL     1       2.959   6.104  18.490  0.00  0.00    +0.000 A 
ATOM     30  C   UNL     1       2.443   6.032  19.769  0.00  0.00    +0.000 A 
ATOM     31  N   UNL     1       1.828   7.064  20.386  0.00  0.00    +0.000 NA
ATOM     32  C   UNL     1       1.721   8.223  19.701  0.00  0.00    +0.000 A 
ATOM     33  C   UNL     1       1.105   9.319  20.287  0.00  0.00    +0.000 A 
ENDBRANCH  23  24
ENDBRANCH   5  23
TORSDOF 4
ENDMDL
MODEL 8
REMARK VINA RESULT:      -7.8      4.378      9.208
REMARK  Name = 
REMARK  5 active torsions:
REMARK  status: ('A' for Active; 'I' for Inactive)
REMARK    1  A    between atoms: C_1  and  C_2
REMARK    2  A    between atoms: C_2  and  C_3
REMARK    3  A    between atoms: C_7  and  O_8
REMARK    4  A    between atoms: O_8  and  C_9
REMARK    5  A    between atoms: C_24  and  N_25
REMARK                            x       y       z     vdW  Elec       q    Type
REMARK                         _______ _______ _______ _____ _____    ______ ____
ROOT
ATOM      1  C   UNL     1      -6.015  13.331  20.537  0.00  0.00    +0.000 A 
ATOM      2  N   UNL     1      -4.842  13.431  21.239  0.00  0.00    +0.000 N 
ATOM      3  C   UNL     1      -3.854  12.743  20.593  0.00  0.00    +0.000 A 
ATOM      4  N   UNL     1      -2.600  12.669  21.045  0.00  0.00    +0.000 NA
ATOM      5  C   UNL     1      -1.832  11.909  20.257  0.00  0.00    +0.000 A 
ATOM      6  N   UNL     1      -2.200  11.299  19.109  0.00  0.00    +0.000 NA
ATOM      7  C   UNL     1      -3.484  11.396  18.654  0.00  0.00    +0.000 A 
ATOM      8  N   UNL     1      -3.855  10.721  17.491  0.00  0.00    +0.000 N 
ATOM      9  C   UNL     1      -2.958   9.687  16.950  0.00  0.00    +0.000 C 
ATOM     10  C   UNL     1      -2.710  10.088  15.525  0.00  0.00    +0.000 C 
ATOM     11  C   UNL     1      -3.760   9.941  14.455  0.00  0.00    +0.000 C 
ATOM     12  C   UNL     1      -3.605  11.235  15.205  0.00  0.00    +0.000 C 
ATOM     13  C   UNL     1      -4.433  11.535  16.414  0.00  0.00    +0.000 C 
ATOM     14  C   UNL     1      -4.381  12.155  19.447  0.00  0.00    +0.000 A 
ATOM     15  C   UNL     1      -5.769  12.502  19.456  0.00  0.00    +0.000 A 
ATOM     16 CL   UNL     1      -6.968  11.996  18.358  0.00  0.00    +0.000 Cl
ATOM     17  H   UNL     1      -4.702  13.925  22.110  0.00  0.00    +0.000 HD
ENDROOT
BRANCH  11  18
ATOM     18  N   UNL     1      -3.352   9.878  13.050  0.00  0.00    +0.000 NA
ATOM     19  H   UNL     1      -4.040  10.318  12.440  0.00  0.00    +0.000 HD
ATOM     20  H   UNL     1      -3.278   8.910  12.737  0.00  0.00    +0.000 HD
ENDBRANCH  11  18
BRANCH   1  22
ATOM     21  C   UNL     1      -6.998  15.463  21.374  0.00  0.00    +0.000 C 
ATOM     22  C   UNL     1      -7.262  14.022  20.972  0.00  0.00    +0.000 C 
ENDBRANCH   1  22
BRANCH   5  23
ATOM     23  O   UNL     1      -0.512  11.811  20.678  0.00  0.00    +0.000 OA
BRANCH  23  24
ATOM     24  C   UNL     1       0.131  10.609  20.543  0.00  0.00    +0.000 A 
ATOM     25  C   UNL     1       0.232   9.640  21.529  0.00  0.00    +0.000 A 
ATOM     26  N   UNL     1       0.902   8.476  21.373  0.00  0.00    +0.000 NA
ATOM     27  C   UNL     1       1.513   8.272  20.191  0.00  0.00    +0.000 A 
ATOM     28  C   UNL     1       2.203   7.092  19.978  0.00  0.00    +0.000 A 
ATOM     29  C   UNL     1       2.862   6.854  18.777  0.00  0.00    +0.000 A 
ATOM     30  C   UNL     1       2.803   7.834  17.804  0.00  0.00    +0.000 A 
ATOM     31  N   UNL     1       2.142   9.000  17.957  0.00  0.00    +0.000 NA
ATOM     32  C   UNL     1       1.507   9.206  19.131  0.00  0.00    +0.000 A 
ATOM     33  C   UNL     1       0.804  10.383  19.343  0.00  0.00    +0.000 A 
ENDBRANCH  23  24
ENDBRANCH   5  23
TORSDOF 4
ENDMDL
MODEL 9
REMARK VINA RESULT:      -7.7      3.868      9.860
REMARK  Name = 
REMARK  5 active torsions:
REMARK  status: ('A' for Active; 'I' for Inactive)
REMARK    1  A    between atoms: C_1  and  C_2
REMARK    2  A    between atoms: C_2  and  C_3
REMARK    3  A    between atoms: C_7  and  O_8
REMARK    4  A    between atoms: O_8  and  C_9
REMARK    5  A    between atoms: C_24  and  N_25
REMARK                            x       y       z     vdW  Elec       q    Type
REMARK                         _______ _______ _______ _____ _____    ______ ____
ROOT
ATOM      1  C   UNL     1      -3.401  10.448  15.967  0.00  0.00    +0.000 A 
ATOM      2  N   UNL     1      -2.164   9.983  16.329  0.00  0.00    +0.000 N 
ATOM      3  C   UNL     1      -1.814  10.496  17.547  0.00  0.00    +0.000 A 
ATOM      4  N   UNL     1      -0.659  10.211  18.154  0.00  0.00    +0.000 NA
ATOM      5  C   UNL     1      -0.535  10.864  19.315  0.00  0.00    +0.000 A 
ATOM      6  N   UNL     1      -1.442  11.688  19.884  0.00  0.00    +0.000 NA
ATOM      7  C   UNL     1      -2.623  11.957  19.254  0.00  0.00    +0.000 A 
ATOM      8  N   UNL     1      -3.526  12.847  19.837  0.00  0.00    +0.000 N 
ATOM      9  C   UNL     1      -3.070  13.700  20.947  0.00  0.00    +0.000 C 
ATOM     10  C   UNL     1      -4.037  13.441  22.065  0.00  0.00    +0.000 C 
ATOM     11  C   UNL     1      -5.448  13.970  22.047  0.00  0.00    +0.000 C 
ATOM     12  C   UNL     1      -5.139  12.590  21.536  0.00  0.00    +0.000 C 
ATOM     13  C   UNL     1      -4.882  12.340  20.084  0.00  0.00    +0.000 C 
ATOM     14  C   UNL     1      -2.828  11.335  17.997  0.00  0.00    +0.000 A 
ATOM     15  C   UNL     1      -3.807  11.329  16.954  0.00  0.00    +0.000 A 
ATOM     16 CL   UNL     1      -5.242  12.242  16.878  0.00  0.00    +0.000 Cl
ATOM     17  H   UNL     1      -1.574   9.360  15.794  0.00  0.00    +0.000 HD
ENDROOT
BRANCH  11  18
ATOM     18  N   UNL     1      -6.177  14.117  23.308  0.00  0.00    +0.000 NA
ATOM     19  H   UNL     1      -7.139  14.415  23.151  0.00  0.00    +0.000 HD
ATOM     20  H   UNL     1      -5.752  14.839  23.891  0.00  0.00    +0.000 HD
ENDBRANCH  11  18
BRANCH   1  22
ATOM     21  C   UNL     1      -3.096   9.956  13.543  0.00  0.00    +0.000 C 
ATOM     22  C   UNL     1      -4.071  10.020  14.705  0.00  0.00    +0.000 C 
ENDBRANCH   1  22
BRANCH   5  23
ATOM     23  O   UNL     1       0.646  10.591  19.993  0.00  0.00    +0.000 OA
BRANCH  23  24
ATOM     24  C   UNL     1       1.132   9.310  19.973  0.00  0.00    +0.000 A 
ATOM     25  C   UNL     1       0.962   8.373  20.980  0.00  0.00    +0.000 A 
ATOM     26  N   UNL     1       1.482   7.126  20.943  0.00  0.00    +0.000 NA
ATOM     27  C   UNL     1       2.218   6.799  19.863  0.00  0.00    +0.000 A 
ATOM     28  C   UNL     1       2.763   5.531  19.772  0.00  0.00    +0.000 A 
ATOM     29  C   UNL     1       3.544   5.164  18.681  0.00  0.00    +0.000 A 
ATOM     30  C   UNL     1       3.755   6.106  17.692  0.00  0.00    +0.000 A 
ATOM     31  N   UNL     1       3.243   7.354  17.728  0.00  0.00    +0.000 NA
ATOM     32  C   UNL     1       2.486   7.685  18.797  0.00  0.00    +0.000 A 
ATOM     33  C   UNL     1       1.928   8.952  18.885  0.00  0.00    +0.000 A 
ENDBRANCH  23  24
ENDBRANCH   5  23
TORSDOF 4
ENDMDL
