MODEL 1
REMARK VINA RESULT:      -6.6      0.000      0.000
REMARK  Name = 
REMARK  2 active torsions:
REMARK  status: ('A' for Active; 'I' for Inactive)
REMARK    1  A    between atoms: C_1  and  C_2
REMARK    2  A    between atoms: C_4  and  C_5
REMARK                            x       y       z     vdW  Elec       q    Type
REMARK                         _______ _______ _______ _____ _____    ______ ____
ROOT
ATOM      1  C   UNL     1       5.150   4.164  18.173  0.00  0.00    +0.000 A 
ATOM      2  N   UNL     1       6.160   4.262  19.055  0.00  0.00    +0.000 NA
ATOM      3  N   UNL     1       7.214   4.441  18.242  0.00  0.00    +0.000 N 
ATOM      4  C   UNL     1       6.836   4.470  16.933  0.00  0.00    +0.000 A 
ATOM      5  N   UNL     1       7.707   4.648  15.930  0.00  0.00    +0.000 N 
ATOM      6  N   UNL     1       5.544   4.298  16.857  0.00  0.00    +0.000 NA
ATOM      7  H   UNL     1       8.141   4.528  18.635  0.00  0.00    +0.000 HD
ATOM      8  H   UNL     1       8.622   5.058  16.070  0.00  0.00    +0.000 HD
ATOM      9  H   UNL     1       7.307   4.845  15.015  0.00  0.00    +0.000 HD
ENDROOT
BRANCH   1  13
ATOM     10  C   UNL     1       1.720   2.798  21.535  0.00  0.00    +0.000 C 
ATOM     11  C   UNL     1       2.110   3.268  20.167  0.00  0.00    +0.000 A 
ATOM     12  C   UNL     1       3.444   3.466  19.832  0.00  0.00    +0.000 A 
ATOM     13  C   UNL     1       3.762   3.928  18.552  0.00  0.00    +0.000 A 
ATOM     14  C   UNL     1       2.725   4.170  17.649  0.00  0.00    +0.000 A 
ATOM     15  C   UNL     1       1.427   3.938  18.063  0.00  0.00    +0.000 A 
ATOM     16  N   UNL     1       1.099   3.496  19.295  0.00  0.00    +0.000 NA
ENDBRANCH   1  13
TORSDOF 1
ENDMDL
MODEL 2
REMARK VINA RESULT:      -6.5      2.022      5.149
REMARK  Name = 
REMARK  2 active torsions:
REMARK  status: ('A' for Active; 'I' for Inactive)
REMARK    1  A    between atoms: C_1  and  C_2
REMARK    2  A    between atoms: C_4  and  C_5
REMARK                            x       y       z     vdW  Elec       q    Type
REMARK                         _______ _______ _______ _____ _____    ______ ____
ROOT
ATOM      1  C   UNL     1       4.754   3.596  18.131  0.00  0.00    +0.000 A 
ATOM      2  N   UNL     1       4.932   3.336  19.438  0.00  0.00    +0.000 NA
ATOM      3  N   UNL     1       3.853   2.586  19.715  0.00  0.00    +0.000 N 
ATOM      4  C   UNL     1       3.081   2.392  18.608  0.00  0.00    +0.000 A 
ATOM      5  N   UNL     1       1.954   1.667  18.627  0.00  0.00    +0.000 N 
ATOM      6  N   UNL     1       3.622   3.015  17.596  0.00  0.00    +0.000 NA
ATOM      7  H   UNL     1       3.703   2.251  20.657  0.00  0.00    +0.000 HD
ATOM      8  H   UNL     1       1.756   0.988  19.352  0.00  0.00    +0.000 HD
ATOM      9  H   UNL     1       1.559   1.425  17.721  0.00  0.00    +0.000 HD
ENDROOT
BRANCH   1  13
ATOM     10  C   UNL     1       7.661   7.623  17.612  0.00  0.00    +0.000 C 
ATOM     11  C   UNL     1       7.053   6.359  17.084  0.00  0.00    +0.000 A 
ATOM     12  C   UNL     1       6.181   5.605  17.860  0.00  0.00    +0.000 A 
ATOM     13  C   UNL     1       5.657   4.420  17.336  0.00  0.00    +0.000 A 
ATOM     14  C   UNL     1       6.024   4.037  16.045  0.00  0.00    +0.000 A 
ATOM     15  C   UNL     1       6.890   4.851  15.340  0.00  0.00    +0.000 A 
ATOM     16  N   UNL     1       7.410   5.996  15.829  0.00  0.00    +0.000 NA
ENDBRANCH   1  13
TORSDOF 1
ENDMDL
MODEL 3
REMARK VINA RESULT:      -6.5      2.129      5.324
REMARK  Name = 
REMARK  2 active torsions:
REMARK  status: ('A' for Active; 'I' for Inactive)
REMARK    1  A    between atoms: C_1  and  C_2
REMARK    2  A    between atoms: C_4  and  C_5
REMARK                            x       y       z     vdW  Elec       q    Type
REMARK                         _______ _______ _______ _____ _____    ______ ____
ROOT
ATOM      1  C   UNL     1       3.758   4.158  17.401  0.00  0.00    +0.000 A 
ATOM      2  N   UNL     1       2.691   4.921  17.694  0.00  0.00    +0.000 NA
ATOM      3  N   UNL     1       1.810   4.002  18.121  0.00  0.00    +0.000 N 
ATOM      4  C   UNL     1       2.345   2.748  18.101  0.00  0.00    +0.000 A 
ATOM      5  N   UNL     1       1.664   1.662  18.491  0.00  0.00    +0.000 N 
ATOM      6  N   UNL     1       3.569   2.815  17.653  0.00  0.00    +0.000 NA
ATOM      7  H   UNL     1       0.881   4.288  18.398  0.00  0.00    +0.000 HD
ATOM      8  H   UNL     1       0.848   1.716  19.088  0.00  0.00    +0.000 HD
ATOM      9  H   UNL     1       2.208   0.812  18.620  0.00  0.00    +0.000 HD
ENDROOT
BRANCH   1  13
ATOM     10  C   UNL     1       7.560   7.392  17.553  0.00  0.00    +0.000 C 
ATOM     11  C   UNL     1       6.834   6.240  16.928  0.00  0.00    +0.000 A 
ATOM     12  C   UNL     1       5.637   5.775  17.459  0.00  0.00    +0.000 A 
ATOM     13  C   UNL     1       5.006   4.682  16.858  0.00  0.00    +0.000 A 
ATOM     14  C   UNL     1       5.599   4.097  15.738  0.00  0.00    +0.000 A 
ATOM     15  C   UNL     1       6.786   4.629  15.271  0.00  0.00    +0.000 A 
ATOM     16  N   UNL     1       7.413   5.680  15.839  0.00  0.00    +0.000 NA
ENDBRANCH   1  13
TORSDOF 1
ENDMDL
MODEL 4
REMARK VINA RESULT:      -6.4      2.364      4.114
REMARK  Name = 
REMARK  2 active torsions:
REMARK  status: ('A' for Active; 'I' for Inactive)
REMARK    1  A    between atoms: C_1  and  C_2
REMARK    2  A    between atoms: C_4  and  C_5
REMARK                            x       y       z     vdW  Elec       q    Type
REMARK                         _______ _______ _______ _____ _____    ______ ____
ROOT
ATOM      1  C   UNL     1       6.736   4.749  15.531  0.00  0.00    +0.000 A 
ATOM      2  N   UNL     1       7.527   5.564  14.811  0.00  0.00    +0.000 NA
ATOM      3  N   UNL     1       7.412   5.037  13.582  0.00  0.00    +0.000 N 
ATOM      4  C   UNL     1       6.568   3.967  13.573  0.00  0.00    +0.000 A 
ATOM      5  N   UNL     1       6.282   3.276  12.461  0.00  0.00    +0.000 N 
ATOM      6  N   UNL     1       6.127   3.761  14.785  0.00  0.00    +0.000 NA
ATOM      7  H   UNL     1       7.928   5.441  12.812  0.00  0.00    +0.000 HD
ATOM      8  H   UNL     1       6.420   3.657  11.533  0.00  0.00    +0.000 HD
ATOM      9  H   UNL     1       5.503   2.625  12.523  0.00  0.00    +0.000 HD
ENDROOT
BRANCH   1  13
ATOM     10  C   UNL     1       4.052   3.875  19.651  0.00  0.00    +0.000 C 
ATOM     11  C   UNL     1       5.242   4.460  18.952  0.00  0.00    +0.000 A 
ATOM     12  C   UNL     1       5.397   4.337  17.577  0.00  0.00    +0.000 A 
ATOM     13  C   UNL     1       6.534   4.877  16.970  0.00  0.00    +0.000 A 
ATOM     14  C   UNL     1       7.476   5.528  17.768  0.00  0.00    +0.000 A 
ATOM     15  C   UNL     1       7.239   5.612  19.127  0.00  0.00    +0.000 A 
ATOM     16  N   UNL     1       6.150   5.094  19.733  0.00  0.00    +0.000 NA
ENDBRANCH   1  13
TORSDOF 1
ENDMDL
MODEL 5
REMARK VINA RESULT:      -6.3      1.118      1.475
REMARK  Name = 
REMARK  2 active torsions:
REMARK  status: ('A' for Active; 'I' for Inactive)
REMARK    1  A    between atoms: C_1  and  C_2
REMARK    2  A    between atoms: C_4  and  C_5
REMARK                            x       y       z     vdW  Elec       q    Type
REMARK                         _______ _______ _______ _____ _____    ______ ____
ROOT
ATOM      1  C   UNL     1       5.255   4.501  18.250  0.00  0.00    +0.000 A 
ATOM      2  N   UNL     1       6.378   4.325  18.966  0.00  0.00    +0.000 NA
ATOM      3  N   UNL     1       7.321   4.396  18.013  0.00  0.00    +0.000 N 
ATOM      4  C   UNL     1       6.776   4.626  16.785  0.00  0.00    +0.000 A 
ATOM      5  N   UNL     1       7.514   4.747  15.673  0.00  0.00    +0.000 N 
ATOM      6  N   UNL     1       5.477   4.697  16.902  0.00  0.00    +0.000 NA
ATOM      7  H   UNL     1       8.294   4.274  18.260  0.00  0.00    +0.000 HD
ATOM      8  H   UNL     1       8.502   4.970  15.697  0.00  0.00    +0.000 HD
ATOM      9  H   UNL     1       7.034   5.105  14.851  0.00  0.00    +0.000 HD
ENDROOT
BRANCH   1  13
ATOM     10  C   UNL     1       0.775   2.360  18.788  0.00  0.00    +0.000 C 
ATOM     11  C   UNL     1       1.757   3.454  19.081  0.00  0.00    +0.000 A 
ATOM     12  C   UNL     1       3.021   3.454  18.503  0.00  0.00    +0.000 A 
ATOM     13  C   UNL     1       3.914   4.480  18.824  0.00  0.00    +0.000 A 
ATOM     14  C   UNL     1       3.502   5.476  19.710  0.00  0.00    +0.000 A 
ATOM     15  C   UNL     1       2.223   5.403  20.231  0.00  0.00    +0.000 A 
ATOM     16  N   UNL     1       1.348   4.419  19.938  0.00  0.00    +0.000 NA
ENDBRANCH   1  13
TORSDOF 1
ENDMDL
MODEL 6
REMARK VINA RESULT:      -6.2      2.003      5.318
REMARK  Name = 
REMARK  2 active torsions:
REMARK  status: ('A' for Active; 'I' for Inactive)
REMARK    1  A    between atoms: C_1  and  C_2
REMARK    2  A    between atoms: C_4  and  C_5
REMARK                            x       y       z     vdW  Elec       q    Type
REMARK                         _______ _______ _______ _____ _____    ______ ____
ROOT
ATOM      1  C   UNL     1       4.690   3.532  18.321  0.00  0.00    +0.000 A 
ATOM      2  N   UNL     1       4.864   3.193  19.610  0.00  0.00    +0.000 NA
ATOM      3  N   UNL     1       3.766   2.456  19.847  0.00  0.00    +0.000 N 
ATOM      4  C   UNL     1       2.987   2.347  18.734  0.00  0.00    +0.000 A 
ATOM      5  N   UNL     1       1.842   1.652  18.715  0.00  0.00    +0.000 N 
ATOM      6  N   UNL     1       3.542   3.013  17.758  0.00  0.00    +0.000 NA
ATOM      7  H   UNL     1       3.609   2.072  20.769  0.00  0.00    +0.000 HD
ATOM      8  H   UNL     1       1.627   0.937  19.399  0.00  0.00    +0.000 HD
ATOM      9  H   UNL     1       1.439   1.473  17.798  0.00  0.00    +0.000 HD
ENDROOT
BRANCH   1  13
ATOM     10  C   UNL     1       6.962   4.794  14.057  0.00  0.00    +0.000 C 
ATOM     11  C   UNL     1       6.710   4.983  15.522  0.00  0.00    +0.000 A 
ATOM     12  C   UNL     1       5.838   4.149  16.212  0.00  0.00    +0.000 A 
ATOM     13  C   UNL     1       5.614   4.377  17.572  0.00  0.00    +0.000 A 
ATOM     14  C   UNL     1       6.282   5.432  18.195  0.00  0.00    +0.000 A 
ATOM     15  C   UNL     1       7.139   6.206  17.436  0.00  0.00    +0.000 A 
ATOM     16  N   UNL     1       7.365   6.006  16.121  0.00  0.00    +0.000 NA
ENDBRANCH   1  13
TORSDOF 1
ENDMDL
MODEL 7
REMARK VINA RESULT:      -6.2      1.376      1.411
REMARK  Name = 
REMARK  2 active torsions:
REMARK  status: ('A' for Active; 'I' for Inactive)
REMARK    1  A    between atoms: C_1  and  C_2
REMARK    2  A    between atoms: C_4  and  C_5
REMARK                            x       y       z     vdW  Elec       q    Type
REMARK                         _______ _______ _______ _____ _____    ______ ____
ROOT
ATOM      1  C   UNL     1       5.364   4.810  18.467  0.00  0.00    +0.000 A 
ATOM      2  N   UNL     1       6.525   4.498  19.068  0.00  0.00    +0.000 NA
ATOM      3  N   UNL     1       7.362   4.426  18.020  0.00  0.00    +0.000 N 
ATOM      4  C   UNL     1       6.723   4.707  16.849  0.00  0.00    +0.000 A 
ATOM      5  N   UNL     1       7.347   4.709  15.664  0.00  0.00    +0.000 N 
ATOM      6  N   UNL     1       5.465   4.952  17.098  0.00  0.00    +0.000 NA
ATOM      7  H   UNL     1       8.331   4.180  18.168  0.00  0.00    +0.000 HD
ATOM      8  H   UNL     1       8.352   4.799  15.578  0.00  0.00    +0.000 HD
ATOM      9  H   UNL     1       6.833   5.115  14.885  0.00  0.00    +0.000 HD
ENDROOT
BRANCH   1  13
ATOM     10  C   UNL     1       1.763   3.035  21.436  0.00  0.00    +0.000 C 
ATOM     11  C   UNL     1       2.366   4.125  20.603  0.00  0.00    +0.000 A 
ATOM     12  C   UNL     1       3.562   3.927  19.923  0.00  0.00    +0.000 A 
ATOM     13  C   UNL     1       4.102   4.979  19.178  0.00  0.00    +0.000 A 
ATOM     14  C   UNL     1       3.416   6.194  19.137  0.00  0.00    +0.000 A 
ATOM     15  C   UNL     1       2.228   6.301  19.837  0.00  0.00    +0.000 A 
ATOM     16  N   UNL     1       1.693   5.299  20.565  0.00  0.00    +0.000 NA
ENDBRANCH   1  13
TORSDOF 1
ENDMDL
MODEL 8
REMARK VINA RESULT:      -6.2      2.151      5.368
REMARK  Name = 
REMARK  2 active torsions:
REMARK  status: ('A' for Active; 'I' for Inactive)
REMARK    1  A    between atoms: C_1  and  C_2
REMARK    2  A    between atoms: C_4  and  C_5
REMARK                            x       y       z     vdW  Elec       q    Type
REMARK                         _______ _______ _______ _____ _____    ______ ____
ROOT
ATOM      1  C   UNL     1       3.136   3.585  17.807  0.00  0.00    +0.000 A 
ATOM      2  N   UNL     1       3.236   2.245  17.764  0.00  0.00    +0.000 NA
ATOM      3  N   UNL     1       2.231   1.873  18.572  0.00  0.00    +0.000 N 
ATOM      4  C   UNL     1       1.550   2.951  19.054  0.00  0.00    +0.000 A 
ATOM      5  N   UNL     1       0.496   2.837  19.874  0.00  0.00    +0.000 N 
ATOM      6  N   UNL     1       2.096   4.042  18.590  0.00  0.00    +0.000 NA
ATOM      7  H   UNL     1       2.070   0.891  18.753  0.00  0.00    +0.000 HD
ATOM      8  H   UNL     1      -0.041   1.982  19.954  0.00  0.00    +0.000 HD
ATOM      9  H   UNL     1      -0.054   3.680  20.020  0.00  0.00    +0.000 HD
ENDROOT
BRANCH   1  13
ATOM     10  C   UNL     1       6.601   4.442  14.314  0.00  0.00    +0.000 C 
ATOM     11  C   UNL     1       5.709   4.903  15.427  0.00  0.00    +0.000 A 
ATOM     12  C   UNL     1       4.873   4.012  16.089  0.00  0.00    +0.000 A 
ATOM     13  C   UNL     1       4.039   4.490  17.104  0.00  0.00    +0.000 A 
ATOM     14  C   UNL     1       4.081   5.848  17.423  0.00  0.00    +0.000 A 
ATOM     15  C   UNL     1       4.949   6.661  16.719  0.00  0.00    +0.000 A 
ATOM     16  N   UNL     1       5.758   6.221  15.733  0.00  0.00    +0.000 NA
ENDBRANCH   1  13
TORSDOF 1
ENDMDL
MODEL 9
REMARK VINA RESULT:      -6.2      1.296      1.349
REMARK  Name = 
REMARK  2 active torsions:
REMARK  status: ('A' for Active; 'I' for Inactive)
REMARK    1  A    between atoms: C_1  and  C_2
REMARK    2  A    between atoms: C_4  and  C_5
REMARK                            x       y       z     vdW  Elec       q    Type
REMARK                         _______ _______ _______ _____ _____    ______ ____
ROOT
ATOM      1  C   UNL     1       5.582   4.301  17.511  0.00  0.00    +0.000 A 
ATOM      2  N   UNL     1       6.730   4.418  18.201  0.00  0.00    +0.000 NA
ATOM      3  N   UNL     1       7.590   4.782  17.236  0.00  0.00    +0.000 N 
ATOM      4  C   UNL     1       6.968   4.898  16.029  0.00  0.00    +0.000 A 
ATOM      5  N   UNL     1       7.613   5.259  14.911  0.00  0.00    +0.000 N 
ATOM      6  N   UNL     1       5.704   4.601  16.170  0.00  0.00    +0.000 NA
ATOM      7  H   UNL     1       8.565   4.926  17.462  0.00  0.00    +0.000 HD
ATOM      8  H   UNL     1       8.501   5.746  14.928  0.00  0.00    +0.000 HD
ATOM      9  H   UNL     1       7.030   5.501  14.113  0.00  0.00    +0.000 HD
ENDROOT
BRANCH   1  13
ATOM     10  C   UNL     1       1.770   5.095  20.638  0.00  0.00    +0.000 C 
ATOM     11  C   UNL     1       2.483   4.267  19.612  0.00  0.00    +0.000 A 
ATOM     12  C   UNL     1       3.698   4.680  19.078  0.00  0.00    +0.000 A 
ATOM     13  C   UNL     1       4.316   3.888  18.106  0.00  0.00    +0.000 A 
ATOM     14  C   UNL     1       3.693   2.704  17.709  0.00  0.00    +0.000 A 
ATOM     15  C   UNL     1       2.489   2.366  18.299  0.00  0.00    +0.000 A 
ATOM     16  N   UNL     1       1.874   3.118  19.235  0.00  0.00    +0.000 NA
ENDBRANCH   1  13
TORSDOF 1
ENDMDL
