MODEL 1
REMARK VINA RESULT:      -8.4      0.000      0.000
REMARK  Name = 
REMARK  9 active torsions:
REMARK  status: ('A' for Active; 'I' for Inactive)
REMARK    1  A    between atoms: C_1  and  C_2
REMARK    2  A    between atoms: C_2  and  C_3
REMARK    3  A    between atoms: C_2  and  C_4
REMARK    4  A    between atoms: C_2  and  N_21
REMARK    5  A    between atoms: C_4  and  C_5
REMARK    6  A    between atoms: N_7  and  C_8
REMARK    7  A    between atoms: C_15  and  C_16
REMARK    8  A    between atoms: N_21  and  S_22
REMARK    9  A    between atoms: S_22  and  C_25
REMARK                            x       y       z     vdW  Elec       q    Type
REMARK                         _______ _______ _______ _____ _____    ______ ____
ROOT
ATOM      1  C   UNL     1       1.871   8.090  19.785  0.00  0.00    +0.000 C 
ATOM      2  O   UNL     1       1.769   8.842  18.833  0.00  0.00    +0.000 OA
ATOM      3  N   UNL     1       2.790   7.040  19.863  0.00  0.00    +0.000 N 
ATOM      4  H   UNL     1       2.873   6.624  20.780  0.00  0.00    +0.000 HD
ENDROOT
BRANCH   3   5
ATOM      5  C   UNL     1       3.858   6.662  18.904  0.00  0.00    +0.000 C 
ATOM      6  C   UNL     1       4.656   5.460  19.495  0.00  0.00    +0.000 C 
ATOM      7  C   UNL     1       3.732   4.231  19.634  0.00  0.00    +0.000 C 
ATOM      8  C   UNL     1       3.148   3.847  18.265  0.00  0.00    +0.000 C 
ATOM      9  C   UNL     1       2.416   5.039  17.625  0.00  0.00    +0.000 C 
ATOM     10  C   UNL     1       3.367   6.242  17.493  0.00  0.00    +0.000 C 
ATOM     11  C   UNL     1       4.568   5.812  16.586  0.00  0.00    +0.000 C 
ATOM     12  C   UNL     1       5.312   4.596  17.190  0.00  0.00    +0.000 C 
ATOM     13  C   UNL     1       4.306   3.431  17.350  0.00  0.00    +0.000 C 
ATOM     14  C   UNL     1       5.826   5.052  18.579  0.00  0.00    +0.000 C 
BRANCH  12  15
ATOM     15  C   UNL     1       6.490   4.049  16.368  0.00  0.00    +0.000 C 
ATOM     16  N   UNL     1       7.745   4.259  16.847  0.00  0.00    +0.000 N 
ATOM     17  O   UNL     1       6.360   3.551  15.251  0.00  0.00    +0.000 OA
ATOM     18  H   UNL     1       8.514   3.991  16.250  0.00  0.00    +0.000 HD
ATOM     19  H   UNL     1       7.947   4.783  17.685  0.00  0.00    +0.000 HD
ENDBRANCH  12  15
ENDBRANCH   3   5
BRANCH   1  20
ATOM     20  C   UNL     1       1.006   8.153  21.062  0.00  0.00    +0.000 C 
BRANCH  20  22
ATOM     21  C   UNL     1      -0.643   9.173  22.728  0.00  0.00    +0.000 C 
ATOM     22  C   UNL     1       0.115   9.371  21.399  0.00  0.00    +0.000 C 
ATOM     23  C   UNL     1       1.022  10.608  21.632  0.00  0.00    +0.000 C 
BRANCH  22  24
ATOM     24  N   UNL     1      -0.910   9.682  20.367  0.00  0.00    +0.000 NA
ATOM     25  H   UNL     1      -1.826   9.251  20.521  0.00  0.00    +0.000 HD
BRANCH  24  26
ATOM     26  S   UNL     1      -1.143  11.166  19.615  0.00  0.00    +0.000 S 
ATOM     27  O   UNL     1      -1.801  11.983  20.608  0.00  0.00    +0.000 OA
ATOM     28  O   UNL     1       0.102  11.623  19.043  0.00  0.00    +0.000 OA
BRANCH  26  29
ATOM     29  C   UNL     1      -2.283  10.871  18.323  0.00  0.00    +0.000 A 
ATOM     30  C   UNL     1      -3.499  11.547  18.300  0.00  0.00    +0.000 A 
ATOM     31  F   UNL     1      -3.932  12.243  19.359  0.00  0.00    +0.000 F 
ATOM     32  C   UNL     1      -4.300  11.532  17.157  0.00  0.00    +0.000 A 
ATOM     33  C   UNL     1      -3.886  10.835  16.022  0.00  0.00    +0.000 A 
ATOM     34  C   UNL     1      -2.687  10.129  16.052  0.00  0.00    +0.000 A 
ATOM     35  C   UNL     1      -1.895  10.150  17.200  0.00  0.00    +0.000 A 
ATOM     36  F   UNL     1      -0.746   9.461  17.168  0.00  0.00    +0.000 F 
ENDBRANCH  26  29
ENDBRANCH  24  26
ENDBRANCH  22  24
ENDBRANCH  20  22
ENDBRANCH   1  20
TORSDOF 7
ENDMDL
MODEL 2
REMARK VINA RESULT:      -8.2      1.567      2.616
REMARK  Name = 
REMARK  9 active torsions:
REMARK  status: ('A' for Active; 'I' for Inactive)
REMARK    1  A    between atoms: C_1  and  C_2
REMARK    2  A    between atoms: C_2  and  C_3
REMARK    3  A    between atoms: C_2  and  C_4
REMARK    4  A    between atoms: C_2  and  N_21
REMARK    5  A    between atoms: C_4  and  C_5
REMARK    6  A    between atoms: N_7  and  C_8
REMARK    7  A    between atoms: C_15  and  C_16
REMARK    8  A    between atoms: N_21  and  S_22
REMARK    9  A    between atoms: S_22  and  C_25
REMARK                            x       y       z     vdW  Elec       q    Type
REMARK                         _______ _______ _______ _____ _____    ______ ____
ROOT
ATOM      1  C   UNL     1       2.241   7.458  18.973  0.00  0.00    +0.000 C 
ATOM      2  O   UNL     1       1.897   8.232  18.098  0.00  0.00    +0.000 OA
ATOM      3  N   UNL     1       2.992   6.301  18.748  0.00  0.00    +0.000 N 
ATOM      4  H   UNL     1       3.346   5.863  19.587  0.00  0.00    +0.000 HD
ENDROOT
BRANCH   3   5
ATOM      5  C   UNL     1       3.590   5.808  17.482  0.00  0.00    +0.000 C 
ATOM      6  C   UNL     1       4.734   6.779  17.061  0.00  0.00    +0.000 C 
ATOM      7  C   UNL     1       5.859   6.759  18.119  0.00  0.00    +0.000 C 
ATOM      8  C   UNL     1       6.416   5.335  18.277  0.00  0.00    +0.000 C 
ATOM      9  C   UNL     1       5.293   4.341  18.622  0.00  0.00    +0.000 C 
ATOM     10  C   UNL     1       4.195   4.379  17.544  0.00  0.00    +0.000 C 
ATOM     11  C   UNL     1       4.846   3.987  16.177  0.00  0.00    +0.000 C 
ATOM     12  C   UNL     1       5.998   4.954  15.812  0.00  0.00    +0.000 C 
ATOM     13  C   UNL     1       7.051   4.918  16.946  0.00  0.00    +0.000 C 
ATOM     14  C   UNL     1       5.363   6.364  15.717  0.00  0.00    +0.000 C 
BRANCH  12  15
ATOM     15  C   UNL     1       6.749   4.647  14.505  0.00  0.00    +0.000 C 
ATOM     16  N   UNL     1       6.399   3.521  13.827  0.00  0.00    +0.000 N 
ATOM     17  O   UNL     1       7.722   5.292  14.119  0.00  0.00    +0.000 OA
ATOM     18  H   UNL     1       6.967   3.273  13.029  0.00  0.00    +0.000 HD
ATOM     19  H   UNL     1       5.708   2.862  14.149  0.00  0.00    +0.000 HD
ENDBRANCH  12  15
ENDBRANCH   3   5
BRANCH   1  20
ATOM     20  C   UNL     1       1.906   7.608  20.472  0.00  0.00    +0.000 C 
BRANCH  20  22
ATOM     21  C   UNL     1      -0.413   8.311  21.286  0.00  0.00    +0.000 C 
ATOM     22  C   UNL     1       1.036   8.767  21.013  0.00  0.00    +0.000 C 
ATOM     23  C   UNL     1       1.588   9.205  22.395  0.00  0.00    +0.000 C 
BRANCH  22  24
ATOM     24  N   UNL     1       0.949   9.941  20.106  0.00  0.00    +0.000 NA
ATOM     25  H   UNL     1       0.754   9.719  19.125  0.00  0.00    +0.000 HD
BRANCH  24  26
ATOM     26  S   UNL     1       0.241  11.422  20.464  0.00  0.00    +0.000 S 
ATOM     27  O   UNL     1      -0.188  11.303  21.839  0.00  0.00    +0.000 OA
ATOM     28  O   UNL     1       1.141  12.493  20.100  0.00  0.00    +0.000 OA
BRANCH  26  29
ATOM     29  C   UNL     1      -1.189  11.521  19.463  0.00  0.00    +0.000 A 
ATOM     30  C   UNL     1      -1.325  10.683  18.361  0.00  0.00    +0.000 A 
ATOM     31  F   UNL     1      -0.295   9.964  17.897  0.00  0.00    +0.000 F 
ATOM     32  C   UNL     1      -2.555  10.555  17.713  0.00  0.00    +0.000 A 
ATOM     33  C   UNL     1      -3.663  11.270  18.167  0.00  0.00    +0.000 A 
ATOM     34  C   UNL     1      -3.522  12.135  19.249  0.00  0.00    +0.000 A 
ATOM     35  C   UNL     1      -2.289  12.256  19.888  0.00  0.00    +0.000 A 
ATOM     36  F   UNL     1      -2.216  13.096  20.930  0.00  0.00    +0.000 F 
ENDBRANCH  26  29
ENDBRANCH  24  26
ENDBRANCH  22  24
ENDBRANCH  20  22
ENDBRANCH   1  20
TORSDOF 7
ENDMDL
MODEL 3
REMARK VINA RESULT:      -8.2      0.638      1.594
REMARK  Name = 
REMARK  9 active torsions:
REMARK  status: ('A' for Active; 'I' for Inactive)
REMARK    1  A    between atoms: C_1  and  C_2
REMARK    2  A    between atoms: C_2  and  C_3
REMARK    3  A    between atoms: C_2  and  C_4
REMARK    4  A    between atoms: C_2  and  N_21
REMARK    5  A    between atoms: C_4  and  C_5
REMARK    6  A    between atoms: N_7  and  C_8
REMARK    7  A    between atoms: C_15  and  C_16
REMARK    8  A    between atoms: N_21  and  S_22
REMARK    9  A    between atoms: S_22  and  C_25
REMARK                            x       y       z     vdW  Elec       q    Type
REMARK                         _______ _______ _______ _____ _____    ______ ____
ROOT
ATOM      1  C   UNL     1       1.920   7.949  19.838  0.00  0.00    +0.000 C 
ATOM      2  O   UNL     1       1.774   8.686  18.879  0.00  0.00    +0.000 OA
ATOM      3  N   UNL     1       2.889   6.945  19.918  0.00  0.00    +0.000 N 
ATOM      4  H   UNL     1       2.998   6.542  20.838  0.00  0.00    +0.000 HD
ENDROOT
BRANCH   3   5
ATOM      5  C   UNL     1       3.966   6.608  18.954  0.00  0.00    +0.000 C 
ATOM      6  C   UNL     1       4.745   5.369  19.490  0.00  0.00    +0.000 C 
ATOM      7  C   UNL     1       3.808   4.143  19.551  0.00  0.00    +0.000 C 
ATOM      8  C   UNL     1       3.239   3.838  18.156  0.00  0.00    +0.000 C 
ATOM      9  C   UNL     1       2.526   5.070  17.571  0.00  0.00    +0.000 C 
ATOM     10  C   UNL     1       3.490   6.269  17.516  0.00  0.00    +0.000 C 
ATOM     11  C   UNL     1       4.698   5.876  16.603  0.00  0.00    +0.000 C 
ATOM     12  C   UNL     1       5.423   4.623  17.151  0.00  0.00    +0.000 C 
ATOM     13  C   UNL     1       4.405   3.460  17.235  0.00  0.00    +0.000 C 
ATOM     14  C   UNL     1       5.923   4.999  18.568  0.00  0.00    +0.000 C 
BRANCH  12  15
ATOM     15  C   UNL     1       6.608   4.109  16.315  0.00  0.00    +0.000 C 
ATOM     16  N   UNL     1       6.333   3.269  15.281  0.00  0.00    +0.000 N 
ATOM     17  O   UNL     1       7.783   4.317  16.611  0.00  0.00    +0.000 OA
ATOM     18  H   UNL     1       7.122   2.855  14.806  0.00  0.00    +0.000 HD
ATOM     19  H   UNL     1       5.407   2.936  15.058  0.00  0.00    +0.000 HD
ENDBRANCH  12  15
ENDBRANCH   3   5
BRANCH   1  20
ATOM     20  C   UNL     1       1.063   7.984  21.120  0.00  0.00    +0.000 C 
BRANCH  20  22
ATOM     21  C   UNL     1      -0.682   8.916  22.740  0.00  0.00    +0.000 C 
ATOM     22  C   UNL     1       0.193   9.204  21.502  0.00  0.00    +0.000 C 
ATOM     23  C   UNL     1       1.123  10.370  21.929  0.00  0.00    +0.000 C 
BRANCH  22  24
ATOM     24  N   UNL     1      -0.728   9.657  20.427  0.00  0.00    +0.000 NA
ATOM     25  H   UNL     1      -1.643   9.198  20.415  0.00  0.00    +0.000 HD
BRANCH  24  26
ATOM     26  S   UNL     1      -0.922  11.236  19.886  0.00  0.00    +0.000 S 
ATOM     27  O   UNL     1      -1.590  11.918  20.971  0.00  0.00    +0.000 OA
ATOM     28  O   UNL     1       0.343  11.747  19.409  0.00  0.00    +0.000 OA
BRANCH  26  29
ATOM     29  C   UNL     1      -2.037  11.146  18.543  0.00  0.00    +0.000 A 
ATOM     30  C   UNL     1      -1.796  10.260  17.497  0.00  0.00    +0.000 A 
ATOM     31  F   UNL     1      -0.617   9.640  17.364  0.00  0.00    +0.000 F 
ATOM     32  C   UNL     1      -2.792   9.979  16.560  0.00  0.00    +0.000 A 
ATOM     33  C   UNL     1      -4.043  10.586  16.664  0.00  0.00    +0.000 A 
ATOM     34  C   UNL     1      -4.277  11.499  17.689  0.00  0.00    +0.000 A 
ATOM     35  C   UNL     1      -3.275  11.773  18.619  0.00  0.00    +0.000 A 
ATOM     36  F   UNL     1      -3.561  12.652  19.590  0.00  0.00    +0.000 F 
ENDBRANCH  26  29
ENDBRANCH  24  26
ENDBRANCH  22  24
ENDBRANCH  20  22
ENDBRANCH   1  20
TORSDOF 7
ENDMDL
MODEL 4
REMARK VINA RESULT:      -8.1      2.149      2.633
REMARK  Name = 
REMARK  9 active torsions:
REMARK  status: ('A' for Active; 'I' for Inactive)
REMARK    1  A    between atoms: C_1  and  C_2
REMARK    2  A    between atoms: C_2  and  C_3
REMARK    3  A    between atoms: C_2  and  C_4
REMARK    4  A    between atoms: C_2  and  N_21
REMARK    5  A    between atoms: C_4  and  C_5
REMARK    6  A    between atoms: N_7  and  C_8
REMARK    7  A    between atoms: C_15  and  C_16
REMARK    8  A    between atoms: N_21  and  S_22
REMARK    9  A    between atoms: S_22  and  C_25
REMARK                            x       y       z     vdW  Elec       q    Type
REMARK                         _______ _______ _______ _____ _____    ______ ____
ROOT
ATOM      1  C   UNL     1       2.359   8.171  17.869  0.00  0.00    +0.000 C 
ATOM      2  O   UNL     1       3.501   8.595  17.858  0.00  0.00    +0.000 OA
ATOM      3  N   UNL     1       2.024   6.816  17.932  0.00  0.00    +0.000 N 
ATOM      4  H   UNL     1       1.046   6.636  18.112  0.00  0.00    +0.000 HD
ENDROOT
BRANCH   3   5
ATOM      5  C   UNL     1       2.917   5.640  18.081  0.00  0.00    +0.000 C 
ATOM      6  C   UNL     1       3.159   5.387  19.601  0.00  0.00    +0.000 C 
ATOM      7  C   UNL     1       1.827   5.021  20.292  0.00  0.00    +0.000 C 
ATOM      8  C   UNL     1       1.218   3.767  19.646  0.00  0.00    +0.000 C 
ATOM      9  C   UNL     1       1.037   3.963  18.130  0.00  0.00    +0.000 C 
ATOM     10  C   UNL     1       2.382   4.317  17.471  0.00  0.00    +0.000 C 
ATOM     11  C   UNL     1       3.375   3.136  17.735  0.00  0.00    +0.000 C 
ATOM     12  C   UNL     1       3.560   2.896  19.253  0.00  0.00    +0.000 C 
ATOM     13  C   UNL     1       2.177   2.594  19.878  0.00  0.00    +0.000 C 
ATOM     14  C   UNL     1       4.131   4.215  19.832  0.00  0.00    +0.000 C 
BRANCH  12  15
ATOM     15  C   UNL     1       4.482   1.729  19.644  0.00  0.00    +0.000 C 
ATOM     16  N   UNL     1       4.430   0.602  18.884  0.00  0.00    +0.000 N 
ATOM     17  O   UNL     1       5.161   1.719  20.669  0.00  0.00    +0.000 OA
ATOM     18  H   UNL     1       4.960  -0.194  19.210  0.00  0.00    +0.000 HD
ATOM     19  H   UNL     1       3.798   0.475  18.108  0.00  0.00    +0.000 HD
ENDBRANCH  12  15
ENDBRANCH   3   5
BRANCH   1  20
ATOM     20  C   UNL     1       1.089   9.045  17.806  0.00  0.00    +0.000 C 
BRANCH  20  22
ATOM     21  C   UNL     1       0.979   9.299  20.347  0.00  0.00    +0.000 C 
ATOM     22  C   UNL     1       0.640   9.940  18.985  0.00  0.00    +0.000 C 
ATOM     23  C   UNL     1       1.449  11.262  18.948  0.00  0.00    +0.000 C 
BRANCH  22  24
ATOM     24  N   UNL     1      -0.817  10.236  19.005  0.00  0.00    +0.000 NA
ATOM     25  H   UNL     1      -1.400   9.522  19.450  0.00  0.00    +0.000 HD
BRANCH  24  26
ATOM     26  S   UNL     1      -1.520  11.738  19.277  0.00  0.00    +0.000 S 
ATOM     27  O   UNL     1      -1.639  11.835  20.714  0.00  0.00    +0.000 OA
ATOM     28  O   UNL     1      -0.784  12.757  18.564  0.00  0.00    +0.000 OA
BRANCH  26  29
ATOM     29  C   UNL     1      -3.133  11.636  18.611  0.00  0.00    +0.000 A 
ATOM     30  C   UNL     1      -4.200  12.231  19.278  0.00  0.00    +0.000 A 
ATOM     31  F   UNL     1      -4.077  12.678  20.534  0.00  0.00    +0.000 F 
ATOM     32  C   UNL     1      -5.433  12.393  18.644  0.00  0.00    +0.000 A 
ATOM     33  C   UNL     1      -5.607  11.959  17.331  0.00  0.00    +0.000 A 
ATOM     34  C   UNL     1      -4.553  11.333  16.671  0.00  0.00    +0.000 A 
ATOM     35  C   UNL     1      -3.325  11.175  17.314  0.00  0.00    +0.000 A 
ATOM     36  F   UNL     1      -2.344  10.574  16.627  0.00  0.00    +0.000 F 
ENDBRANCH  26  29
ENDBRANCH  24  26
ENDBRANCH  22  24
ENDBRANCH  20  22
ENDBRANCH   1  20
TORSDOF 7
ENDMDL
MODEL 5
REMARK VINA RESULT:      -8.1      2.996      3.836
REMARK  Name = 
REMARK  9 active torsions:
REMARK  status: ('A' for Active; 'I' for Inactive)
REMARK    1  A    between atoms: C_1  and  C_2
REMARK    2  A    between atoms: C_2  and  C_3
REMARK    3  A    between atoms: C_2  and  C_4
REMARK    4  A    between atoms: C_2  and  N_21
REMARK    5  A    between atoms: C_4  and  C_5
REMARK    6  A    between atoms: N_7  and  C_8
REMARK    7  A    between atoms: C_15  and  C_16
REMARK    8  A    between atoms: N_21  and  S_22
REMARK    9  A    between atoms: S_22  and  C_25
REMARK                            x       y       z     vdW  Elec       q    Type
REMARK                         _______ _______ _______ _____ _____    ______ ____
ROOT
ATOM      1  C   UNL     1       2.214   7.407  19.074  0.00  0.00    +0.000 C 
ATOM      2  O   UNL     1       1.882   8.198  18.209  0.00  0.00    +0.000 OA
ATOM      3  N   UNL     1       2.946   6.241  18.833  0.00  0.00    +0.000 N 
ATOM      4  H   UNL     1       3.293   5.787  19.667  0.00  0.00    +0.000 HD
ENDROOT
BRANCH   3   5
ATOM      5  C   UNL     1       3.535   5.755  17.561  0.00  0.00    +0.000 C 
ATOM      6  C   UNL     1       4.738   6.674  17.185  0.00  0.00    +0.000 C 
ATOM      7  C   UNL     1       5.843   6.558  18.258  0.00  0.00    +0.000 C 
ATOM      8  C   UNL     1       6.318   5.102  18.378  0.00  0.00    +0.000 C 
ATOM      9  C   UNL     1       5.137   4.161  18.676  0.00  0.00    +0.000 C 
ATOM     10  C   UNL     1       4.059   4.294  17.586  0.00  0.00    +0.000 C 
ATOM     11  C   UNL     1       4.708   3.908  16.215  0.00  0.00    +0.000 C 
ATOM     12  C   UNL     1       5.917   4.820  15.897  0.00  0.00    +0.000 C 
ATOM     13  C   UNL     1       6.949   4.691  17.043  0.00  0.00    +0.000 C 
ATOM     14  C   UNL     1       5.362   6.266  15.838  0.00  0.00    +0.000 C 
BRANCH  12  15
ATOM     15  C   UNL     1       6.669   4.512  14.591  0.00  0.00    +0.000 C 
ATOM     16  N   UNL     1       7.716   5.316  14.262  0.00  0.00    +0.000 N 
ATOM     17  O   UNL     1       6.296   3.665  13.781  0.00  0.00    +0.000 OA
ATOM     18  H   UNL     1       8.135   5.171  13.354  0.00  0.00    +0.000 HD
ATOM     19  H   UNL     1       7.999   6.120  14.801  0.00  0.00    +0.000 HD
ENDBRANCH  12  15
ENDBRANCH   3   5
BRANCH   1  20
ATOM     20  C   UNL     1       1.883   7.544  20.575  0.00  0.00    +0.000 C 
BRANCH  20  22
ATOM     21  C   UNL     1      -0.403   8.350  21.387  0.00  0.00    +0.000 C 
ATOM     22  C   UNL     1       1.071   8.733  21.138  0.00  0.00    +0.000 C 
ATOM     23  C   UNL     1       1.632   9.107  22.536  0.00  0.00    +0.000 C 
BRANCH  22  24
ATOM     24  N   UNL     1       1.056   9.933  20.260  0.00  0.00    +0.000 NA
ATOM     25  H   UNL     1       0.936   9.740  19.262  0.00  0.00    +0.000 HD
BRANCH  24  26
ATOM     26  S   UNL     1       0.324  11.406  20.605  0.00  0.00    +0.000 S 
ATOM     27  O   UNL     1      -0.857  11.435  19.773  0.00  0.00    +0.000 OA
ATOM     28  O   UNL     1       0.179  11.555  22.035  0.00  0.00    +0.000 OA
BRANCH  26  29
ATOM     29  C   UNL     1       1.423  12.632  20.018  0.00  0.00    +0.000 A 
ATOM     30  C   UNL     1       2.020  12.491  18.769  0.00  0.00    +0.000 A 
ATOM     31  F   UNL     1       1.968  11.335  18.096  0.00  0.00    +0.000 F 
ATOM     32  C   UNL     1       2.681  13.566  18.171  0.00  0.00    +0.000 A 
ATOM     33  C   UNL     1       2.749  14.796  18.825  0.00  0.00    +0.000 A 
ATOM     34  C   UNL     1       2.182  14.932  20.089  0.00  0.00    +0.000 A 
ATOM     35  C   UNL     1       1.526  13.851  20.678  0.00  0.00    +0.000 A 
ATOM     36  F   UNL     1       0.991  14.043  21.891  0.00  0.00    +0.000 F 
ENDBRANCH  26  29
ENDBRANCH  24  26
ENDBRANCH  22  24
ENDBRANCH  20  22
ENDBRANCH   1  20
TORSDOF 7
ENDMDL
MODEL 6
REMARK VINA RESULT:      -8.1      2.453      3.156
REMARK  Name = 
REMARK  9 active torsions:
REMARK  status: ('A' for Active; 'I' for Inactive)
REMARK    1  A    between atoms: C_1  and  C_2
REMARK    2  A    between atoms: C_2  and  C_3
REMARK    3  A    between atoms: C_2  and  C_4
REMARK    4  A    between atoms: C_2  and  N_21
REMARK    5  A    between atoms: C_4  and  C_5
REMARK    6  A    between atoms: N_7  and  C_8
REMARK    7  A    between atoms: C_15  and  C_16
REMARK    8  A    between atoms: N_21  and  S_22
REMARK    9  A    between atoms: S_22  and  C_25
REMARK                            x       y       z     vdW  Elec       q    Type
REMARK                         _______ _______ _______ _____ _____    ______ ____
ROOT
ATOM      1  C   UNL     1       2.219   7.383  18.997  0.00  0.00    +0.000 C 
ATOM      2  O   UNL     1       1.837   8.121  18.107  0.00  0.00    +0.000 OA
ATOM      3  N   UNL     1       2.993   6.238  18.792  0.00  0.00    +0.000 N 
ATOM      4  H   UNL     1       3.375   5.836  19.637  0.00  0.00    +0.000 HD
ENDROOT
BRANCH   3   5
ATOM      5  C   UNL     1       3.577   5.721  17.530  0.00  0.00    +0.000 C 
ATOM      6  C   UNL     1       4.699   6.698  17.063  0.00  0.00    +0.000 C 
ATOM      7  C   UNL     1       5.842   6.724  18.101  0.00  0.00    +0.000 C 
ATOM      8  C   UNL     1       6.424   5.314  18.287  0.00  0.00    +0.000 C 
ATOM      9  C   UNL     1       5.323   4.312  18.678  0.00  0.00    +0.000 C 
ATOM     10  C   UNL     1       4.206   4.304  17.619  0.00  0.00    +0.000 C 
ATOM     11  C   UNL     1       4.839   3.885  16.252  0.00  0.00    +0.000 C 
ATOM     12  C   UNL     1       5.970   4.859  15.841  0.00  0.00    +0.000 C 
ATOM     13  C   UNL     1       7.042   4.870  16.957  0.00  0.00    +0.000 C 
ATOM     14  C   UNL     1       5.311   6.257  15.720  0.00  0.00    +0.000 C 
BRANCH  12  15
ATOM     15  C   UNL     1       6.703   4.529  14.530  0.00  0.00    +0.000 C 
ATOM     16  N   UNL     1       7.715   5.353  14.149  0.00  0.00    +0.000 N 
ATOM     17  O   UNL     1       6.340   3.643  13.759  0.00  0.00    +0.000 OA
ATOM     18  H   UNL     1       8.120   5.190  13.238  0.00  0.00    +0.000 HD
ATOM     19  H   UNL     1       7.985   6.184  14.653  0.00  0.00    +0.000 HD
ENDBRANCH  12  15
ENDBRANCH   3   5
BRANCH   1  20
ATOM     20  C   UNL     1       1.911   7.572  20.498  0.00  0.00    +0.000 C 
BRANCH  20  22
ATOM     21  C   UNL     1      -0.407   8.296  21.298  0.00  0.00    +0.000 C 
ATOM     22  C   UNL     1       1.045   8.741  21.024  0.00  0.00    +0.000 C 
ATOM     23  C   UNL     1       1.595   9.192  22.403  0.00  0.00    +0.000 C 
BRANCH  22  24
ATOM     24  N   UNL     1       0.966   9.905  20.104  0.00  0.00    +0.000 NA
ATOM     25  H   UNL     1       1.389   9.762  19.183  0.00  0.00    +0.000 HD
BRANCH  24  26
ATOM     26  S   UNL     1      -0.343  10.944  19.927  0.00  0.00    +0.000 S 
ATOM     27  O   UNL     1      -1.170  10.327  18.916  0.00  0.00    +0.000 OA
ATOM     28  O   UNL     1      -0.915  11.231  21.223  0.00  0.00    +0.000 OA
BRANCH  26  29
ATOM     29  C   UNL     1       0.309  12.422  19.258  0.00  0.00    +0.000 A 
ATOM     30  C   UNL     1      -0.297  13.641  19.544  0.00  0.00    +0.000 A 
ATOM     31  F   UNL     1      -1.503  13.704  20.122  0.00  0.00    +0.000 F 
ATOM     32  C   UNL     1       0.349  14.843  19.248  0.00  0.00    +0.000 A 
ATOM     33  C   UNL     1       1.613  14.831  18.660  0.00  0.00    +0.000 A 
ATOM     34  C   UNL     1       2.209  13.614  18.342  0.00  0.00    +0.000 A 
ATOM     35  C   UNL     1       1.554  12.419  18.641  0.00  0.00    +0.000 A 
ATOM     36  F   UNL     1       2.179  11.278  18.321  0.00  0.00    +0.000 F 
ENDBRANCH  26  29
ENDBRANCH  24  26
ENDBRANCH  22  24
ENDBRANCH  20  22
ENDBRANCH   1  20
TORSDOF 7
ENDMDL
MODEL 7
REMARK VINA RESULT:      -8.0      1.662      2.321
REMARK  Name = 
REMARK  9 active torsions:
REMARK  status: ('A' for Active; 'I' for Inactive)
REMARK    1  A    between atoms: C_1  and  C_2
REMARK    2  A    between atoms: C_2  and  C_3
REMARK    3  A    between atoms: C_2  and  C_4
REMARK    4  A    between atoms: C_2  and  N_21
REMARK    5  A    between atoms: C_4  and  C_5
REMARK    6  A    between atoms: N_7  and  C_8
REMARK    7  A    between atoms: C_15  and  C_16
REMARK    8  A    between atoms: N_21  and  S_22
REMARK    9  A    between atoms: S_22  and  C_25
REMARK                            x       y       z     vdW  Elec       q    Type
REMARK                         _______ _______ _______ _____ _____    ______ ____
ROOT
ATOM      1  C   UNL     1       2.116   6.046  19.794  0.00  0.00    +0.000 C 
ATOM      2  O   UNL     1       1.392   5.100  19.538  0.00  0.00    +0.000 OA
ATOM      3  N   UNL     1       3.207   6.435  19.013  0.00  0.00    +0.000 N 
ATOM      4  H   UNL     1       3.595   7.336  19.257  0.00  0.00    +0.000 HD
ENDROOT
BRANCH   3   5
ATOM      5  C   UNL     1       3.670   5.883  17.715  0.00  0.00    +0.000 C 
ATOM      6  C   UNL     1       4.800   6.802  17.157  0.00  0.00    +0.000 C 
ATOM      7  C   UNL     1       6.017   6.777  18.108  0.00  0.00    +0.000 C 
ATOM      8  C   UNL     1       6.542   5.340  18.262  0.00  0.00    +0.000 C 
ATOM      9  C   UNL     1       5.426   4.396  18.743  0.00  0.00    +0.000 C 
ATOM     10  C   UNL     1       4.234   4.438  17.770  0.00  0.00    +0.000 C 
ATOM     11  C   UNL     1       4.742   3.981  16.363  0.00  0.00    +0.000 C 
ATOM     12  C   UNL     1       5.885   4.897  15.861  0.00  0.00    +0.000 C 
ATOM     13  C   UNL     1       7.037   4.861  16.894  0.00  0.00    +0.000 C 
ATOM     14  C   UNL     1       5.288   6.324  15.777  0.00  0.00    +0.000 C 
BRANCH  12  15
ATOM     15  C   UNL     1       6.501   4.524  14.502  0.00  0.00    +0.000 C 
ATOM     16  N   UNL     1       7.592   5.225  14.091  0.00  0.00    +0.000 N 
ATOM     17  O   UNL     1       5.987   3.722  13.725  0.00  0.00    +0.000 OA
ATOM     18  H   UNL     1       7.925   5.045  13.155  0.00  0.00    +0.000 HD
ATOM     19  H   UNL     1       7.993   5.995  14.605  0.00  0.00    +0.000 HD
ENDBRANCH  12  15
ENDBRANCH   3   5
BRANCH   1  20
ATOM     20  C   UNL     1       1.967   6.969  21.022  0.00  0.00    +0.000 C 
BRANCH  20  22
ATOM     21  C   UNL     1      -0.349   8.045  21.163  0.00  0.00    +0.000 C 
ATOM     22  C   UNL     1       1.163   8.290  20.971  0.00  0.00    +0.000 C 
ATOM     23  C   UNL     1       1.583   9.179  22.171  0.00  0.00    +0.000 C 
BRANCH  22  24
ATOM     24  N   UNL     1       1.313   9.047  19.701  0.00  0.00    +0.000 NA
ATOM     25  H   UNL     1       1.066   8.529  18.853  0.00  0.00    +0.000 HD
BRANCH  24  26
ATOM     26  S   UNL     1       0.933  10.666  19.460  0.00  0.00    +0.000 S 
ATOM     27  O   UNL     1       0.977  11.255  20.779  0.00  0.00    +0.000 OA
ATOM     28  O   UNL     1       1.771  11.214  18.418  0.00  0.00    +0.000 OA
BRANCH  26  29
ATOM     29  C   UNL     1      -0.729  10.689  18.918  0.00  0.00    +0.000 A 
ATOM     30  C   UNL     1      -1.640  11.561  19.507  0.00  0.00    +0.000 A 
ATOM     31  F   UNL     1      -1.350  12.218  20.636  0.00  0.00    +0.000 F 
ATOM     32  C   UNL     1      -2.887  11.787  18.921  0.00  0.00    +0.000 A 
ATOM     33  C   UNL     1      -3.231  11.139  17.735  0.00  0.00    +0.000 A 
ATOM     34  C   UNL     1      -2.336  10.241  17.161  0.00  0.00    +0.000 A 
ATOM     35  C   UNL     1      -1.093  10.021  17.755  0.00  0.00    +0.000 A 
ATOM     36  F   UNL     1      -0.269   9.153  17.153  0.00  0.00    +0.000 F 
ENDBRANCH  26  29
ENDBRANCH  24  26
ENDBRANCH  22  24
ENDBRANCH  20  22
ENDBRANCH   1  20
TORSDOF 7
ENDMDL
MODEL 8
REMARK VINA RESULT:      -8.0      2.173      2.993
REMARK  Name = 
REMARK  9 active torsions:
REMARK  status: ('A' for Active; 'I' for Inactive)
REMARK    1  A    between atoms: C_1  and  C_2
REMARK    2  A    between atoms: C_2  and  C_3
REMARK    3  A    between atoms: C_2  and  C_4
REMARK    4  A    between atoms: C_2  and  N_21
REMARK    5  A    between atoms: C_4  and  C_5
REMARK    6  A    between atoms: N_7  and  C_8
REMARK    7  A    between atoms: C_15  and  C_16
REMARK    8  A    between atoms: N_21  and  S_22
REMARK    9  A    between atoms: S_22  and  C_25
REMARK                            x       y       z     vdW  Elec       q    Type
REMARK                         _______ _______ _______ _____ _____    ______ ____
ROOT
ATOM      1  C   UNL     1       2.144   8.269  17.952  0.00  0.00    +0.000 C 
ATOM      2  O   UNL     1       3.264   8.689  17.726  0.00  0.00    +0.000 OA
ATOM      3  N   UNL     1       1.836   6.921  18.156  0.00  0.00    +0.000 N 
ATOM      4  H   UNL     1       0.903   6.754  18.506  0.00  0.00    +0.000 HD
ENDROOT
BRANCH   3   5
ATOM      5  C   UNL     1       2.751   5.755  18.228  0.00  0.00    +0.000 C 
ATOM      6  C   UNL     1       3.055   5.452  19.727  0.00  0.00    +0.000 C 
ATOM      7  C   UNL     1       1.756   5.040  20.454  0.00  0.00    +0.000 C 
ATOM      8  C   UNL     1       1.142   3.800  19.785  0.00  0.00    +0.000 C 
ATOM      9  C   UNL     1       0.899   4.047  18.286  0.00  0.00    +0.000 C 
ATOM     10  C   UNL     1       2.213   4.446  17.590  0.00  0.00    +0.000 C 
ATOM     11  C   UNL     1       3.232   3.273  17.773  0.00  0.00    +0.000 C 
ATOM     12  C   UNL     1       3.479   2.981  19.273  0.00  0.00    +0.000 C 
ATOM     13  C   UNL     1       2.126   2.635  19.939  0.00  0.00    +0.000 C 
ATOM     14  C   UNL     1       4.053   4.288  19.878  0.00  0.00    +0.000 C 
BRANCH  12  15
ATOM     15  C   UNL     1       4.433   1.817  19.586  0.00  0.00    +0.000 C 
ATOM     16  N   UNL     1       4.369   0.717  18.788  0.00  0.00    +0.000 N 
ATOM     17  O   UNL     1       5.151   1.781  20.584  0.00  0.00    +0.000 OA
ATOM     18  H   UNL     1       4.922  -0.082  19.064  0.00  0.00    +0.000 HD
ATOM     19  H   UNL     1       3.709   0.608  18.033  0.00  0.00    +0.000 HD
ENDBRANCH  12  15
ENDBRANCH   3   5
BRANCH   1  20
ATOM     20  C   UNL     1       0.873   9.139  18.046  0.00  0.00    +0.000 C 
BRANCH  20  22
ATOM     21  C   UNL     1       0.804   9.181  20.602  0.00  0.00    +0.000 C 
ATOM     22  C   UNL     1       0.530   9.971  19.304  0.00  0.00    +0.000 C 
ATOM     23  C   UNL     1       1.479  11.196  19.370  0.00  0.00    +0.000 C 
BRANCH  22  24
ATOM     24  N   UNL     1      -0.885  10.421  19.371  0.00  0.00    +0.000 NA
ATOM     25  H   UNL     1      -1.438  10.008  20.128  0.00  0.00    +0.000 HD
BRANCH  24  26
ATOM     26  S   UNL     1      -1.443  11.983  19.100  0.00  0.00    +0.000 S 
ATOM     27  O   UNL     1      -1.298  12.653  20.372  0.00  0.00    +0.000 OA
ATOM     28  O   UNL     1      -0.792  12.538  17.936  0.00  0.00    +0.000 OA
BRANCH  26  29
ATOM     29  C   UNL     1      -3.153  11.826  18.770  0.00  0.00    +0.000 A 
ATOM     30  C   UNL     1      -3.593  10.955  17.777  0.00  0.00    +0.000 A 
ATOM     31  F   UNL     1      -2.742  10.407  16.901  0.00  0.00    +0.000 F 
ATOM     32  C   UNL     1      -4.943  10.616  17.677  0.00  0.00    +0.000 A 
ATOM     33  C   UNL     1      -5.867  11.148  18.575  0.00  0.00    +0.000 A 
ATOM     34  C   UNL     1      -5.437  12.045  19.549  0.00  0.00    +0.000 A 
ATOM     35  C   UNL     1      -4.086  12.379  19.640  0.00  0.00    +0.000 A 
ATOM     36  F   UNL     1      -3.728  13.239  20.603  0.00  0.00    +0.000 F 
ENDBRANCH  26  29
ENDBRANCH  24  26
ENDBRANCH  22  24
ENDBRANCH  20  22
ENDBRANCH   1  20
TORSDOF 7
ENDMDL
MODEL 9
REMARK VINA RESULT:      -8.0      3.956      8.613
REMARK  Name = 
REMARK  9 active torsions:
REMARK  status: ('A' for Active; 'I' for Inactive)
REMARK    1  A    between atoms: C_1  and  C_2
REMARK    2  A    between atoms: C_2  and  C_3
REMARK    3  A    between atoms: C_2  and  C_4
REMARK    4  A    between atoms: C_2  and  N_21
REMARK    5  A    between atoms: C_4  and  C_5
REMARK    6  A    between atoms: N_7  and  C_8
REMARK    7  A    between atoms: C_15  and  C_16
REMARK    8  A    between atoms: N_21  and  S_22
REMARK    9  A    between atoms: S_22  and  C_25
REMARK                            x       y       z     vdW  Elec       q    Type
REMARK                         _______ _______ _______ _____ _____    ______ ____
ROOT
ATOM      1  C   UNL     1       2.106   6.662  19.888  0.00  0.00    +0.000 C 
ATOM      2  O   UNL     1       3.266   6.714  19.519  0.00  0.00    +0.000 OA
ATOM      3  N   UNL     1       1.319   7.781  20.169  0.00  0.00    +0.000 N 
ATOM      4  H   UNL     1       0.336   7.581  20.289  0.00  0.00    +0.000 HD
ENDROOT
BRANCH   3   5
ATOM      5  C   UNL     1       1.653   9.219  20.014  0.00  0.00    +0.000 C 
ATOM      6  C   UNL     1       1.538   9.598  18.505  0.00  0.00    +0.000 C 
ATOM      7  C   UNL     1       0.079   9.428  18.029  0.00  0.00    +0.000 C 
ATOM      8  C   UNL     1      -0.859  10.316  18.861  0.00  0.00    +0.000 C 
ATOM      9  C   UNL     1      -0.713  10.014  20.363  0.00  0.00    +0.000 C 
ATOM     10  C   UNL     1       0.749  10.201  20.807  0.00  0.00    +0.000 C 
ATOM     11  C   UNL     1       1.153  11.686  20.526  0.00  0.00    +0.000 C 
ATOM     12  C   UNL     1       0.993  12.031  19.025  0.00  0.00    +0.000 C 
ATOM     13  C   UNL     1      -0.479  11.780  18.615  0.00  0.00    +0.000 C 
ATOM     14  C   UNL     1       1.933  11.066  18.259  0.00  0.00    +0.000 C 
BRANCH  12  15
ATOM     15  C   UNL     1       1.319  13.480  18.626  0.00  0.00    +0.000 C 
ATOM     16  N   UNL     1       0.323  14.400  18.725  0.00  0.00    +0.000 N 
ATOM     17  O   UNL     1       2.384  13.814  18.110  0.00  0.00    +0.000 OA
ATOM     18  H   UNL     1       0.515  15.323  18.362  0.00  0.00    +0.000 HD
ATOM     19  H   UNL     1      -0.621  14.181  19.005  0.00  0.00    +0.000 HD
ENDBRANCH  12  15
ENDBRANCH   3   5
BRANCH   1  20
ATOM     20  C   UNL     1       1.308   5.361  20.117  0.00  0.00    +0.000 C 
BRANCH  20  22
ATOM     21  C   UNL     1       2.222   3.604  21.733  0.00  0.00    +0.000 C 
ATOM     22  C   UNL     1       1.993   3.982  20.255  0.00  0.00    +0.000 C 
ATOM     23  C   UNL     1       1.039   2.890  19.702  0.00  0.00    +0.000 C 
BRANCH  22  24
ATOM     24  N   UNL     1       3.316   3.888  19.582  0.00  0.00    +0.000 NA
ATOM     25  H   UNL     1       4.045   3.411  20.121  0.00  0.00    +0.000 HD
BRANCH  24  26
ATOM     26  S   UNL     1       3.580   3.585  17.951  0.00  0.00    +0.000 S 
ATOM     27  O   UNL     1       3.773   2.156  17.867  0.00  0.00    +0.000 OA
ATOM     28  O   UNL     1       2.534   4.199  17.165  0.00  0.00    +0.000 OA
BRANCH  26  29
ATOM     29  C   UNL     1       5.102   4.354  17.565  0.00  0.00    +0.000 A 
ATOM     30  C   UNL     1       5.424   4.633  16.240  0.00  0.00    +0.000 A 
ATOM     31  F   UNL     1       4.716   4.120  15.226  0.00  0.00    +0.000 F 
ATOM     32  C   UNL     1       6.493   5.474  15.930  0.00  0.00    +0.000 A 
ATOM     33  C   UNL     1       7.252   6.047  16.951  0.00  0.00    +0.000 A 
ATOM     34  C   UNL     1       6.954   5.744  18.277  0.00  0.00    +0.000 A 
ATOM     35  C   UNL     1       5.884   4.901  18.575  0.00  0.00    +0.000 A 
ATOM     36  F   UNL     1       5.638   4.653  19.869  0.00  0.00    +0.000 F 
ENDBRANCH  26  29
ENDBRANCH  24  26
ENDBRANCH  22  24
ENDBRANCH  20  22
ENDBRANCH   1  20
TORSDOF 7
ENDMDL
