MODEL 1
REMARK VINA RESULT:      -6.0      0.000      0.000
REMARK  Name = 
REMARK  1 active torsions:
REMARK  status: ('A' for Active; 'I' for Inactive)
REMARK    1  A    between atoms: C_5  and  C_6
REMARK                            x       y       z     vdW  Elec       q    Type
REMARK                         _______ _______ _______ _____ _____    ______ ____
ROOT
ATOM      1  I   UNL     1       1.865   4.880  20.366  0.00  0.00    +0.000 I 
ATOM      2  C   UNL     1       3.209   4.916  18.782  0.00  0.00    +0.000 A 
ATOM      3  C   UNL     1       3.816   6.115  18.418  0.00  0.00    +0.000 A 
ATOM      4  C   UNL     1       4.723   6.141  17.352  0.00  0.00    +0.000 A 
ATOM      5  C   UNL     1       5.030   4.972  16.640  0.00  0.00    +0.000 A 
ATOM      6  C   UNL     1       4.407   3.773  17.023  0.00  0.00    +0.000 A 
ATOM      7  C   UNL     1       3.501   3.743  18.089  0.00  0.00    +0.000 A 
ENDROOT
BRANCH   5   8
ATOM      8  C   UNL     1       5.970   4.975  15.530  0.00  0.00    +0.000 A 
ATOM      9  C   UNL     1       5.827   4.344  14.314  0.00  0.00    +0.000 A 
ATOM     10  N   UNL     1       6.971   4.658  13.643  0.00  0.00    +0.000 N 
ATOM     11  N   UNL     1       7.778   5.430  14.382  0.00  0.00    +0.000 NA
ATOM     12  N   UNL     1       7.175   5.634  15.546  0.00  0.00    +0.000 NA
ATOM     13  H   UNL     1       7.267   4.393  12.711  0.00  0.00    +0.000 HD
ENDBRANCH   5   8
TORSDOF 1
ENDMDL
MODEL 2
REMARK VINA RESULT:      -5.9      0.256      1.411
REMARK  Name = 
REMARK  1 active torsions:
REMARK  status: ('A' for Active; 'I' for Inactive)
REMARK    1  A    between atoms: C_5  and  C_6
REMARK                            x       y       z     vdW  Elec       q    Type
REMARK                         _______ _______ _______ _____ _____    ______ ____
ROOT
ATOM      1  I   UNL     1       2.015   5.076  20.223  0.00  0.00    +0.000 I 
ATOM      2  C   UNL     1       3.335   5.025  18.621  0.00  0.00    +0.000 A 
ATOM      3  C   UNL     1       3.688   3.803  18.054  0.00  0.00    +0.000 A 
ATOM      4  C   UNL     1       4.577   3.767  16.974  0.00  0.00    +0.000 A 
ATOM      5  C   UNL     1       5.121   4.949  16.450  0.00  0.00    +0.000 A 
ATOM      6  C   UNL     1       4.752   6.171  17.035  0.00  0.00    +0.000 A 
ATOM      7  C   UNL     1       3.864   6.211  18.116  0.00  0.00    +0.000 A 
ENDROOT
BRANCH   5   8
ATOM      8  C   UNL     1       6.045   4.936  15.327  0.00  0.00    +0.000 A 
ATOM      9  C   UNL     1       5.953   4.178  14.180  0.00  0.00    +0.000 A 
ATOM     10  N   UNL     1       7.055   4.535  13.461  0.00  0.00    +0.000 N 
ATOM     11  N   UNL     1       7.788   5.450  14.106  0.00  0.00    +0.000 NA
ATOM     12  N   UNL     1       7.179   5.707  15.256  0.00  0.00    +0.000 NA
ATOM     13  H   UNL     1       7.366   4.210  12.552  0.00  0.00    +0.000 HD
ENDBRANCH   5   8
TORSDOF 1
ENDMDL
MODEL 3
REMARK VINA RESULT:      -5.9      1.070      1.510
REMARK  Name = 
REMARK  1 active torsions:
REMARK  status: ('A' for Active; 'I' for Inactive)
REMARK    1  A    between atoms: C_5  and  C_6
REMARK                            x       y       z     vdW  Elec       q    Type
REMARK                         _______ _______ _______ _____ _____    ______ ____
ROOT
ATOM      1  I   UNL     1       2.193   3.317  20.705  0.00  0.00    +0.000 I 
ATOM      2  C   UNL     1       3.444   3.775  19.110  0.00  0.00    +0.000 A 
ATOM      3  C   UNL     1       3.072   3.420  17.816  0.00  0.00    +0.000 A 
ATOM      4  C   UNL     1       3.912   3.728  16.740  0.00  0.00    +0.000 A 
ATOM      5  C   UNL     1       5.131   4.393  16.947  0.00  0.00    +0.000 A 
ATOM      6  C   UNL     1       5.487   4.742  18.259  0.00  0.00    +0.000 A 
ATOM      7  C   UNL     1       4.649   4.435  19.337  0.00  0.00    +0.000 A 
ENDROOT
BRANCH   5   8
ATOM      8  C   UNL     1       6.019   4.724  15.844  0.00  0.00    +0.000 A 
ATOM      9  C   UNL     1       5.869   4.378  14.520  0.00  0.00    +0.000 A 
ATOM     10  N   UNL     1       6.958   4.927  13.910  0.00  0.00    +0.000 N 
ATOM     11  N   UNL     1       7.738   5.573  14.787  0.00  0.00    +0.000 NA
ATOM     12  N   UNL     1       7.172   5.457  15.981  0.00  0.00    +0.000 NA
ATOM     13  H   UNL     1       7.232   4.907  12.935  0.00  0.00    +0.000 HD
ENDBRANCH   5   8
TORSDOF 1
ENDMDL
MODEL 4
REMARK VINA RESULT:      -5.9      1.119      1.175
REMARK  Name = 
REMARK  1 active torsions:
REMARK  status: ('A' for Active; 'I' for Inactive)
REMARK    1  A    between atoms: C_5  and  C_6
REMARK                            x       y       z     vdW  Elec       q    Type
REMARK                         _______ _______ _______ _____ _____    ______ ____
ROOT
ATOM      1  I   UNL     1       1.880   3.219  20.954  0.00  0.00    +0.000 I 
ATOM      2  C   UNL     1       3.168   3.711  19.400  0.00  0.00    +0.000 A 
ATOM      3  C   UNL     1       4.173   4.653  19.607  0.00  0.00    +0.000 A 
ATOM      4  C   UNL     1       5.042   4.985  18.562  0.00  0.00    +0.000 A 
ATOM      5  C   UNL     1       4.917   4.379  17.302  0.00  0.00    +0.000 A 
ATOM      6  C   UNL     1       3.898   3.432  17.115  0.00  0.00    +0.000 A 
ATOM      7  C   UNL     1       3.027   3.098  18.158  0.00  0.00    +0.000 A 
ENDROOT
BRANCH   5   8
ATOM      8  C   UNL     1       5.810   4.707  16.202  0.00  0.00    +0.000 A 
ATOM      9  C   UNL     1       5.531   4.645  14.855  0.00  0.00    +0.000 A 
ATOM     10  N   UNL     1       6.690   5.050  14.260  0.00  0.00    +0.000 N 
ATOM     11  N   UNL     1       7.631   5.345  15.166  0.00  0.00    +0.000 NA
ATOM     12  N   UNL     1       7.104   5.139  16.365  0.00  0.00    +0.000 NA
ATOM     13  H   UNL     1       6.910   5.148  13.276  0.00  0.00    +0.000 HD
ENDBRANCH   5   8
TORSDOF 1
ENDMDL
MODEL 5
REMARK VINA RESULT:      -5.8      1.404      1.785
REMARK  Name = 
REMARK  1 active torsions:
REMARK  status: ('A' for Active; 'I' for Inactive)
REMARK    1  A    between atoms: C_5  and  C_6
REMARK                            x       y       z     vdW  Elec       q    Type
REMARK                         _______ _______ _______ _____ _____    ______ ____
ROOT
ATOM      1  I   UNL     1       1.484   3.029  20.781  0.00  0.00    +0.000 I 
ATOM      2  C   UNL     1       2.972   3.679  19.486  0.00  0.00    +0.000 A 
ATOM      3  C   UNL     1       3.724   4.806  19.806  0.00  0.00    +0.000 A 
ATOM      4  C   UNL     1       4.727   5.246  18.936  0.00  0.00    +0.000 A 
ATOM      5  C   UNL     1       4.989   4.564  17.737  0.00  0.00    +0.000 A 
ATOM      6  C   UNL     1       4.220   3.429  17.433  0.00  0.00    +0.000 A 
ATOM      7  C   UNL     1       3.216   2.988  18.301  0.00  0.00    +0.000 A 
ENDROOT
BRANCH   5   8
ATOM      8  C   UNL     1       6.028   5.001  16.818  0.00  0.00    +0.000 A 
ATOM      9  C   UNL     1       6.838   6.108  16.940  0.00  0.00    +0.000 A 
ATOM     10  N   UNL     1       7.627   6.063  15.829  0.00  0.00    +0.000 N 
ATOM     11  N   UNL     1       7.336   5.005  15.062  0.00  0.00    +0.000 NA
ATOM     12  N   UNL     1       6.354   4.342  15.658  0.00  0.00    +0.000 NA
ATOM     13  H   UNL     1       8.362   6.695  15.533  0.00  0.00    +0.000 HD
ENDBRANCH   5   8
TORSDOF 1
ENDMDL
MODEL 6
REMARK VINA RESULT:      -5.8      4.881      6.001
REMARK  Name = 
REMARK  1 active torsions:
REMARK  status: ('A' for Active; 'I' for Inactive)
REMARK    1  A    between atoms: C_5  and  C_6
REMARK                            x       y       z     vdW  Elec       q    Type
REMARK                         _______ _______ _______ _____ _____    ______ ____
ROOT
ATOM      1  I   UNL     1       6.479   4.771  15.267  0.00  0.00    +0.000 I 
ATOM      2  C   UNL     1       5.220   4.267  16.841  0.00  0.00    +0.000 A 
ATOM      3  C   UNL     1       5.673   4.381  18.152  0.00  0.00    +0.000 A 
ATOM      4  C   UNL     1       4.827   4.043  19.214  0.00  0.00    +0.000 A 
ATOM      5  C   UNL     1       3.520   3.588  18.976  0.00  0.00    +0.000 A 
ATOM      6  C   UNL     1       3.083   3.480  17.646  0.00  0.00    +0.000 A 
ATOM      7  C   UNL     1       3.927   3.817  16.582  0.00  0.00    +0.000 A 
ENDROOT
BRANCH   5   8
ATOM      8  C   UNL     1       2.623   3.233  20.063  0.00  0.00    +0.000 A 
ATOM      9  C   UNL     1       1.250   3.343  20.081  0.00  0.00    +0.000 A 
ATOM     10  N   UNL     1       0.899   2.884  21.316  0.00  0.00    +0.000 N 
ATOM     11  N   UNL     1       1.971   2.511  22.025  0.00  0.00    +0.000 NA
ATOM     12  N   UNL     1       3.040   2.720  21.267  0.00  0.00    +0.000 NA
ATOM     13  H   UNL     1      -0.020   2.795  21.735  0.00  0.00    +0.000 HD
ENDBRANCH   5   8
TORSDOF 1
ENDMDL
MODEL 7
REMARK VINA RESULT:      -5.7      1.436      2.036
REMARK  Name = 
REMARK  1 active torsions:
REMARK  status: ('A' for Active; 'I' for Inactive)
REMARK    1  A    between atoms: C_5  and  C_6
REMARK                            x       y       z     vdW  Elec       q    Type
REMARK                         _______ _______ _______ _____ _____    ______ ____
ROOT
ATOM      1  I   UNL     1       1.121   3.040  20.262  0.00  0.00    +0.000 I 
ATOM      2  C   UNL     1       2.732   3.823  19.209  0.00  0.00    +0.000 A 
ATOM      3  C   UNL     1       4.027   3.434  19.538  0.00  0.00    +0.000 A 
ATOM      4  C   UNL     1       5.114   3.959  18.830  0.00  0.00    +0.000 A 
ATOM      5  C   UNL     1       4.917   4.877  17.787  0.00  0.00    +0.000 A 
ATOM      6  C   UNL     1       3.602   5.256  17.471  0.00  0.00    +0.000 A 
ATOM      7  C   UNL     1       2.514   4.733  18.178  0.00  0.00    +0.000 A 
ENDROOT
BRANCH   5   8
ATOM      8  C   UNL     1       6.030   5.434  17.036  0.00  0.00    +0.000 A 
ATOM      9  C   UNL     1       6.573   4.950  15.867  0.00  0.00    +0.000 A 
ATOM     10  N   UNL     1       7.580   5.825  15.584  0.00  0.00    +0.000 N 
ATOM     11  N   UNL     1       7.666   6.791  16.507  0.00  0.00    +0.000 NA
ATOM     12  N   UNL     1       6.718   6.564  17.407  0.00  0.00    +0.000 NA
ATOM     13  H   UNL     1       8.230   5.832  14.806  0.00  0.00    +0.000 HD
ENDBRANCH   5   8
TORSDOF 1
ENDMDL
MODEL 8
REMARK VINA RESULT:      -5.7      1.337      1.991
REMARK  Name = 
REMARK  1 active torsions:
REMARK  status: ('A' for Active; 'I' for Inactive)
REMARK    1  A    between atoms: C_5  and  C_6
REMARK                            x       y       z     vdW  Elec       q    Type
REMARK                         _______ _______ _______ _____ _____    ______ ____
ROOT
ATOM      1  I   UNL     1       1.790   3.208  20.978  0.00  0.00    +0.000 I 
ATOM      2  C   UNL     1       3.101   3.634  19.424  0.00  0.00    +0.000 A 
ATOM      3  C   UNL     1       2.780   3.250  18.124  0.00  0.00    +0.000 A 
ATOM      4  C   UNL     1       3.660   3.536  17.075  0.00  0.00    +0.000 A 
ATOM      5  C   UNL     1       4.870   4.208  17.314  0.00  0.00    +0.000 A 
ATOM      6  C   UNL     1       5.174   4.586  18.632  0.00  0.00    +0.000 A 
ATOM      7  C   UNL     1       4.295   4.301  19.683  0.00  0.00    +0.000 A 
ENDROOT
BRANCH   5   8
ATOM      8  C   UNL     1       5.799   4.517  16.240  0.00  0.00    +0.000 A 
ATOM      9  C   UNL     1       6.973   5.231  16.333  0.00  0.00    +0.000 A 
ATOM     10  N   UNL     1       7.459   5.235  15.059  0.00  0.00    +0.000 N 
ATOM     11  N   UNL     1       6.650   4.572  14.223  0.00  0.00    +0.000 NA
ATOM     12  N   UNL     1       5.625   4.124  14.936  0.00  0.00    +0.000 NA
ATOM     13  H   UNL     1       8.306   5.653  14.692  0.00  0.00    +0.000 HD
ENDBRANCH   5   8
TORSDOF 1
ENDMDL
MODEL 9
REMARK VINA RESULT:      -5.7      4.542      5.630
REMARK  Name = 
REMARK  1 active torsions:
REMARK  status: ('A' for Active; 'I' for Inactive)
REMARK    1  A    between atoms: C_5  and  C_6
REMARK                            x       y       z     vdW  Elec       q    Type
REMARK                         _______ _______ _______ _____ _____    ______ ____
ROOT
ATOM      1  I   UNL     1       7.369   6.988  17.626  0.00  0.00    +0.000 I 
ATOM      2  C   UNL     1       5.636   5.927  18.058  0.00  0.00    +0.000 A 
ATOM      3  C   UNL     1       5.696   4.815  18.893  0.00  0.00    +0.000 A 
ATOM      4  C   UNL     1       4.530   4.099  19.186  0.00  0.00    +0.000 A 
ATOM      5  C   UNL     1       3.293   4.487  18.649  0.00  0.00    +0.000 A 
ATOM      6  C   UNL     1       3.254   5.612  17.809  0.00  0.00    +0.000 A 
ATOM      7  C   UNL     1       4.418   6.329  17.514  0.00  0.00    +0.000 A 
ENDROOT
BRANCH   5   8
ATOM      8  C   UNL     1       2.069   3.760  18.941  0.00  0.00    +0.000 A 
ATOM      9  C   UNL     1       1.355   3.768  20.118  0.00  0.00    +0.000 A 
ATOM     10  N   UNL     1       0.305   2.932  19.873  0.00  0.00    +0.000 N 
ATOM     11  N   UNL     1       0.354   2.433  18.632  0.00  0.00    +0.000 NA
ATOM     12  N   UNL     1       1.433   2.934  18.046  0.00  0.00    +0.000 NA
ATOM     13  H   UNL     1      -0.459   2.660  20.480  0.00  0.00    +0.000 HD
ENDBRANCH   5   8
TORSDOF 1
ENDMDL
