MODEL 1
REMARK VINA RESULT:      -7.3      0.000      0.000
REMARK  Name = 
REMARK  6 active torsions:
REMARK  status: ('A' for Active; 'I' for Inactive)
REMARK    1  A    between atoms: S_2  and  C_4
REMARK    2  A    between atoms: S_2  and  N_17
REMARK    3  A    between atoms: C_4  and  C_5
REMARK    4  A    between atoms: C_5  and  N_6
REMARK    5  A    between atoms: N_6  and  C_7
REMARK    6  A    between atoms: C_7  and  C_8
REMARK                            x       y       z     vdW  Elec       q    Type
REMARK                         _______ _______ _______ _____ _____    ______ ____
ROOT
ATOM      1  N   UNL     1       8.073   9.402  17.883  0.00  0.00    +0.000 NA
ATOM      2  H   UNL     1       7.276   9.998  18.134  0.00  0.00    +0.000 HD
ENDROOT
BRANCH   1   3
ATOM      3  C   UNL     1       7.613   8.058  17.539  0.00  0.00    +0.000 C 
BRANCH   3   4
ATOM      4  C   UNL     1       8.094   7.025  18.554  0.00  0.00    +0.000 C 
BRANCH   4   6
ATOM      5  O   UNL     1       7.963   4.561  17.663  0.00  0.00    +0.000 OA
ATOM      6  S   UNL     1       7.166   5.498  18.433  0.00  0.00    +0.000 S 
ATOM      7  O   UNL     1       6.659   5.132  19.735  0.00  0.00    +0.000 OA
BRANCH   6   8
ATOM      8  N   UNL     1       5.848   5.947  17.463  0.00  0.00    +0.000 NA
ATOM      9  C   UNL     1       4.510   6.084  18.124  0.00  0.00    +0.000 C 
ATOM     10  C   UNL     1       3.793   4.735  18.260  0.00  0.00    +0.000 C 
ATOM     11  O   UNL     1       3.670   4.080  16.990  0.00  0.00    +0.000 OA
ATOM     12  C   UNL     1       4.962   3.855  16.407  0.00  0.00    +0.000 C 
ATOM     13  C   UNL     1       5.704   5.175  16.184  0.00  0.00    +0.000 C 
ENDBRANCH   6   8
ENDBRANCH   4   6
ENDBRANCH   3   4
ENDBRANCH   1   3
BRANCH   1  14
ATOM     14  C   UNL     1       9.011   9.410  19.003  0.00  0.00    +0.000 C 
BRANCH  14  15
ATOM     15  C   UNL     1       9.685  10.764  19.074  0.00  0.00    +0.000 A 
ATOM     16  C   UNL     1       9.902  11.373  20.329  0.00  0.00    +0.000 A 
ATOM     17  C   UNL     1      10.592  12.585  20.430  0.00  0.00    +0.000 A 
ATOM     18  C   UNL     1      11.068  13.151  19.269  0.00  0.00    +0.000 A 
ATOM     19  C   UNL     1      10.867  12.568  18.029  0.00  0.00    +0.000 A 
ATOM     20  C   UNL     1      10.172  11.377  17.907  0.00  0.00    +0.000 A 
ATOM     21  C   UNL     1      11.450  13.440  16.985  0.00  0.00    +0.000 C 
ATOM     22  C   UNL     1      12.328  14.319  17.878  0.00  0.00    +0.000 C 
ATOM     23  O   UNL     1      11.777  14.325  19.216  0.00  0.00    +0.000 OA
ENDBRANCH  14  15
ENDBRANCH   1  14
TORSDOF 6
ENDMDL
MODEL 2
REMARK VINA RESULT:      -7.2      5.390      8.206
REMARK  Name = 
REMARK  6 active torsions:
REMARK  status: ('A' for Active; 'I' for Inactive)
REMARK    1  A    between atoms: S_2  and  C_4
REMARK    2  A    between atoms: S_2  and  N_17
REMARK    3  A    between atoms: C_4  and  C_5
REMARK    4  A    between atoms: C_5  and  N_6
REMARK    5  A    between atoms: N_6  and  C_7
REMARK    6  A    between atoms: C_7  and  C_8
REMARK                            x       y       z     vdW  Elec       q    Type
REMARK                         _______ _______ _______ _____ _____    ______ ____
ROOT
ATOM      1  N   UNL     1       2.652   6.482  20.103  0.00  0.00    +0.000 NA
ATOM      2  H   UNL     1       3.670   6.502  20.230  0.00  0.00    +0.000 HD
ENDROOT
BRANCH   1   3
ATOM      3  C   UNL     1       2.223   5.160  19.649  0.00  0.00    +0.000 C 
BRANCH   3   4
ATOM      4  C   UNL     1       2.527   4.952  18.167  0.00  0.00    +0.000 C 
BRANCH   4   6
ATOM      5  O   UNL     1       5.014   4.833  18.993  0.00  0.00    +0.000 OA
ATOM      6  S   UNL     1       4.186   4.327  17.915  0.00  0.00    +0.000 S 
ATOM      7  O   UNL     1       4.135   2.911  17.633  0.00  0.00    +0.000 OA
BRANCH   6   8
ATOM      8  N   UNL     1       4.667   5.127  16.498  0.00  0.00    +0.000 NA
ATOM      9  C   UNL     1       5.660   4.440  15.611  0.00  0.00    +0.000 C 
ATOM     10  C   UNL     1       7.103   4.663  16.080  0.00  0.00    +0.000 C 
ATOM     11  O   UNL     1       7.404   6.061  16.195  0.00  0.00    +0.000 OA
ATOM     12  C   UNL     1       6.516   6.696  17.127  0.00  0.00    +0.000 C 
ATOM     13  C   UNL     1       5.058   6.564  16.678  0.00  0.00    +0.000 C 
ENDBRANCH   6   8
ENDBRANCH   4   6
ENDBRANCH   3   4
ENDBRANCH   1   3
BRANCH   1  14
ATOM     14  C   UNL     1       2.294   7.546  19.168  0.00  0.00    +0.000 C 
BRANCH  14  15
ATOM     15  C   UNL     1       1.526   8.619  19.911  0.00  0.00    +0.000 A 
ATOM     16  C   UNL     1       1.038   9.743  19.210  0.00  0.00    +0.000 A 
ATOM     17  C   UNL     1       0.259  10.709  19.855  0.00  0.00    +0.000 A 
ATOM     18  C   UNL     1      -0.033  10.515  21.186  0.00  0.00    +0.000 A 
ATOM     19  C   UNL     1       0.435   9.418  21.890  0.00  0.00    +0.000 A 
ATOM     20  C   UNL     1       1.222   8.459  21.274  0.00  0.00    +0.000 A 
ATOM     21  C   UNL     1      -0.003   9.525  23.299  0.00  0.00    +0.000 C 
ATOM     22  C   UNL     1      -1.090  10.587  23.125  0.00  0.00    +0.000 C 
ATOM     23  O   UNL     1      -0.799  11.366  21.942  0.00  0.00    +0.000 OA
ENDBRANCH  14  15
ENDBRANCH   1  14
TORSDOF 6
ENDMDL
MODEL 3
REMARK VINA RESULT:      -7.1      6.267      8.210
REMARK  Name = 
REMARK  6 active torsions:
REMARK  status: ('A' for Active; 'I' for Inactive)
REMARK    1  A    between atoms: S_2  and  C_4
REMARK    2  A    between atoms: S_2  and  N_17
REMARK    3  A    between atoms: C_4  and  C_5
REMARK    4  A    between atoms: C_5  and  N_6
REMARK    5  A    between atoms: N_6  and  C_7
REMARK    6  A    between atoms: C_7  and  C_8
REMARK                            x       y       z     vdW  Elec       q    Type
REMARK                         _______ _______ _______ _____ _____    ______ ____
ROOT
ATOM      1  N   UNL     1       2.444   6.178  20.119  0.00  0.00    +0.000 NA
ATOM      2  H   UNL     1       3.406   6.115  20.469  0.00  0.00    +0.000 HD
ENDROOT
BRANCH   1   3
ATOM      3  C   UNL     1       2.065   4.934  19.452  0.00  0.00    +0.000 C 
BRANCH   3   4
ATOM      4  C   UNL     1       2.795   3.733  20.048  0.00  0.00    +0.000 C 
BRANCH   4   6
ATOM      5  O   UNL     1       5.255   2.839  19.875  0.00  0.00    +0.000 OA
ATOM      6  S   UNL     1       4.151   3.201  19.007  0.00  0.00    +0.000 S 
ATOM      7  O   UNL     1       3.665   2.272  18.013  0.00  0.00    +0.000 OA
BRANCH   6   8
ATOM      8  N   UNL     1       4.589   4.636  18.214  0.00  0.00    +0.000 NA
ATOM      9  C   UNL     1       4.550   4.646  16.717  0.00  0.00    +0.000 C 
ATOM     10  C   UNL     1       5.828   4.062  16.102  0.00  0.00    +0.000 C 
ATOM     11  O   UNL     1       6.996   4.739  16.586  0.00  0.00    +0.000 OA
ATOM     12  C   UNL     1       7.087   4.636  18.015  0.00  0.00    +0.000 C 
ATOM     13  C   UNL     1       5.865   5.265  18.692  0.00  0.00    +0.000 C 
ENDBRANCH   6   8
ENDBRANCH   4   6
ENDBRANCH   3   4
ENDBRANCH   1   3
BRANCH   1  14
ATOM     14  C   UNL     1       2.361   7.340  19.239  0.00  0.00    +0.000 C 
BRANCH  14  15
ATOM     15  C   UNL     1       1.588   8.437  19.940  0.00  0.00    +0.000 A 
ATOM     16  C   UNL     1       1.086   9.527  19.197  0.00  0.00    +0.000 A 
ATOM     17  C   UNL     1       0.303  10.513  19.805  0.00  0.00    +0.000 A 
ATOM     18  C   UNL     1       0.021  10.373  21.145  0.00  0.00    +0.000 A 
ATOM     19  C   UNL     1       0.503   9.310  21.891  0.00  0.00    +0.000 A 
ATOM     20  C   UNL     1       1.294   8.333  21.311  0.00  0.00    +0.000 A 
ATOM     21  C   UNL     1       0.072   9.474  23.298  0.00  0.00    +0.000 C 
ATOM     22  C   UNL     1      -1.025  10.518  23.086  0.00  0.00    +0.000 C 
ATOM     23  O   UNL     1      -0.748  11.249  21.869  0.00  0.00    +0.000 OA
ENDBRANCH  14  15
ENDBRANCH   1  14
TORSDOF 6
ENDMDL
MODEL 4
REMARK VINA RESULT:      -7.1      6.642      7.699
REMARK  Name = 
REMARK  6 active torsions:
REMARK  status: ('A' for Active; 'I' for Inactive)
REMARK    1  A    between atoms: S_2  and  C_4
REMARK    2  A    between atoms: S_2  and  N_17
REMARK    3  A    between atoms: C_4  and  C_5
REMARK    4  A    between atoms: C_5  and  N_6
REMARK    5  A    between atoms: N_6  and  C_7
REMARK    6  A    between atoms: C_7  and  C_8
REMARK                            x       y       z     vdW  Elec       q    Type
REMARK                         _______ _______ _______ _____ _____    ______ ____
ROOT
ATOM      1  N   UNL     1       4.594   6.095  18.355  0.00  0.00    +0.000 NA
ATOM      2  H   UNL     1       5.142   6.850  18.783  0.00  0.00    +0.000 HD
ENDROOT
BRANCH   1   3
ATOM      3  C   UNL     1       5.477   5.149  17.676  0.00  0.00    +0.000 C 
BRANCH   3   4
ATOM      4  C   UNL     1       4.733   3.878  17.275  0.00  0.00    +0.000 C 
BRANCH   4   6
ATOM      5  O   UNL     1       3.640   1.699  18.243  0.00  0.00    +0.000 OA
ATOM      6  S   UNL     1       4.150   2.975  18.707  0.00  0.00    +0.000 S 
ATOM      7  O   UNL     1       5.143   3.030  19.755  0.00  0.00    +0.000 OA
BRANCH   6   8
ATOM      8  N   UNL     1       2.813   3.897  19.201  0.00  0.00    +0.000 NA
ATOM      9  C   UNL     1       2.455   3.883  20.656  0.00  0.00    +0.000 C 
ATOM     10  C   UNL     1       1.598   2.667  21.028  0.00  0.00    +0.000 C 
ATOM     11  O   UNL     1       0.420   2.590  20.212  0.00  0.00    +0.000 OA
ATOM     12  C   UNL     1       0.770   2.497  18.823  0.00  0.00    +0.000 C 
ATOM     13  C   UNL     1       1.574   3.720  18.373  0.00  0.00    +0.000 C 
ENDBRANCH   6   8
ENDBRANCH   4   6
ENDBRANCH   3   4
ENDBRANCH   1   3
BRANCH   1  14
ATOM     14  C   UNL     1       3.617   6.703  17.455  0.00  0.00    +0.000 C 
BRANCH  14  15
ATOM     15  C   UNL     1       2.763   7.677  18.238  0.00  0.00    +0.000 A 
ATOM     16  C   UNL     1       2.279   8.846  17.612  0.00  0.00    +0.000 A 
ATOM     17  C   UNL     1       1.424   9.722  18.287  0.00  0.00    +0.000 A 
ATOM     18  C   UNL     1       1.054   9.396  19.572  0.00  0.00    +0.000 A 
ATOM     19  C   UNL     1       1.517   8.254  20.203  0.00  0.00    +0.000 A 
ATOM     20  C   UNL     1       2.378   7.382  19.558  0.00  0.00    +0.000 A 
ATOM     21  C   UNL     1       0.984   8.215  21.584  0.00  0.00    +0.000 C 
ATOM     22  C   UNL     1      -0.129   9.253  21.433  0.00  0.00    +0.000 C 
ATOM     23  O   UNL     1       0.208  10.149  20.348  0.00  0.00    +0.000 OA
ENDBRANCH  14  15
ENDBRANCH   1  14
TORSDOF 6
ENDMDL
MODEL 5
REMARK VINA RESULT:      -6.9      1.160      1.547
REMARK  Name = 
REMARK  6 active torsions:
REMARK  status: ('A' for Active; 'I' for Inactive)
REMARK    1  A    between atoms: S_2  and  C_4
REMARK    2  A    between atoms: S_2  and  N_17
REMARK    3  A    between atoms: C_4  and  C_5
REMARK    4  A    between atoms: C_5  and  N_6
REMARK    5  A    between atoms: N_6  and  C_7
REMARK    6  A    between atoms: C_7  and  C_8
REMARK                            x       y       z     vdW  Elec       q    Type
REMARK                         _______ _______ _______ _____ _____    ______ ____
ROOT
ATOM      1  N   UNL     1       7.739   8.990  17.679  0.00  0.00    +0.000 NA
ATOM      2  H   UNL     1       6.970   9.580  18.014  0.00  0.00    +0.000 HD
ENDROOT
BRANCH   1   3
ATOM      3  C   UNL     1       7.229   7.692  17.237  0.00  0.00    +0.000 C 
BRANCH   3   4
ATOM      4  C   UNL     1       7.565   6.589  18.237  0.00  0.00    +0.000 C 
BRANCH   4   6
ATOM      5  O   UNL     1       6.672   5.145  16.238  0.00  0.00    +0.000 OA
ATOM      6  S   UNL     1       7.216   4.964  17.570  0.00  0.00    +0.000 S 
ATOM      7  O   UNL     1       8.350   4.095  17.787  0.00  0.00    +0.000 OA
BRANCH   6   8
ATOM      8  N   UNL     1       5.947   4.428  18.560  0.00  0.00    +0.000 NA
ATOM      9  C   UNL     1       5.010   3.402  17.999  0.00  0.00    +0.000 C 
ATOM     10  C   UNL     1       3.908   4.036  17.140  0.00  0.00    +0.000 C 
ATOM     11  O   UNL     1       3.189   5.038  17.872  0.00  0.00    +0.000 OA
ATOM     12  C   UNL     1       4.075   6.075  18.318  0.00  0.00    +0.000 C 
ATOM     13  C   UNL     1       5.163   5.513  19.237  0.00  0.00    +0.000 C 
ENDBRANCH   6   8
ENDBRANCH   4   6
ENDBRANCH   3   4
ENDBRANCH   1   3
BRANCH   1  14
ATOM     14  C   UNL     1       8.720   8.875  18.755  0.00  0.00    +0.000 C 
BRANCH  14  15
ATOM     15  C   UNL     1       9.335  10.235  19.011  0.00  0.00    +0.000 A 
ATOM     16  C   UNL     1       9.489  10.697  20.336  0.00  0.00    +0.000 A 
ATOM     17  C   UNL     1      10.125  11.913  20.604  0.00  0.00    +0.000 A 
ATOM     18  C   UNL     1      10.612  12.632  19.536  0.00  0.00    +0.000 A 
ATOM     19  C   UNL     1      10.472  12.195  18.229  0.00  0.00    +0.000 A 
ATOM     20  C   UNL     1       9.830  11.002  17.942  0.00  0.00    +0.000 A 
ATOM     21  C   UNL     1      11.049  13.208  17.317  0.00  0.00    +0.000 C 
ATOM     22  C   UNL     1      11.863  14.005  18.337  0.00  0.00    +0.000 C 
ATOM     23  O   UNL     1      11.273  13.829  19.647  0.00  0.00    +0.000 OA
ENDBRANCH  14  15
ENDBRANCH   1  14
TORSDOF 6
ENDMDL
MODEL 6
REMARK VINA RESULT:      -6.8      5.936      7.859
REMARK  Name = 
REMARK  6 active torsions:
REMARK  status: ('A' for Active; 'I' for Inactive)
REMARK    1  A    between atoms: S_2  and  C_4
REMARK    2  A    between atoms: S_2  and  N_17
REMARK    3  A    between atoms: C_4  and  C_5
REMARK    4  A    between atoms: C_5  and  N_6
REMARK    5  A    between atoms: N_6  and  C_7
REMARK    6  A    between atoms: C_7  and  C_8
REMARK                            x       y       z     vdW  Elec       q    Type
REMARK                         _______ _______ _______ _____ _____    ______ ____
ROOT
ATOM      1  N   UNL     1       2.154   6.218  18.043  0.00  0.00    +0.000 NA
ATOM      2  H   UNL     1       1.248   6.626  17.789  0.00  0.00    +0.000 HD
ENDROOT
BRANCH   1   3
ATOM      3  C   UNL     1       1.970   4.882  18.608  0.00  0.00    +0.000 C 
BRANCH   3   4
ATOM      4  C   UNL     1       3.118   4.505  19.540  0.00  0.00    +0.000 C 
BRANCH   4   6
ATOM      5  O   UNL     1       5.420   3.250  19.629  0.00  0.00    +0.000 OA
ATOM      6  S   UNL     1       4.464   3.729  18.649  0.00  0.00    +0.000 S 
ATOM      7  O   UNL     1       3.932   2.836  17.646  0.00  0.00    +0.000 OA
BRANCH   6   8
ATOM      8  N   UNL     1       5.182   5.045  17.852  0.00  0.00    +0.000 NA
ATOM      9  C   UNL     1       5.186   5.037  16.354  0.00  0.00    +0.000 C 
ATOM     10  C   UNL     1       6.349   4.215  15.784  0.00  0.00    +0.000 C 
ATOM     11  O   UNL     1       7.609   4.672  16.295  0.00  0.00    +0.000 OA
ATOM     12  C   UNL     1       7.641   4.579  17.727  0.00  0.00    +0.000 C 
ATOM     13  C   UNL     1       6.540   5.434  18.359  0.00  0.00    +0.000 C 
ENDBRANCH   6   8
ENDBRANCH   4   6
ENDBRANCH   3   4
ENDBRANCH   1   3
BRANCH   1  14
ATOM     14  C   UNL     1       2.817   7.136  18.966  0.00  0.00    +0.000 C 
BRANCH  14  15
ATOM     15  C   UNL     1       1.788   8.082  19.548  0.00  0.00    +0.000 A 
ATOM     16  C   UNL     1       1.345   7.905  20.877  0.00  0.00    +0.000 A 
ATOM     17  C   UNL     1       0.456   8.809  21.465  0.00  0.00    +0.000 A 
ATOM     18  C   UNL     1       0.045   9.886  20.713  0.00  0.00    +0.000 A 
ATOM     19  C   UNL     1       0.469  10.078  19.408  0.00  0.00    +0.000 A 
ATOM     20  C   UNL     1       1.337   9.185  18.803  0.00  0.00    +0.000 A 
ATOM     21  C   UNL     1      -0.186  11.287  18.860  0.00  0.00    +0.000 C 
ATOM     22  C   UNL     1      -0.665  11.909  20.173  0.00  0.00    +0.000 C 
ATOM     23  O   UNL     1      -0.808  10.863  21.162  0.00  0.00    +0.000 OA
ENDBRANCH  14  15
ENDBRANCH   1  14
TORSDOF 6
ENDMDL
MODEL 7
REMARK VINA RESULT:      -6.7      5.543      7.735
REMARK  Name = 
REMARK  6 active torsions:
REMARK  status: ('A' for Active; 'I' for Inactive)
REMARK    1  A    between atoms: S_2  and  C_4
REMARK    2  A    between atoms: S_2  and  N_17
REMARK    3  A    between atoms: C_4  and  C_5
REMARK    4  A    between atoms: C_5  and  N_6
REMARK    5  A    between atoms: N_6  and  C_7
REMARK    6  A    between atoms: C_7  and  C_8
REMARK                            x       y       z     vdW  Elec       q    Type
REMARK                         _______ _______ _______ _____ _____    ______ ____
ROOT
ATOM      1  N   UNL     1       2.050   4.907  19.588  0.00  0.00    +0.000 NA
ATOM      2  H   UNL     1       1.107   4.722  19.228  0.00  0.00    +0.000 HD
ENDROOT
BRANCH   1   3
ATOM      3  C   UNL     1       2.720   3.652  19.924  0.00  0.00    +0.000 C 
BRANCH   3   4
ATOM      4  C   UNL     1       3.801   3.304  18.904  0.00  0.00    +0.000 C 
BRANCH   4   6
ATOM      5  O   UNL     1       3.736   5.338  17.249  0.00  0.00    +0.000 OA
ATOM      6  S   UNL     1       4.603   4.772  18.265  0.00  0.00    +0.000 S 
ATOM      7  O   UNL     1       5.075   5.585  19.362  0.00  0.00    +0.000 OA
BRANCH   6   8
ATOM      8  N   UNL     1       5.957   4.131  17.467  0.00  0.00    +0.000 NA
ATOM      9  C   UNL     1       7.283   4.785  17.707  0.00  0.00    +0.000 C 
ATOM     10  C   UNL     1       7.491   6.014  16.813  0.00  0.00    +0.000 C 
ATOM     11  O   UNL     1       7.329   5.683  15.427  0.00  0.00    +0.000 OA
ATOM     12  C   UNL     1       6.017   5.155  15.181  0.00  0.00    +0.000 C 
ATOM     13  C   UNL     1       5.773   3.884  15.998  0.00  0.00    +0.000 C 
ENDBRANCH   6   8
ENDBRANCH   4   6
ENDBRANCH   3   4
ENDBRANCH   1   3
BRANCH   1  14
ATOM     14  C   UNL     1       1.926   5.806  20.732  0.00  0.00    +0.000 C 
BRANCH  14  15
ATOM     15  C   UNL     1       1.722   7.220  20.230  0.00  0.00    +0.000 A 
ATOM     16  C   UNL     1       2.133   7.566  18.924  0.00  0.00    +0.000 A 
ATOM     17  C   UNL     1       1.886   8.842  18.407  0.00  0.00    +0.000 A 
ATOM     18  C   UNL     1       1.212   9.738  19.205  0.00  0.00    +0.000 A 
ATOM     19  C   UNL     1       0.799   9.417  20.488  0.00  0.00    +0.000 A 
ATOM     20  C   UNL     1       1.050   8.165  21.024  0.00  0.00    +0.000 A 
ATOM     21  C   UNL     1       0.155  10.602  21.099  0.00  0.00    +0.000 C 
ATOM     22  C   UNL     1      -0.077  11.422  19.829  0.00  0.00    +0.000 C 
ATOM     23  O   UNL     1       0.883  11.016  18.826  0.00  0.00    +0.000 OA
ENDBRANCH  14  15
ENDBRANCH   1  14
TORSDOF 6
ENDMDL
MODEL 8
REMARK VINA RESULT:      -6.7      6.484      8.108
REMARK  Name = 
REMARK  6 active torsions:
REMARK  status: ('A' for Active; 'I' for Inactive)
REMARK    1  A    between atoms: S_2  and  C_4
REMARK    2  A    between atoms: S_2  and  N_17
REMARK    3  A    between atoms: C_4  and  C_5
REMARK    4  A    between atoms: C_5  and  N_6
REMARK    5  A    between atoms: N_6  and  C_7
REMARK    6  A    between atoms: C_7  and  C_8
REMARK                            x       y       z     vdW  Elec       q    Type
REMARK                         _______ _______ _______ _____ _____    ______ ____
ROOT
ATOM      1  N   UNL     1       2.214   7.530  18.274  0.00  0.00    +0.000 NA
ATOM      2  H   UNL     1       2.179   7.231  19.255  0.00  0.00    +0.000 HD
ENDROOT
BRANCH   1   3
ATOM      3  C   UNL     1       3.582   7.438  17.765  0.00  0.00    +0.000 C 
BRANCH   3   4
ATOM      4  C   UNL     1       3.994   5.987  17.528  0.00  0.00    +0.000 C 
BRANCH   4   6
ATOM      5  O   UNL     1       5.777   5.332  19.336  0.00  0.00    +0.000 OA
ATOM      6  S   UNL     1       4.364   5.146  19.065  0.00  0.00    +0.000 S 
ATOM      7  O   UNL     1       3.375   5.491  20.059  0.00  0.00    +0.000 OA
BRANCH   6   8
ATOM      8  N   UNL     1       4.146   3.515  18.651  0.00  0.00    +0.000 NA
ATOM      9  C   UNL     1       3.093   3.187  17.637  0.00  0.00    +0.000 C 
ATOM     10  C   UNL     1       1.698   3.087  18.265  0.00  0.00    +0.000 C 
ATOM     11  O   UNL     1       1.678   2.142  19.344  0.00  0.00    +0.000 OA
ATOM     12  C   UNL     1       2.615   2.517  20.365  0.00  0.00    +0.000 C 
ATOM     13  C   UNL     1       4.042   2.570  19.812  0.00  0.00    +0.000 C 
ENDBRANCH   6   8
ENDBRANCH   4   6
ENDBRANCH   3   4
ENDBRANCH   1   3
BRANCH   1  14
ATOM     14  C   UNL     1       1.672   8.884  18.196  0.00  0.00    +0.000 C 
BRANCH  14  15
ATOM     15  C   UNL     1       1.080   9.257  19.539  0.00  0.00    +0.000 A 
ATOM     16  C   UNL     1       1.495   8.574  20.702  0.00  0.00    +0.000 A 
ATOM     17  C   UNL     1       1.024   8.952  21.964  0.00  0.00    +0.000 A 
ATOM     18  C   UNL     1       0.161  10.021  22.034  0.00  0.00    +0.000 A 
ATOM     19  C   UNL     1      -0.257  10.706  20.904  0.00  0.00    +0.000 A 
ATOM     20  C   UNL     1       0.185  10.337  19.644  0.00  0.00    +0.000 A 
ATOM     21  C   UNL     1      -1.214  11.760  21.304  0.00  0.00    +0.000 C 
ATOM     22  C   UNL     1      -0.910  11.795  22.803  0.00  0.00    +0.000 C 
ATOM     23  O   UNL     1      -0.366  10.515  23.201  0.00  0.00    +0.000 OA
ENDBRANCH  14  15
ENDBRANCH   1  14
TORSDOF 6
ENDMDL
MODEL 9
REMARK VINA RESULT:      -6.6      5.899      8.218
REMARK  Name = 
REMARK  6 active torsions:
REMARK  status: ('A' for Active; 'I' for Inactive)
REMARK    1  A    between atoms: S_2  and  C_4
REMARK    2  A    between atoms: S_2  and  N_17
REMARK    3  A    between atoms: C_4  and  C_5
REMARK    4  A    between atoms: C_5  and  N_6
REMARK    5  A    between atoms: N_6  and  C_7
REMARK    6  A    between atoms: C_7  and  C_8
REMARK                            x       y       z     vdW  Elec       q    Type
REMARK                         _______ _______ _______ _____ _____    ______ ____
ROOT
ATOM      1  N   UNL     1       1.972   6.726  19.845  0.00  0.00    +0.000 NA
ATOM      2  H   UNL     1       1.846   6.692  20.862  0.00  0.00    +0.000 HD
ENDROOT
BRANCH   1   3
ATOM      3  C   UNL     1       3.237   6.096  19.469  0.00  0.00    +0.000 C 
BRANCH   3   4
ATOM      4  C   UNL     1       3.128   4.573  19.481  0.00  0.00    +0.000 C 
BRANCH   4   6
ATOM      5  O   UNL     1       5.437   3.338  19.637  0.00  0.00    +0.000 OA
ATOM      6  S   UNL     1       4.504   3.806  18.629  0.00  0.00    +0.000 S 
ATOM      7  O   UNL     1       4.006   2.905  17.616  0.00  0.00    +0.000 OA
BRANCH   6   8
ATOM      8  N   UNL     1       5.232   5.125  17.848  0.00  0.00    +0.000 NA
ATOM      9  C   UNL     1       5.156   5.179  16.353  0.00  0.00    +0.000 C 
ATOM     10  C   UNL     1       6.253   4.338  15.689  0.00  0.00    +0.000 C 
ATOM     11  O   UNL     1       7.556   4.724  16.148  0.00  0.00    +0.000 OA
ATOM     12  C   UNL     1       7.659   4.570  17.571  0.00  0.00    +0.000 C 
ATOM     13  C   UNL     1       6.629   5.440  18.296  0.00  0.00    +0.000 C 
ENDBRANCH   6   8
ENDBRANCH   4   6
ENDBRANCH   3   4
ENDBRANCH   1   3
BRANCH   1  14
ATOM     14  C   UNL     1       1.891   8.124  19.428  0.00  0.00    +0.000 C 
BRANCH  14  15
ATOM     15  C   UNL     1       1.095   8.901  20.455  0.00  0.00    +0.000 A 
ATOM     16  C   UNL     1       1.208   8.574  21.823  0.00  0.00    +0.000 A 
ATOM     17  C   UNL     1       0.545   9.325  22.799  0.00  0.00    +0.000 A 
ATOM     18  C   UNL     1      -0.201  10.404  22.382  0.00  0.00    +0.000 A 
ATOM     19  C   UNL     1      -0.322  10.742  21.044  0.00  0.00    +0.000 A 
ATOM     20  C   UNL     1       0.312  10.001  20.062  0.00  0.00    +0.000 A 
ATOM     21  C   UNL     1      -1.226  11.908  20.921  0.00  0.00    +0.000 C 
ATOM     22  C   UNL     1      -1.212  12.369  22.379  0.00  0.00    +0.000 C 
ATOM     23  O   UNL     1      -0.888  11.241  23.225  0.00  0.00    +0.000 OA
ENDBRANCH  14  15
ENDBRANCH   1  14
TORSDOF 6
ENDMDL
