MODEL 1
REMARK VINA RESULT:      -7.0      0.000      0.000
REMARK  Name = 
REMARK  13 active torsions:
REMARK  status: ('A' for Active; 'I' for Inactive)
REMARK    1  A    between atoms: C_1  and  C_2
REMARK    2  A    between atoms: C_2  and  C_3
REMARK    3  A    between atoms: C_3  and  C_4
REMARK    4  A    between atoms: C_3  and  C_14
REMARK    5  A    between atoms: C_4  and  S_6
REMARK    6  A    between atoms: S_6  and  C_7
REMARK    7  A    between atoms: C_7  and  C_8
REMARK    8  A    between atoms: C_8  and  N_9
REMARK    9  A    between atoms: N_9  and  C_10
REMARK   10  A    between atoms: N_9  and  C_12
REMARK   11  A    between atoms: C_10  and  C_11
REMARK   12  A    between atoms: C_12  and  C_13
REMARK   13  A    between atoms: C_17  and  C_18
REMARK                            x       y       z     vdW  Elec       q    Type
REMARK                         _______ _______ _______ _____ _____    ______ ____
ROOT
ATOM      1  C   UNL     1       2.660   5.472  20.153  0.00  0.00    +0.000 C 
ENDROOT
BRANCH   1   2
ATOM      2  C   UNL     1       2.154   6.879  19.840  0.00  0.00    +0.000 A 
ATOM      3  C   UNL     1       1.475   7.615  20.818  0.00  0.00    +0.000 A 
ATOM      4  C   UNL     1       0.981   8.894  20.533  0.00  0.00    +0.000 A 
ATOM      5  C   UNL     1       1.161   9.493  19.272  0.00  0.00    +0.000 A 
ATOM      6  C   UNL     1       1.850   8.744  18.308  0.00  0.00    +0.000 A 
ATOM      7  C   UNL     1       2.321   7.455  18.574  0.00  0.00    +0.000 A 
BRANCH   5   8
ATOM      8  C   UNL     1       0.639  10.847  18.969  0.00  0.00    +0.000 A 
ATOM      9  C   UNL     1      -0.727  11.066  18.702  0.00  0.00    +0.000 A 
ATOM     10  C   UNL     1      -1.220  12.336  18.399  0.00  0.00    +0.000 A 
ATOM     11  C   UNL     1      -0.362  13.430  18.363  0.00  0.00    +0.000 A 
ATOM     12  C   UNL     1       0.996  13.250  18.632  0.00  0.00    +0.000 A 
ATOM     13  C   UNL     1       1.486  11.972  18.924  0.00  0.00    +0.000 A 
ENDBRANCH   5   8
ENDBRANCH   1   2
BRANCH   1  15
ATOM     14  C   UNL     1       1.384   3.478  21.201  0.00  0.00    +0.000 C 
ATOM     15  C   UNL     1       1.458   4.503  20.075  0.00  0.00    +0.000 C 
ENDBRANCH   1  15
BRANCH   1  16
ATOM     16  C   UNL     1       3.823   5.054  19.244  0.00  0.00    +0.000 C 
ATOM     17  O   UNL     1       4.992   5.376  19.429  0.00  0.00    +0.000 OA
BRANCH  16  18
ATOM     18  S   UNL     1       3.376   4.037  17.857  0.00  0.00    +0.000 S 
BRANCH  18  19
ATOM     19  C   UNL     1       5.018   3.922  17.067  0.00  0.00    +0.000 C 
BRANCH  19  20
ATOM     20  C   UNL     1       5.049   4.687  15.734  0.00  0.00    +0.000 C 
BRANCH  20  21
ATOM     21  N   UNL     1       6.276   5.492  15.503  0.00  0.00    +0.000 NA
BRANCH  21  22
ATOM     22  C   UNL     1       7.114   5.653  16.702  0.00  0.00    +0.000 C 
ATOM     23  C   UNL     1       7.186   7.060  17.288  0.00  0.00    +0.000 C 
ENDBRANCH  21  22
BRANCH  21  24
ATOM     24  C   UNL     1       7.002   4.943  14.341  0.00  0.00    +0.000 C 
ATOM     25  C   UNL     1       6.252   3.864  13.566  0.00  0.00    +0.000 C 
ENDBRANCH  21  24
ENDBRANCH  20  21
ENDBRANCH  19  20
ENDBRANCH  18  19
ENDBRANCH  16  18
ENDBRANCH   1  16
TORSDOF 10
ENDMDL
MODEL 2
REMARK VINA RESULT:      -7.0      4.510      7.254
REMARK  Name = 
REMARK  13 active torsions:
REMARK  status: ('A' for Active; 'I' for Inactive)
REMARK    1  A    between atoms: C_1  and  C_2
REMARK    2  A    between atoms: C_2  and  C_3
REMARK    3  A    between atoms: C_3  and  C_4
REMARK    4  A    between atoms: C_3  and  C_14
REMARK    5  A    between atoms: C_4  and  S_6
REMARK    6  A    between atoms: S_6  and  C_7
REMARK    7  A    between atoms: C_7  and  C_8
REMARK    8  A    between atoms: C_8  and  N_9
REMARK    9  A    between atoms: N_9  and  C_10
REMARK   10  A    between atoms: N_9  and  C_12
REMARK   11  A    between atoms: C_10  and  C_11
REMARK   12  A    between atoms: C_12  and  C_13
REMARK   13  A    between atoms: C_17  and  C_18
REMARK                            x       y       z     vdW  Elec       q    Type
REMARK                         _______ _______ _______ _____ _____    ______ ____
ROOT
ATOM      1  C   UNL     1       6.105   5.496  17.395  0.00  0.00    +0.000 C 
ENDROOT
BRANCH   1   2
ATOM      2  C   UNL     1       6.935   6.717  17.788  0.00  0.00    +0.000 A 
ATOM      3  C   UNL     1       6.725   7.945  17.150  0.00  0.00    +0.000 A 
ATOM      4  C   UNL     1       7.501   9.062  17.482  0.00  0.00    +0.000 A 
ATOM      5  C   UNL     1       8.501   9.003  18.472  0.00  0.00    +0.000 A 
ATOM      6  C   UNL     1       8.692   7.766  19.105  0.00  0.00    +0.000 A 
ATOM      7  C   UNL     1       7.942   6.638  18.760  0.00  0.00    +0.000 A 
BRANCH   5   8
ATOM      8  C   UNL     1       9.322  10.185  18.824  0.00  0.00    +0.000 A 
ATOM      9  C   UNL     1       9.493  10.589  20.162  0.00  0.00    +0.000 A 
ATOM     10  C   UNL     1      10.251  11.713  20.497  0.00  0.00    +0.000 A 
ATOM     11  C   UNL     1      10.871  12.462  19.501  0.00  0.00    +0.000 A 
ATOM     12  C   UNL     1      10.729  12.083  18.166  0.00  0.00    +0.000 A 
ATOM     13  C   UNL     1       9.958  10.963  17.836  0.00  0.00    +0.000 A 
ENDBRANCH   5   8
ENDBRANCH   1   2
BRANCH   1  15
ATOM     14  C   UNL     1       7.046   4.695  15.120  0.00  0.00    +0.000 C 
ATOM     15  C   UNL     1       7.026   4.515  16.634  0.00  0.00    +0.000 C 
ENDBRANCH   1  15
BRANCH   1  16
ATOM     16  C   UNL     1       5.410   4.849  18.600  0.00  0.00    +0.000 C 
ATOM     17  O   UNL     1       5.790   3.817  19.142  0.00  0.00    +0.000 OA
BRANCH  16  18
ATOM     18  S   UNL     1       3.973   5.706  19.198  0.00  0.00    +0.000 S 
BRANCH  18  19
ATOM     19  C   UNL     1       2.745   5.015  18.037  0.00  0.00    +0.000 C 
BRANCH  19  20
ATOM     20  C   UNL     1       1.595   4.324  18.789  0.00  0.00    +0.000 C 
BRANCH  20  21
ATOM     21  N   UNL     1       1.740   2.854  18.940  0.00  0.00    +0.000 NA
BRANCH  21  22
ATOM     22  C   UNL     1       2.461   2.212  17.830  0.00  0.00    +0.000 C 
ATOM     23  C   UNL     1       3.681   1.377  18.213  0.00  0.00    +0.000 C 
ENDBRANCH  21  22
BRANCH  21  24
ATOM     24  C   UNL     1       2.311   2.558  20.269  0.00  0.00    +0.000 C 
ATOM     25  C   UNL     1       1.358   2.773  21.440  0.00  0.00    +0.000 C 
ENDBRANCH  21  24
ENDBRANCH  20  21
ENDBRANCH  19  20
ENDBRANCH  18  19
ENDBRANCH  16  18
ENDBRANCH   1  16
TORSDOF 10
ENDMDL
MODEL 3
REMARK VINA RESULT:      -6.8      3.854      8.312
REMARK  Name = 
REMARK  13 active torsions:
REMARK  status: ('A' for Active; 'I' for Inactive)
REMARK    1  A    between atoms: C_1  and  C_2
REMARK    2  A    between atoms: C_2  and  C_3
REMARK    3  A    between atoms: C_3  and  C_4
REMARK    4  A    between atoms: C_3  and  C_14
REMARK    5  A    between atoms: C_4  and  S_6
REMARK    6  A    between atoms: S_6  and  C_7
REMARK    7  A    between atoms: C_7  and  C_8
REMARK    8  A    between atoms: C_8  and  N_9
REMARK    9  A    between atoms: N_9  and  C_10
REMARK   10  A    between atoms: N_9  and  C_12
REMARK   11  A    between atoms: C_10  and  C_11
REMARK   12  A    between atoms: C_12  and  C_13
REMARK   13  A    between atoms: C_17  and  C_18
REMARK                            x       y       z     vdW  Elec       q    Type
REMARK                         _______ _______ _______ _____ _____    ______ ____
ROOT
ATOM      1  C   UNL     1       0.241   9.993  20.751  0.00  0.00    +0.000 C 
ENDROOT
BRANCH   1   2
ATOM      2  C   UNL     1       1.116   9.025  19.958  0.00  0.00    +0.000 A 
ATOM      3  C   UNL     1       1.414   9.285  18.615  0.00  0.00    +0.000 A 
ATOM      4  C   UNL     1       2.191   8.390  17.871  0.00  0.00    +0.000 A 
ATOM      5  C   UNL     1       2.715   7.213  18.439  0.00  0.00    +0.000 A 
ATOM      6  C   UNL     1       2.412   6.972  19.787  0.00  0.00    +0.000 A 
ATOM      7  C   UNL     1       1.613   7.846  20.530  0.00  0.00    +0.000 A 
BRANCH   5   8
ATOM      8  C   UNL     1       3.538   6.264  17.652  0.00  0.00    +0.000 A 
ATOM      9  C   UNL     1       4.576   6.713  16.812  0.00  0.00    +0.000 A 
ATOM     10  C   UNL     1       5.341   5.824  16.055  0.00  0.00    +0.000 A 
ATOM     11  C   UNL     1       5.098   4.457  16.122  0.00  0.00    +0.000 A 
ATOM     12  C   UNL     1       4.083   3.978  16.951  0.00  0.00    +0.000 A 
ATOM     13  C   UNL     1       3.311   4.874  17.699  0.00  0.00    +0.000 A 
ENDBRANCH   5   8
ENDBRANCH   1   2
BRANCH   1  15
ATOM     14  C   UNL     1      -0.640   9.863  23.183  0.00  0.00    +0.000 C 
ATOM     15  C   UNL     1       0.567   9.813  22.252  0.00  0.00    +0.000 C 
ENDBRANCH   1  15
BRANCH   1  16
ATOM     16  C   UNL     1       0.394  11.443  20.277  0.00  0.00    +0.000 C 
ATOM     17  O   UNL     1       1.472  11.990  20.070  0.00  0.00    +0.000 OA
BRANCH  16  18
ATOM     18  S   UNL     1      -1.128  12.326  20.027  0.00  0.00    +0.000 S 
BRANCH  18  19
ATOM     19  C   UNL     1      -1.258  12.133  18.217  0.00  0.00    +0.000 C 
BRANCH  19  20
ATOM     20  C   UNL     1      -1.838  10.759  17.843  0.00  0.00    +0.000 C 
BRANCH  20  21
ATOM     21  N   UNL     1      -3.167  10.799  17.181  0.00  0.00    +0.000 NA
BRANCH  21  22
ATOM     22  C   UNL     1      -4.147  11.653  17.871  0.00  0.00    +0.000 C 
ATOM     23  C   UNL     1      -5.592  11.540  17.393  0.00  0.00    +0.000 C 
ENDBRANCH  21  22
BRANCH  21  24
ATOM     24  C   UNL     1      -2.987  11.135  15.756  0.00  0.00    +0.000 C 
ATOM     25  C   UNL     1      -3.156   9.964  14.793  0.00  0.00    +0.000 C 
ENDBRANCH  21  24
ENDBRANCH  20  21
ENDBRANCH  19  20
ENDBRANCH  18  19
ENDBRANCH  16  18
ENDBRANCH   1  16
TORSDOF 10
ENDMDL
MODEL 4
REMARK VINA RESULT:      -6.7      0.937      2.129
REMARK  Name = 
REMARK  13 active torsions:
REMARK  status: ('A' for Active; 'I' for Inactive)
REMARK    1  A    between atoms: C_1  and  C_2
REMARK    2  A    between atoms: C_2  and  C_3
REMARK    3  A    between atoms: C_3  and  C_4
REMARK    4  A    between atoms: C_3  and  C_14
REMARK    5  A    between atoms: C_4  and  S_6
REMARK    6  A    between atoms: S_6  and  C_7
REMARK    7  A    between atoms: C_7  and  C_8
REMARK    8  A    between atoms: C_8  and  N_9
REMARK    9  A    between atoms: N_9  and  C_10
REMARK   10  A    between atoms: N_9  and  C_12
REMARK   11  A    between atoms: C_10  and  C_11
REMARK   12  A    between atoms: C_12  and  C_13
REMARK   13  A    between atoms: C_17  and  C_18
REMARK                            x       y       z     vdW  Elec       q    Type
REMARK                         _______ _______ _______ _____ _____    ______ ____
ROOT
ATOM      1  C   UNL     1       2.777   5.470  19.974  0.00  0.00    +0.000 C 
ENDROOT
BRANCH   1   2
ATOM      2  C   UNL     1       2.233   6.868  19.684  0.00  0.00    +0.000 A 
ATOM      3  C   UNL     1       2.466   7.470  18.442  0.00  0.00    +0.000 A 
ATOM      4  C   UNL     1       1.997   8.761  18.177  0.00  0.00    +0.000 A 
ATOM      5  C   UNL     1       1.264   9.494  19.131  0.00  0.00    +0.000 A 
ATOM      6  C   UNL     1       1.034   8.872  20.366  0.00  0.00    +0.000 A 
ATOM      7  C   UNL     1       1.523   7.594  20.651  0.00  0.00    +0.000 A 
BRANCH   5   8
ATOM      8  C   UNL     1       0.766  10.862  18.851  0.00  0.00    +0.000 A 
ATOM      9  C   UNL     1      -0.604  11.119  18.647  0.00  0.00    +0.000 A 
ATOM     10  C   UNL     1      -1.074  12.403  18.365  0.00  0.00    +0.000 A 
ATOM     11  C   UNL     1      -0.188  13.472  18.289  0.00  0.00    +0.000 A 
ATOM     12  C   UNL     1       1.175  13.254  18.495  0.00  0.00    +0.000 A 
ATOM     13  C   UNL     1       1.642  11.963  18.765  0.00  0.00    +0.000 A 
ENDBRANCH   5   8
ENDBRANCH   1   2
BRANCH   1  15
ATOM     14  C   UNL     1       1.784   3.519  21.356  0.00  0.00    +0.000 C 
ATOM     15  C   UNL     1       1.576   4.533  20.237  0.00  0.00    +0.000 C 
ENDBRANCH   1  15
BRANCH   1  16
ATOM     16  C   UNL     1       3.700   4.960  18.860  0.00  0.00    +0.000 C 
ATOM     17  O   UNL     1       3.304   4.497  17.796  0.00  0.00    +0.000 OA
BRANCH  16  18
ATOM     18  S   UNL     1       5.440   5.081  19.200  0.00  0.00    +0.000 S 
BRANCH  18  19
ATOM     19  C   UNL     1       6.061   4.133  17.769  0.00  0.00    +0.000 C 
BRANCH  19  20
ATOM     20  C   UNL     1       7.282   4.818  17.135  0.00  0.00    +0.000 C 
BRANCH  20  21
ATOM     21  N   UNL     1       6.961   5.886  16.153  0.00  0.00    +0.000 NA
BRANCH  21  22
ATOM     22  C   UNL     1       5.984   5.477  15.131  0.00  0.00    +0.000 C 
ATOM     23  C   UNL     1       6.455   4.420  14.134  0.00  0.00    +0.000 C 
ENDBRANCH  21  22
BRANCH  21  24
ATOM     24  C   UNL     1       6.581   7.112  16.880  0.00  0.00    +0.000 C 
ATOM     25  C   UNL     1       7.745   7.881  17.497  0.00  0.00    +0.000 C 
ENDBRANCH  21  24
ENDBRANCH  20  21
ENDBRANCH  19  20
ENDBRANCH  18  19
ENDBRANCH  16  18
ENDBRANCH   1  16
TORSDOF 10
ENDMDL
MODEL 5
REMARK VINA RESULT:      -6.7      2.361      4.515
REMARK  Name = 
REMARK  13 active torsions:
REMARK  status: ('A' for Active; 'I' for Inactive)
REMARK    1  A    between atoms: C_1  and  C_2
REMARK    2  A    between atoms: C_2  and  C_3
REMARK    3  A    between atoms: C_3  and  C_4
REMARK    4  A    between atoms: C_3  and  C_14
REMARK    5  A    between atoms: C_4  and  S_6
REMARK    6  A    between atoms: S_6  and  C_7
REMARK    7  A    between atoms: C_7  and  C_8
REMARK    8  A    between atoms: C_8  and  N_9
REMARK    9  A    between atoms: N_9  and  C_10
REMARK   10  A    between atoms: N_9  and  C_12
REMARK   11  A    between atoms: C_10  and  C_11
REMARK   12  A    between atoms: C_12  and  C_13
REMARK   13  A    between atoms: C_17  and  C_18
REMARK                            x       y       z     vdW  Elec       q    Type
REMARK                         _______ _______ _______ _____ _____    ______ ____
ROOT
ATOM      1  C   UNL     1       3.812   6.154  17.709  0.00  0.00    +0.000 C 
ENDROOT
BRANCH   1   2
ATOM      2  C   UNL     1       2.906   7.035  18.568  0.00  0.00    +0.000 A 
ATOM      3  C   UNL     1       2.426   8.250  18.065  0.00  0.00    +0.000 A 
ATOM      4  C   UNL     1       1.620   9.079  18.854  0.00  0.00    +0.000 A 
ATOM      5  C   UNL     1       1.247   8.721  20.164  0.00  0.00    +0.000 A 
ATOM      6  C   UNL     1       1.731   7.497  20.648  0.00  0.00    +0.000 A 
ATOM      7  C   UNL     1       2.561   6.676  19.878  0.00  0.00    +0.000 A 
BRANCH   5   8
ATOM      8  C   UNL     1       0.393   9.598  21.001  0.00  0.00    +0.000 A 
ATOM      9  C   UNL     1       0.081   9.265  22.333  0.00  0.00    +0.000 A 
ATOM     10  C   UNL     1      -0.738  10.079  23.119  0.00  0.00    +0.000 A 
ATOM     11  C   UNL     1      -1.261  11.257  22.597  0.00  0.00    +0.000 A 
ATOM     12  C   UNL     1      -0.964  11.621  21.283  0.00  0.00    +0.000 A 
ATOM     13  C   UNL     1      -0.152  10.795  20.497  0.00  0.00    +0.000 A 
ENDBRANCH   5   8
ENDBRANCH   1   2
BRANCH   1  15
ATOM     14  C   UNL     1       5.212   6.418  15.547  0.00  0.00    +0.000 C 
ATOM     15  C   UNL     1       4.663   7.077  16.808  0.00  0.00    +0.000 C 
ENDBRANCH   1  15
BRANCH   1  16
ATOM     16  C   UNL     1       4.662   5.193  18.551  0.00  0.00    +0.000 C 
ATOM     17  O   UNL     1       5.165   5.485  19.630  0.00  0.00    +0.000 OA
BRANCH  16  18
ATOM     18  S   UNL     1       4.886   3.572  17.859  0.00  0.00    +0.000 S 
BRANCH  18  19
ATOM     19  C   UNL     1       4.160   2.595  19.219  0.00  0.00    +0.000 C 
BRANCH  19  20
ATOM     20  C   UNL     1       2.835   1.945  18.791  0.00  0.00    +0.000 C 
BRANCH  20  21
ATOM     21  N   UNL     1       1.661   2.304  19.627  0.00  0.00    +0.000 NA
BRANCH  21  22
ATOM     22  C   UNL     1       1.924   2.242  21.074  0.00  0.00    +0.000 C 
ATOM     23  C   UNL     1       2.046   3.583  21.794  0.00  0.00    +0.000 C 
ENDBRANCH  21  22
BRANCH  21  24
ATOM     24  C   UNL     1       1.125   3.603  19.176  0.00  0.00    +0.000 C 
ATOM     25  C   UNL     1       1.183   3.834  17.670  0.00  0.00    +0.000 C 
ENDBRANCH  21  24
ENDBRANCH  20  21
ENDBRANCH  19  20
ENDBRANCH  18  19
ENDBRANCH  16  18
ENDBRANCH   1  16
TORSDOF 10
ENDMDL
MODEL 6
REMARK VINA RESULT:      -6.7      1.474      1.979
REMARK  Name = 
REMARK  13 active torsions:
REMARK  status: ('A' for Active; 'I' for Inactive)
REMARK    1  A    between atoms: C_1  and  C_2
REMARK    2  A    between atoms: C_2  and  C_3
REMARK    3  A    between atoms: C_3  and  C_4
REMARK    4  A    between atoms: C_3  and  C_14
REMARK    5  A    between atoms: C_4  and  S_6
REMARK    6  A    between atoms: S_6  and  C_7
REMARK    7  A    between atoms: C_7  and  C_8
REMARK    8  A    between atoms: C_8  and  N_9
REMARK    9  A    between atoms: N_9  and  C_10
REMARK   10  A    between atoms: N_9  and  C_12
REMARK   11  A    between atoms: C_10  and  C_11
REMARK   12  A    between atoms: C_12  and  C_13
REMARK   13  A    between atoms: C_17  and  C_18
REMARK                            x       y       z     vdW  Elec       q    Type
REMARK                         _______ _______ _______ _____ _____    ______ ____
ROOT
ATOM      1  C   UNL     1       2.414   4.684  19.667  0.00  0.00    +0.000 C 
ENDROOT
BRANCH   1   2
ATOM      2  C   UNL     1       2.071   6.173  19.681  0.00  0.00    +0.000 A 
ATOM      3  C   UNL     1       2.437   6.989  18.605  0.00  0.00    +0.000 A 
ATOM      4  C   UNL     1       2.154   8.360  18.622  0.00  0.00    +0.000 A 
ATOM      5  C   UNL     1       1.480   8.964  19.700  0.00  0.00    +0.000 A 
ATOM      6  C   UNL     1       1.114   8.130  20.765  0.00  0.00    +0.000 A 
ATOM      7  C   UNL     1       1.419   6.765  20.771  0.00  0.00    +0.000 A 
BRANCH   5   8
ATOM      8  C   UNL     1       1.179  10.416  19.718  0.00  0.00    +0.000 A 
ATOM      9  C   UNL     1       1.437  11.234  18.601  0.00  0.00    +0.000 A 
ATOM     10  C   UNL     1       1.172  12.605  18.620  0.00  0.00    +0.000 A 
ATOM     11  C   UNL     1       0.630  13.197  19.756  0.00  0.00    +0.000 A 
ATOM     12  C   UNL     1       0.353  12.414  20.877  0.00  0.00    +0.000 A 
ATOM     13  C   UNL     1       0.632  11.042  20.856  0.00  0.00    +0.000 A 
ENDBRANCH   5   8
ENDBRANCH   1   2
BRANCH   1  15
ATOM     14  C   UNL     1       2.229   2.876  21.511  0.00  0.00    +0.000 C 
ATOM     15  C   UNL     1       1.532   3.979  20.723  0.00  0.00    +0.000 C 
ENDBRANCH   1  15
BRANCH   1  16
ATOM     16  C   UNL     1       2.281   4.067  18.269  0.00  0.00    +0.000 C 
ATOM     17  O   UNL     1       1.304   4.211  17.543  0.00  0.00    +0.000 OA
BRANCH  16  18
ATOM     18  S   UNL     1       3.669   3.096  17.732  0.00  0.00    +0.000 S 
BRANCH  18  19
ATOM     19  C   UNL     1       4.986   3.998  18.617  0.00  0.00    +0.000 C 
BRANCH  19  20
ATOM     20  C   UNL     1       6.007   4.597  17.636  0.00  0.00    +0.000 C 
BRANCH  20  21
ATOM     21  N   UNL     1       5.518   5.764  16.858  0.00  0.00    +0.000 NA
BRANCH  21  22
ATOM     22  C   UNL     1       6.196   7.026  17.195  0.00  0.00    +0.000 C 
ATOM     23  C   UNL     1       7.563   6.899  17.861  0.00  0.00    +0.000 C 
ENDBRANCH  21  22
BRANCH  21  24
ATOM     24  C   UNL     1       5.556   5.436  15.419  0.00  0.00    +0.000 C 
ATOM     25  C   UNL     1       6.854   4.795  14.940  0.00  0.00    +0.000 C 
ENDBRANCH  21  24
ENDBRANCH  20  21
ENDBRANCH  19  20
ENDBRANCH  18  19
ENDBRANCH  16  18
ENDBRANCH   1  16
TORSDOF 10
ENDMDL
MODEL 7
REMARK VINA RESULT:      -6.7      1.123      1.839
REMARK  Name = 
REMARK  13 active torsions:
REMARK  status: ('A' for Active; 'I' for Inactive)
REMARK    1  A    between atoms: C_1  and  C_2
REMARK    2  A    between atoms: C_2  and  C_3
REMARK    3  A    between atoms: C_3  and  C_4
REMARK    4  A    between atoms: C_3  and  C_14
REMARK    5  A    between atoms: C_4  and  S_6
REMARK    6  A    between atoms: S_6  and  C_7
REMARK    7  A    between atoms: C_7  and  C_8
REMARK    8  A    between atoms: C_8  and  N_9
REMARK    9  A    between atoms: N_9  and  C_10
REMARK   10  A    between atoms: N_9  and  C_12
REMARK   11  A    between atoms: C_10  and  C_11
REMARK   12  A    between atoms: C_12  and  C_13
REMARK   13  A    between atoms: C_17  and  C_18
REMARK                            x       y       z     vdW  Elec       q    Type
REMARK                         _______ _______ _______ _____ _____    ______ ____
ROOT
ATOM      1  C   UNL     1       2.672   5.573  20.100  0.00  0.00    +0.000 C 
ENDROOT
BRANCH   1   2
ATOM      2  C   UNL     1       2.194   6.988  19.781  0.00  0.00    +0.000 A 
ATOM      3  C   UNL     1       1.475   7.719  20.735  0.00  0.00    +0.000 A 
ATOM      4  C   UNL     1       1.007   9.005  20.442  0.00  0.00    +0.000 A 
ATOM      5  C   UNL     1       1.253   9.619  19.199  0.00  0.00    +0.000 A 
ATOM      6  C   UNL     1       1.981   8.875  18.259  0.00  0.00    +0.000 A 
ATOM      7  C   UNL     1       2.427   7.578  18.532  0.00  0.00    +0.000 A 
BRANCH   5   8
ATOM      8  C   UNL     1       0.758  10.981  18.888  0.00  0.00    +0.000 A 
ATOM      9  C   UNL     1      -0.618  11.253  18.768  0.00  0.00    +0.000 A 
ATOM     10  C   UNL     1      -1.088  12.531  18.458  0.00  0.00    +0.000 A 
ATOM     11  C   UNL     1      -0.193  13.579  18.268  0.00  0.00    +0.000 A 
ATOM     12  C   UNL     1       1.177  13.345  18.389  0.00  0.00    +0.000 A 
ATOM     13  C   UNL     1       1.642  12.060  18.688  0.00  0.00    +0.000 A 
ENDBRANCH   5   8
ENDBRANCH   1   2
BRANCH   1  15
ATOM     14  C   UNL     1       1.738   3.293  20.896  0.00  0.00    +0.000 C 
ATOM     15  C   UNL     1       1.431   4.711  20.429  0.00  0.00    +0.000 C 
ENDBRANCH   1  15
BRANCH   1  16
ATOM     16  C   UNL     1       3.529   4.978  18.975  0.00  0.00    +0.000 C 
ATOM     17  O   UNL     1       3.108   4.713  17.855  0.00  0.00    +0.000 OA
BRANCH  16  18
ATOM     18  S   UNL     1       5.232   4.685  19.392  0.00  0.00    +0.000 S 
BRANCH  18  19
ATOM     19  C   UNL     1       5.817   4.124  17.757  0.00  0.00    +0.000 C 
BRANCH  19  20
ATOM     20  C   UNL     1       7.189   4.730  17.419  0.00  0.00    +0.000 C 
BRANCH  20  21
ATOM     21  N   UNL     1       7.157   5.849  16.442  0.00  0.00    +0.000 NA
BRANCH  21  22
ATOM     22  C   UNL     1       5.987   5.823  15.550  0.00  0.00    +0.000 C 
ATOM     23  C   UNL     1       4.919   6.883  15.809  0.00  0.00    +0.000 C 
ENDBRANCH  21  22
BRANCH  21  24
ATOM     24  C   UNL     1       7.325   7.125  17.164  0.00  0.00    +0.000 C 
ATOM     25  C   UNL     1       8.084   7.023  18.483  0.00  0.00    +0.000 C 
ENDBRANCH  21  24
ENDBRANCH  20  21
ENDBRANCH  19  20
ENDBRANCH  18  19
ENDBRANCH  16  18
ENDBRANCH   1  16
TORSDOF 10
ENDMDL
MODEL 8
REMARK VINA RESULT:      -6.6      1.625      2.537
REMARK  Name = 
REMARK  13 active torsions:
REMARK  status: ('A' for Active; 'I' for Inactive)
REMARK    1  A    between atoms: C_1  and  C_2
REMARK    2  A    between atoms: C_2  and  C_3
REMARK    3  A    between atoms: C_3  and  C_4
REMARK    4  A    between atoms: C_3  and  C_14
REMARK    5  A    between atoms: C_4  and  S_6
REMARK    6  A    between atoms: S_6  and  C_7
REMARK    7  A    between atoms: C_7  and  C_8
REMARK    8  A    between atoms: C_8  and  N_9
REMARK    9  A    between atoms: N_9  and  C_10
REMARK   10  A    between atoms: N_9  and  C_12
REMARK   11  A    between atoms: C_10  and  C_11
REMARK   12  A    between atoms: C_12  and  C_13
REMARK   13  A    between atoms: C_17  and  C_18
REMARK                            x       y       z     vdW  Elec       q    Type
REMARK                         _______ _______ _______ _____ _____    ______ ____
ROOT
ATOM      1  C   UNL     1       2.417   4.984  19.541  0.00  0.00    +0.000 C 
ENDROOT
BRANCH   1   2
ATOM      2  C   UNL     1       2.078   6.467  19.401  0.00  0.00    +0.000 A 
ATOM      3  C   UNL     1       2.317   7.132  18.191  0.00  0.00    +0.000 A 
ATOM      4  C   UNL     1       2.038   8.497  18.062  0.00  0.00    +0.000 A 
ATOM      5  C   UNL     1       1.495   9.247  19.123  0.00  0.00    +0.000 A 
ATOM      6  C   UNL     1       1.257   8.563  20.323  0.00  0.00    +0.000 A 
ATOM      7  C   UNL     1       1.559   7.206  20.472  0.00  0.00    +0.000 A 
BRANCH   5   8
ATOM      8  C   UNL     1       1.199  10.693  18.986  0.00  0.00    +0.000 A 
ATOM      9  C   UNL     1       2.107  11.574  18.367  0.00  0.00    +0.000 A 
ATOM     10  C   UNL     1       1.841  12.939  18.252  0.00  0.00    +0.000 A 
ATOM     11  C   UNL     1       0.651  13.464  18.746  0.00  0.00    +0.000 A 
ATOM     12  C   UNL     1      -0.274  12.618  19.357  0.00  0.00    +0.000 A 
ATOM     13  C   UNL     1       0.004  11.252  19.479  0.00  0.00    +0.000 A 
ENDBRANCH   5   8
ENDBRANCH   1   2
BRANCH   1  15
ATOM     14  C   UNL     1       2.216   3.460  21.624  0.00  0.00    +0.000 C 
ATOM     15  C   UNL     1       1.510   4.388  20.642  0.00  0.00    +0.000 C 
ENDBRANCH   1  15
BRANCH   1  16
ATOM     16  C   UNL     1       2.310   4.232  18.208  0.00  0.00    +0.000 C 
ATOM     17  O   UNL     1       1.271   4.103  17.571  0.00  0.00    +0.000 OA
BRANCH  16  18
ATOM     18  S   UNL     1       3.829   3.530  17.610  0.00  0.00    +0.000 S 
BRANCH  18  19
ATOM     19  C   UNL     1       4.996   4.542  18.582  0.00  0.00    +0.000 C 
BRANCH  19  20
ATOM     20  C   UNL     1       6.383   4.582  17.922  0.00  0.00    +0.000 C 
BRANCH  20  21
ATOM     21  N   UNL     1       6.792   5.913  17.404  0.00  0.00    +0.000 NA
BRANCH  21  22
ATOM     22  C   UNL     1       5.661   6.767  17.007  0.00  0.00    +0.000 C 
ATOM     23  C   UNL     1       5.133   6.569  15.589  0.00  0.00    +0.000 C 
ENDBRANCH  21  22
BRANCH  21  24
ATOM     24  C   UNL     1       7.705   6.549  18.373  0.00  0.00    +0.000 C 
ATOM     25  C   UNL     1       8.139   5.655  19.530  0.00  0.00    +0.000 C 
ENDBRANCH  21  24
ENDBRANCH  20  21
ENDBRANCH  19  20
ENDBRANCH  18  19
ENDBRANCH  16  18
ENDBRANCH   1  16
TORSDOF 10
ENDMDL
MODEL 9
REMARK VINA RESULT:      -6.6      1.393      2.136
REMARK  Name = 
REMARK  13 active torsions:
REMARK  status: ('A' for Active; 'I' for Inactive)
REMARK    1  A    between atoms: C_1  and  C_2
REMARK    2  A    between atoms: C_2  and  C_3
REMARK    3  A    between atoms: C_3  and  C_4
REMARK    4  A    between atoms: C_3  and  C_14
REMARK    5  A    between atoms: C_4  and  S_6
REMARK    6  A    between atoms: S_6  and  C_7
REMARK    7  A    between atoms: C_7  and  C_8
REMARK    8  A    between atoms: C_8  and  N_9
REMARK    9  A    between atoms: N_9  and  C_10
REMARK   10  A    between atoms: N_9  and  C_12
REMARK   11  A    between atoms: C_10  and  C_11
REMARK   12  A    between atoms: C_12  and  C_13
REMARK   13  A    between atoms: C_17  and  C_18
REMARK                            x       y       z     vdW  Elec       q    Type
REMARK                         _______ _______ _______ _____ _____    ______ ____
ROOT
ATOM      1  C   UNL     1       2.846   5.277  19.560  0.00  0.00    +0.000 C 
ENDROOT
BRANCH   1   2
ATOM      2  C   UNL     1       2.287   6.698  19.589  0.00  0.00    +0.000 A 
ATOM      3  C   UNL     1       1.636   7.175  20.733  0.00  0.00    +0.000 A 
ATOM      4  C   UNL     1       1.095   8.465  20.758  0.00  0.00    +0.000 A 
ATOM      5  C   UNL     1       1.196   9.334  19.655  0.00  0.00    +0.000 A 
ATOM      6  C   UNL     1       1.858   8.842  18.521  0.00  0.00    +0.000 A 
ATOM      7  C   UNL     1       2.376   7.544  18.475  0.00  0.00    +0.000 A 
BRANCH   5   8
ATOM      8  C   UNL     1       0.623  10.701  19.681  0.00  0.00    +0.000 A 
ATOM      9  C   UNL     1      -0.078  11.225  18.578  0.00  0.00    +0.000 A 
ATOM     10  C   UNL     1      -0.604  12.519  18.592  0.00  0.00    +0.000 A 
ATOM     11  C   UNL     1      -0.452  13.324  19.716  0.00  0.00    +0.000 A 
ATOM     12  C   UNL     1       0.229  12.832  20.830  0.00  0.00    +0.000 A 
ATOM     13  C   UNL     1       0.764  11.539  20.805  0.00  0.00    +0.000 A 
ENDBRANCH   5   8
ENDBRANCH   1   2
BRANCH   1  15
ATOM     14  C   UNL     1       2.802   3.092  20.949  0.00  0.00    +0.000 C 
ATOM     15  C   UNL     1       2.387   4.556  20.848  0.00  0.00    +0.000 C 
ENDBRANCH   1  15
BRANCH   1  16
ATOM     16  C   UNL     1       2.458   4.521  18.282  0.00  0.00    +0.000 C 
ATOM     17  O   UNL     1       1.303   4.291  17.943  0.00  0.00    +0.000 OA
BRANCH  16  18
ATOM     18  S   UNL     1       3.820   3.979  17.278  0.00  0.00    +0.000 S 
BRANCH  18  19
ATOM     19  C   UNL     1       5.168   4.824  18.171  0.00  0.00    +0.000 C 
BRANCH  19  20
ATOM     20  C   UNL     1       6.534   4.516  17.539  0.00  0.00    +0.000 C 
BRANCH  20  21
ATOM     21  N   UNL     1       7.089   5.598  16.685  0.00  0.00    +0.000 NA
BRANCH  21  22
ATOM     22  C   UNL     1       6.787   5.436  15.254  0.00  0.00    +0.000 C 
ATOM     23  C   UNL     1       6.546   4.007  14.774  0.00  0.00    +0.000 C 
ENDBRANCH  21  22
BRANCH  21  24
ATOM     24  C   UNL     1       6.678   6.905  17.234  0.00  0.00    +0.000 C 
ATOM     25  C   UNL     1       7.824   7.790  17.714  0.00  0.00    +0.000 C 
ENDBRANCH  21  24
ENDBRANCH  20  21
ENDBRANCH  19  20
ENDBRANCH  18  19
ENDBRANCH  16  18
ENDBRANCH   1  16
TORSDOF 10
ENDMDL
