MODEL 1
REMARK VINA RESULT:      -8.1      0.000      0.000
REMARK  Name = 
REMARK  8 active torsions:
REMARK  status: ('A' for Active; 'I' for Inactive)
REMARK    1  A    between atoms: C_2  and  C_16
REMARK    2  A    between atoms: C_7  and  C_8
REMARK    3  A    between atoms: C_8  and  O_9
REMARK    4  A    between atoms: O_9  and  C_10
REMARK    5  A    between atoms: C_19  and  O_20
REMARK    6  A    between atoms: O_20  and  C_21
REMARK    7  A    between atoms: C_24  and  C_25
REMARK    8  A    between atoms: C_25  and  O_27
REMARK                            x       y       z     vdW  Elec       q    Type
REMARK                         _______ _______ _______ _____ _____    ______ ____
ROOT
ATOM      1  C   UNL     1       0.497   9.575  21.205  0.00  0.00    +0.000 A 
ATOM      2  C   UNL     1       0.378  10.875  20.723  0.00  0.00    +0.000 A 
ATOM      3  C   UNL     1      -0.340  11.817  21.455  0.00  0.00    +0.000 A 
ATOM      4  C   UNL     1      -0.962  11.476  22.661  0.00  0.00    +0.000 A 
ATOM      5  C   UNL     1      -0.817  10.177  23.156  0.00  0.00    +0.000 A 
ATOM      6  C   UNL     1      -0.085   9.228  22.434  0.00  0.00    +0.000 A 
ENDROOT
BRANCH   1   8
ATOM      7  O   UNL     1       1.577   8.885  19.248  0.00  0.00    +0.000 OA
ATOM      8  C   UNL     1       1.247   8.576  20.386  0.00  0.00    +0.000 C 
ATOM      9  N   UNL     1       1.408   7.377  21.005  0.00  0.00    +0.000 N 
ATOM     10  C   UNL     1       2.054   6.277  20.504  0.00  0.00    +0.000 A 
ATOM     11  N   UNL     1       1.882   5.090  21.030  0.00  0.00    +0.000 NA
ATOM     12  N   UNL     1       2.609   4.127  20.369  0.00  0.00    +0.000 NA
ATOM     13  C   UNL     1       3.361   4.634  19.410  0.00  0.00    +0.000 A 
ATOM     14  S   UNL     1       3.170   6.336  19.215  0.00  0.00    +0.000 S 
ATOM     15  H   UNL     1       0.876   7.163  21.840  0.00  0.00    +0.000 HD
BRANCH  13  16
ATOM     16  C   UNL     1       4.207   3.809  18.497  0.00  0.00    +0.000 C 
BRANCH  16  17
ATOM     17  O   UNL     1       5.547   3.731  19.001  0.00  0.00    +0.000 OA
BRANCH  17  18
ATOM     18  C   UNL     1       6.482   4.426  18.176  0.00  0.00    +0.000 C 
ATOM     19  C   UNL     1       5.842   4.832  16.853  0.00  0.00    +0.000 C 
ATOM     20  C   UNL     1       6.769   5.912  16.308  0.00  0.00    +0.000 C 
ATOM     21  C   UNL     1       7.385   6.589  17.530  0.00  0.00    +0.000 C 
ATOM     22  C   UNL     1       6.945   5.770  18.742  0.00  0.00    +0.000 C 
ENDBRANCH  17  18
ENDBRANCH  16  17
ENDBRANCH  13  16
ENDBRANCH   1   8
BRANCH   4  23
ATOM     23  O   UNL     1      -1.734  12.322  23.425  0.00  0.00    +0.000 OA
BRANCH  23  24
ATOM     24  C   UNL     1      -3.152  12.207  23.268  0.00  0.00    +0.000 C 
ATOM     25  C   UNL     1      -3.890  12.811  24.470  0.00  0.00    +0.000 C 
ATOM     26  C   UNL     1      -5.392  12.583  24.317  0.00  0.00    +0.000 C 
ATOM     27  C   UNL     1      -5.931  13.243  23.041  0.00  0.00    +0.000 C 
ATOM     28  C   UNL     1      -5.127  12.765  21.814  0.00  0.00    +0.000 C 
ATOM     29  C   UNL     1      -3.606  12.903  21.986  0.00  0.00    +0.000 C 
BRANCH  27  30
ATOM     30  C   UNL     1      -5.942  14.766  23.140  0.00  0.00    +0.000 C 
ATOM     31  O   UNL     1      -5.675  15.527  22.223  0.00  0.00    +0.000 OA
BRANCH  30  32
ATOM     32  O   UNL     1      -6.312  15.231  24.354  0.00  0.00    +0.000 OA
ATOM     33  H   UNL     1      -7.075  15.836  24.351  0.00  0.00    +0.000 HD
ENDBRANCH  30  32
ENDBRANCH  27  30
ENDBRANCH  23  24
ENDBRANCH   4  23
TORSDOF 8
ENDMDL
MODEL 2
REMARK VINA RESULT:      -8.1      8.612     11.056
REMARK  Name = 
REMARK  8 active torsions:
REMARK  status: ('A' for Active; 'I' for Inactive)
REMARK    1  A    between atoms: C_2  and  C_16
REMARK    2  A    between atoms: C_7  and  C_8
REMARK    3  A    between atoms: C_8  and  O_9
REMARK    4  A    between atoms: O_9  and  C_10
REMARK    5  A    between atoms: C_19  and  O_20
REMARK    6  A    between atoms: O_20  and  C_21
REMARK    7  A    between atoms: C_24  and  C_25
REMARK    8  A    between atoms: C_25  and  O_27
REMARK                            x       y       z     vdW  Elec       q    Type
REMARK                         _______ _______ _______ _____ _____    ______ ____
ROOT
ATOM      1  C   UNL     1       9.254  10.160  18.690  0.00  0.00    +0.000 A 
ATOM      2  C   UNL     1       9.331  10.423  20.054  0.00  0.00    +0.000 A 
ATOM      3  C   UNL     1      10.240  11.367  20.524  0.00  0.00    +0.000 A 
ATOM      4  C   UNL     1      11.095  12.047  19.647  0.00  0.00    +0.000 A 
ATOM      5  C   UNL     1      10.995  11.800  18.275  0.00  0.00    +0.000 A 
ATOM      6  C   UNL     1      10.074  10.864  17.795  0.00  0.00    +0.000 A 
ENDROOT
BRANCH   1   8
ATOM      7  O   UNL     1       7.367   9.468  17.493  0.00  0.00    +0.000 OA
ATOM      8  C   UNL     1       8.291   9.121  18.217  0.00  0.00    +0.000 C 
ATOM      9  N   UNL     1       8.529   7.886  18.732  0.00  0.00    +0.000 N 
ATOM     10  C   UNL     1       7.819   6.742  18.477  0.00  0.00    +0.000 A 
ATOM     11  N   UNL     1       7.921   5.691  19.253  0.00  0.00    +0.000 NA
ATOM     12  N   UNL     1       7.116   4.660  18.828  0.00  0.00    +0.000 NA
ATOM     13  C   UNL     1       6.485   4.945  17.704  0.00  0.00    +0.000 A 
ATOM     14  S   UNL     1       6.796   6.540  17.127  0.00  0.00    +0.000 S 
ATOM     15  H   UNL     1       9.166   7.777  19.511  0.00  0.00    +0.000 HD
BRANCH  13  16
ATOM     16  C   UNL     1       5.502   4.030  17.051  0.00  0.00    +0.000 C 
BRANCH  16  17
ATOM     17  O   UNL     1       4.191   4.612  17.081  0.00  0.00    +0.000 OA
BRANCH  17  18
ATOM     18  C   UNL     1       3.356   4.023  18.077  0.00  0.00    +0.000 C 
ATOM     19  C   UNL     1       1.888   4.108  17.674  0.00  0.00    +0.000 C 
ATOM     20  C   UNL     1       1.198   3.078  18.562  0.00  0.00    +0.000 C 
ATOM     21  C   UNL     1       2.243   1.998  18.837  0.00  0.00    +0.000 C 
ATOM     22  C   UNL     1       3.558   2.517  18.259  0.00  0.00    +0.000 C 
ENDBRANCH  17  18
ENDBRANCH  16  17
ENDBRANCH  13  16
ENDBRANCH   1   8
BRANCH   4  23
ATOM     23  O   UNL     1      12.059  12.954  20.022  0.00  0.00    +0.000 OA
BRANCH  23  24
ATOM     24  C   UNL     1      11.658  14.328  20.065  0.00  0.00    +0.000 C 
ATOM     25  C   UNL     1      12.255  15.113  18.889  0.00  0.00    +0.000 C 
ATOM     26  C   UNL     1      11.890  16.590  19.021  0.00  0.00    +0.000 C 
ATOM     27  C   UNL     1      10.369  16.793  19.013  0.00  0.00    +0.000 C 
ATOM     28  C   UNL     1       9.709  15.917  20.097  0.00  0.00    +0.000 C 
ATOM     29  C   UNL     1      10.135  14.442  20.036  0.00  0.00    +0.000 C 
BRANCH  27  30
ATOM     30  C   UNL     1       9.760  16.531  17.638  0.00  0.00    +0.000 C 
ATOM     31  O   UNL     1      10.378  16.556  16.585  0.00  0.00    +0.000 OA
BRANCH  30  32
ATOM     32  O   UNL     1       8.445  16.227  17.673  0.00  0.00    +0.000 OA
ATOM     33  H   UNL     1       8.100  15.977  18.549  0.00  0.00    +0.000 HD
ENDBRANCH  30  32
ENDBRANCH  27  30
ENDBRANCH  23  24
ENDBRANCH   4  23
TORSDOF 8
ENDMDL
MODEL 3
REMARK VINA RESULT:      -8.1      2.865     11.390
REMARK  Name = 
REMARK  8 active torsions:
REMARK  status: ('A' for Active; 'I' for Inactive)
REMARK    1  A    between atoms: C_2  and  C_16
REMARK    2  A    between atoms: C_7  and  C_8
REMARK    3  A    between atoms: C_8  and  O_9
REMARK    4  A    between atoms: O_9  and  C_10
REMARK    5  A    between atoms: C_19  and  O_20
REMARK    6  A    between atoms: O_20  and  C_21
REMARK    7  A    between atoms: C_24  and  C_25
REMARK    8  A    between atoms: C_25  and  O_27
REMARK                            x       y       z     vdW  Elec       q    Type
REMARK                         _______ _______ _______ _____ _____    ______ ____
ROOT
ATOM      1  C   UNL     1       1.589   8.727  19.123  0.00  0.00    +0.000 A 
ATOM      2  C   UNL     1       1.907   7.694  20.000  0.00  0.00    +0.000 A 
ATOM      3  C   UNL     1       2.768   6.681  19.588  0.00  0.00    +0.000 A 
ATOM      4  C   UNL     1       3.309   6.671  18.297  0.00  0.00    +0.000 A 
ATOM      5  C   UNL     1       3.010   7.725  17.428  0.00  0.00    +0.000 A 
ATOM      6  C   UNL     1       2.157   8.754  17.840  0.00  0.00    +0.000 A 
ENDROOT
BRANCH   1   8
ATOM      7  O   UNL     1       0.227  10.593  18.760  0.00  0.00    +0.000 OA
ATOM      8  C   UNL     1       0.639   9.784  19.581  0.00  0.00    +0.000 C 
ATOM      9  N   UNL     1       0.401   9.758  20.919  0.00  0.00    +0.000 N 
ATOM     10  C   UNL     1      -0.425  10.598  21.619  0.00  0.00    +0.000 A 
ATOM     11  N   UNL     1      -0.342  10.700  22.923  0.00  0.00    +0.000 NA
ATOM     12  N   UNL     1      -1.249  11.605  23.424  0.00  0.00    +0.000 NA
ATOM     13  C   UNL     1      -2.034  12.103  22.487  0.00  0.00    +0.000 A 
ATOM     14  S   UNL     1      -1.659  11.533  20.903  0.00  0.00    +0.000 S 
ATOM     15  H   UNL     1       0.991   9.204  21.527  0.00  0.00    +0.000 HD
BRANCH  13  16
ATOM     16  C   UNL     1      -3.068  13.150  22.741  0.00  0.00    +0.000 C 
BRANCH  16  17
ATOM     17  O   UNL     1      -4.380  12.603  22.551  0.00  0.00    +0.000 OA
BRANCH  17  18
ATOM     18  C   UNL     1      -5.402  13.432  23.102  0.00  0.00    +0.000 C 
ATOM     19  C   UNL     1      -6.434  13.800  22.042  0.00  0.00    +0.000 C 
ATOM     20  C   UNL     1      -7.641  14.271  22.845  0.00  0.00    +0.000 C 
ATOM     21  C   UNL     1      -7.588  13.504  24.166  0.00  0.00    +0.000 C 
ATOM     22  C   UNL     1      -6.259  12.751  24.170  0.00  0.00    +0.000 C 
ENDBRANCH  17  18
ENDBRANCH  16  17
ENDBRANCH  13  16
ENDBRANCH   1   8
BRANCH   4  23
ATOM     23  O   UNL     1       4.124   5.688  17.784  0.00  0.00    +0.000 OA
BRANCH  23  24
ATOM     24  C   UNL     1       3.695   4.337  17.981  0.00  0.00    +0.000 C 
ATOM     25  C   UNL     1       4.262   3.763  19.286  0.00  0.00    +0.000 C 
ATOM     26  C   UNL     1       3.867   2.294  19.415  0.00  0.00    +0.000 C 
ATOM     27  C   UNL     1       2.342   2.125  19.438  0.00  0.00    +0.000 C 
ATOM     28  C   UNL     1       1.712   2.805  18.206  0.00  0.00    +0.000 C 
ATOM     29  C   UNL     1       2.169   4.260  18.008  0.00  0.00    +0.000 C 
BRANCH  27  30
ATOM     30  C   UNL     1       1.725   2.640  20.735  0.00  0.00    +0.000 C 
ATOM     31  O   UNL     1       2.297   2.679  21.813  0.00  0.00    +0.000 OA
BRANCH  30  32
ATOM     32  O   UNL     1       0.461   3.097  20.594  0.00  0.00    +0.000 OA
ATOM     33  H   UNL     1      -0.239   2.448  20.787  0.00  0.00    +0.000 HD
ENDBRANCH  30  32
ENDBRANCH  27  30
ENDBRANCH  23  24
ENDBRANCH   4  23
TORSDOF 8
ENDMDL
MODEL 4
REMARK VINA RESULT:      -7.9      3.216     11.118
REMARK  Name = 
REMARK  8 active torsions:
REMARK  status: ('A' for Active; 'I' for Inactive)
REMARK    1  A    between atoms: C_2  and  C_16
REMARK    2  A    between atoms: C_7  and  C_8
REMARK    3  A    between atoms: C_8  and  O_9
REMARK    4  A    between atoms: O_9  and  C_10
REMARK    5  A    between atoms: C_19  and  O_20
REMARK    6  A    between atoms: O_20  and  C_21
REMARK    7  A    between atoms: C_24  and  C_25
REMARK    8  A    between atoms: C_25  and  O_27
REMARK                            x       y       z     vdW  Elec       q    Type
REMARK                         _______ _______ _______ _____ _____    ______ ____
ROOT
ATOM      1  C   UNL     1       1.345   8.961  19.355  0.00  0.00    +0.000 A 
ATOM      2  C   UNL     1       1.739   7.897  20.161  0.00  0.00    +0.000 A 
ATOM      3  C   UNL     1       2.561   6.903  19.638  0.00  0.00    +0.000 A 
ATOM      4  C   UNL     1       2.987   6.944  18.305  0.00  0.00    +0.000 A 
ATOM      5  C   UNL     1       2.613   8.028  17.506  0.00  0.00    +0.000 A 
ATOM      6  C   UNL     1       1.798   9.038  18.029  0.00  0.00    +0.000 A 
ENDROOT
BRANCH   1   8
ATOM      7  O   UNL     1      -0.762   9.914  19.707  0.00  0.00    +0.000 OA
ATOM      8  C   UNL     1       0.438   9.997  19.933  0.00  0.00    +0.000 C 
ATOM      9  N   UNL     1       1.095  10.982  20.601  0.00  0.00    +0.000 N 
ATOM     10  C   UNL     1       0.531  12.057  21.236  0.00  0.00    +0.000 A 
ATOM     11  N   UNL     1       1.247  13.103  21.567  0.00  0.00    +0.000 NA
ATOM     12  N   UNL     1       0.486  14.072  22.180  0.00  0.00    +0.000 NA
ATOM     13  C   UNL     1      -0.766  13.693  22.353  0.00  0.00    +0.000 A 
ATOM     14  S   UNL     1      -1.107  12.130  21.708  0.00  0.00    +0.000 S 
ATOM     15  H   UNL     1       2.099  11.075  20.506  0.00  0.00    +0.000 HD
BRANCH  13  16
ATOM     16  C   UNL     1      -1.825  14.569  22.939  0.00  0.00    +0.000 C 
BRANCH  16  17
ATOM     17  O   UNL     1      -2.081  14.191  24.298  0.00  0.00    +0.000 OA
BRANCH  17  18
ATOM     18  C   UNL     1      -3.474  14.041  24.569  0.00  0.00    +0.000 C 
ATOM     19  C   UNL     1      -4.309  14.871  23.600  0.00  0.00    +0.000 C 
ATOM     20  C   UNL     1      -5.707  14.274  23.707  0.00  0.00    +0.000 C 
ATOM     21  C   UNL     1      -5.506  12.803  24.066  0.00  0.00    +0.000 C 
ATOM     22  C   UNL     1      -4.013  12.628  24.336  0.00  0.00    +0.000 C 
ENDBRANCH  17  18
ENDBRANCH  16  17
ENDBRANCH  13  16
ENDBRANCH   1   8
BRANCH   4  23
ATOM     23  O   UNL     1       3.754   5.984  17.686  0.00  0.00    +0.000 OA
BRANCH  23  24
ATOM     24  C   UNL     1       3.410   4.621  17.957  0.00  0.00    +0.000 C 
ATOM     25  C   UNL     1       4.018   4.154  19.288  0.00  0.00    +0.000 C 
ATOM     26  C   UNL     1       3.715   2.672  19.497  0.00  0.00    +0.000 C 
ATOM     27  C   UNL     1       2.204   2.410  19.539  0.00  0.00    +0.000 C 
ATOM     28  C   UNL     1       1.528   2.983  18.277  0.00  0.00    +0.000 C 
ATOM     29  C   UNL     1       1.892   4.450  18.000  0.00  0.00    +0.000 C 
BRANCH  27  30
ATOM     30  C   UNL     1       1.560   2.954  20.812  0.00  0.00    +0.000 C 
ATOM     31  O   UNL     1       1.995   2.784  21.941  0.00  0.00    +0.000 OA
BRANCH  30  32
ATOM     32  O   UNL     1       0.451   3.692  20.589  0.00  0.00    +0.000 OA
ATOM     33  H   UNL     1      -0.128   3.814  21.362  0.00  0.00    +0.000 HD
ENDBRANCH  30  32
ENDBRANCH  27  30
ENDBRANCH  23  24
ENDBRANCH   4  23
TORSDOF 8
ENDMDL
MODEL 5
REMARK VINA RESULT:      -7.9      0.814      1.295
REMARK  Name = 
REMARK  8 active torsions:
REMARK  status: ('A' for Active; 'I' for Inactive)
REMARK    1  A    between atoms: C_2  and  C_16
REMARK    2  A    between atoms: C_7  and  C_8
REMARK    3  A    between atoms: C_8  and  O_9
REMARK    4  A    between atoms: O_9  and  C_10
REMARK    5  A    between atoms: C_19  and  O_20
REMARK    6  A    between atoms: O_20  and  C_21
REMARK    7  A    between atoms: C_24  and  C_25
REMARK    8  A    between atoms: C_25  and  O_27
REMARK                            x       y       z     vdW  Elec       q    Type
REMARK                         _______ _______ _______ _____ _____    ______ ____
ROOT
ATOM      1  C   UNL     1       0.600   9.237  21.010  0.00  0.00    +0.000 A 
ATOM      2  C   UNL     1       0.350   9.012  22.360  0.00  0.00    +0.000 A 
ATOM      3  C   UNL     1      -0.355   9.960  23.098  0.00  0.00    +0.000 A 
ATOM      4  C   UNL     1      -0.803  11.148  22.508  0.00  0.00    +0.000 A 
ATOM      5  C   UNL     1      -0.574  11.357  21.145  0.00  0.00    +0.000 A 
ATOM      6  C   UNL     1       0.120  10.403  20.395  0.00  0.00    +0.000 A 
ENDROOT
BRANCH   1   8
ATOM      7  O   UNL     1       1.802   8.513  19.138  0.00  0.00    +0.000 OA
ATOM      8  C   UNL     1       1.384   8.218  20.250  0.00  0.00    +0.000 C 
ATOM      9  N   UNL     1       1.474   7.019  20.884  0.00  0.00    +0.000 N 
ATOM     10  C   UNL     1       2.131   5.903  20.434  0.00  0.00    +0.000 A 
ATOM     11  N   UNL     1       1.894   4.722  20.950  0.00  0.00    +0.000 NA
ATOM     12  N   UNL     1       2.646   3.740  20.347  0.00  0.00    +0.000 NA
ATOM     13  C   UNL     1       3.476   4.225  19.444  0.00  0.00    +0.000 A 
ATOM     14  S   UNL     1       3.337   5.931  19.229  0.00  0.00    +0.000 S 
ATOM     15  H   UNL     1       0.879   6.820  21.678  0.00  0.00    +0.000 HD
BRANCH  13  16
ATOM     16  C   UNL     1       4.367   3.378  18.596  0.00  0.00    +0.000 C 
BRANCH  16  17
ATOM     17  O   UNL     1       4.228   3.743  17.216  0.00  0.00    +0.000 OA
BRANCH  17  18
ATOM     18  C   UNL     1       5.481   3.781  16.533  0.00  0.00    +0.000 C 
ATOM     19  C   UNL     1       5.306   4.290  15.106  0.00  0.00    +0.000 C 
ATOM     20  C   UNL     1       6.713   4.697  14.682  0.00  0.00    +0.000 C 
ATOM     21  C   UNL     1       7.429   5.121  15.963  0.00  0.00    +0.000 C 
ATOM     22  C   UNL     1       6.486   4.777  17.115  0.00  0.00    +0.000 C 
ENDBRANCH  17  18
ENDBRANCH  16  17
ENDBRANCH  13  16
ENDBRANCH   1   8
BRANCH   4  23
ATOM     23  O   UNL     1      -1.458  12.163  23.166  0.00  0.00    +0.000 OA
BRANCH  23  24
ATOM     24  C   UNL     1      -2.889  12.115  23.148  0.00  0.00    +0.000 C 
ATOM     25  C   UNL     1      -3.477  12.744  24.419  0.00  0.00    +0.000 C 
ATOM     26  C   UNL     1      -4.996  12.588  24.413  0.00  0.00    +0.000 C 
ATOM     27  C   UNL     1      -5.624  13.281  23.197  0.00  0.00    +0.000 C 
ATOM     28  C   UNL     1      -4.968  12.776  21.896  0.00  0.00    +0.000 C 
ATOM     29  C   UNL     1      -3.433  12.841  21.919  0.00  0.00    +0.000 C 
BRANCH  27  30
ATOM     30  C   UNL     1      -5.554  14.803  23.301  0.00  0.00    +0.000 C 
ATOM     31  O   UNL     1      -5.054  15.537  22.462  0.00  0.00    +0.000 OA
BRANCH  30  32
ATOM     32  O   UNL     1      -6.135  15.300  24.414  0.00  0.00    +0.000 OA
ATOM     33  H   UNL     1      -6.354  14.642  25.097  0.00  0.00    +0.000 HD
ENDBRANCH  30  32
ENDBRANCH  27  30
ENDBRANCH  23  24
ENDBRANCH   4  23
TORSDOF 8
ENDMDL
MODEL 6
REMARK VINA RESULT:      -7.9      2.780     11.104
REMARK  Name = 
REMARK  8 active torsions:
REMARK  status: ('A' for Active; 'I' for Inactive)
REMARK    1  A    between atoms: C_2  and  C_16
REMARK    2  A    between atoms: C_7  and  C_8
REMARK    3  A    between atoms: C_8  and  O_9
REMARK    4  A    between atoms: O_9  and  C_10
REMARK    5  A    between atoms: C_19  and  O_20
REMARK    6  A    between atoms: O_20  and  C_21
REMARK    7  A    between atoms: C_24  and  C_25
REMARK    8  A    between atoms: C_25  and  O_27
REMARK                            x       y       z     vdW  Elec       q    Type
REMARK                         _______ _______ _______ _____ _____    ______ ____
ROOT
ATOM      1  C   UNL     1       1.868   8.527  19.048  0.00  0.00    +0.000 A 
ATOM      2  C   UNL     1       2.432   8.596  17.778  0.00  0.00    +0.000 A 
ATOM      3  C   UNL     1       3.253   7.564  17.332  0.00  0.00    +0.000 A 
ATOM      4  C   UNL     1       3.537   6.462  18.147  0.00  0.00    +0.000 A 
ATOM      5  C   UNL     1       2.946   6.383  19.411  0.00  0.00    +0.000 A 
ATOM      6  C   UNL     1       2.109   7.409  19.860  0.00  0.00    +0.000 A 
ENDROOT
BRANCH   1   8
ATOM      7  O   UNL     1       0.718  10.536  18.708  0.00  0.00    +0.000 OA
ATOM      8  C   UNL     1       1.016   9.663  19.513  0.00  0.00    +0.000 C 
ATOM      9  N   UNL     1       0.730   9.619  20.841  0.00  0.00    +0.000 N 
ATOM     10  C   UNL     1      -0.029  10.517  21.544  0.00  0.00    +0.000 A 
ATOM     11  N   UNL     1       0.019  10.568  22.853  0.00  0.00    +0.000 NA
ATOM     12  N   UNL     1      -0.807  11.546  23.357  0.00  0.00    +0.000 NA
ATOM     13  C   UNL     1      -1.503  12.152  22.414  0.00  0.00    +0.000 A 
ATOM     14  S   UNL     1      -1.135  11.597  20.824  0.00  0.00    +0.000 S 
ATOM     15  H   UNL     1       1.239   8.987  21.447  0.00  0.00    +0.000 HD
BRANCH  13  16
ATOM     16  C   UNL     1      -2.432  13.292  22.673  0.00  0.00    +0.000 C 
BRANCH  16  17
ATOM     17  O   UNL     1      -3.514  13.270  21.731  0.00  0.00    +0.000 OA
BRANCH  17  18
ATOM     18  C   UNL     1      -4.695  12.677  22.271  0.00  0.00    +0.000 C 
ATOM     19  C   UNL     1      -4.915  13.120  23.713  0.00  0.00    +0.000 C 
ATOM     20  C   UNL     1      -6.380  12.797  23.982  0.00  0.00    +0.000 C 
ATOM     21  C   UNL     1      -7.088  12.915  22.633  0.00  0.00    +0.000 C 
ATOM     22  C   UNL     1      -5.991  13.123  21.591  0.00  0.00    +0.000 C 
ENDBRANCH  17  18
ENDBRANCH  16  17
ENDBRANCH  13  16
ENDBRANCH   1   8
BRANCH   4  23
ATOM     23  O   UNL     1       4.376   5.423  17.814  0.00  0.00    +0.000 OA
BRANCH  23  24
ATOM     24  C   UNL     1       3.895   4.102  18.088  0.00  0.00    +0.000 C 
ATOM     25  C   UNL     1       4.298   3.651  19.498  0.00  0.00    +0.000 C 
ATOM     26  C   UNL     1       3.856   2.206  19.720  0.00  0.00    +0.000 C 
ATOM     27  C   UNL     1       2.334   2.060  19.584  0.00  0.00    +0.000 C 
ATOM     28  C   UNL     1       1.863   2.626  18.229  0.00  0.00    +0.000 C 
ATOM     29  C   UNL     1       2.374   4.048  17.948  0.00  0.00    +0.000 C 
BRANCH  27  30
ATOM     30  C   UNL     1       1.587   2.706  20.747  0.00  0.00    +0.000 C 
ATOM     31  O   UNL     1       2.009   2.782  21.891  0.00  0.00    +0.000 OA
BRANCH  30  32
ATOM     32  O   UNL     1       0.394   3.236  20.402  0.00  0.00    +0.000 OA
ATOM     33  H   UNL     1       0.440   4.044  19.860  0.00  0.00    +0.000 HD
ENDBRANCH  30  32
ENDBRANCH  27  30
ENDBRANCH  23  24
ENDBRANCH   4  23
TORSDOF 8
ENDMDL
MODEL 7
REMARK VINA RESULT:      -7.9      2.093      2.818
REMARK  Name = 
REMARK  8 active torsions:
REMARK  status: ('A' for Active; 'I' for Inactive)
REMARK    1  A    between atoms: C_2  and  C_16
REMARK    2  A    between atoms: C_7  and  C_8
REMARK    3  A    between atoms: C_8  and  O_9
REMARK    4  A    between atoms: O_9  and  C_10
REMARK    5  A    between atoms: C_19  and  O_20
REMARK    6  A    between atoms: O_20  and  C_21
REMARK    7  A    between atoms: C_24  and  C_25
REMARK    8  A    between atoms: C_25  and  O_27
REMARK                            x       y       z     vdW  Elec       q    Type
REMARK                         _______ _______ _______ _____ _____    ______ ____
ROOT
ATOM      1  C   UNL     1       1.276   8.884  20.337  0.00  0.00    +0.000 A 
ATOM      2  C   UNL     1       1.201   8.440  21.653  0.00  0.00    +0.000 A 
ATOM      3  C   UNL     1       0.583   9.235  22.615  0.00  0.00    +0.000 A 
ATOM      4  C   UNL     1       0.050  10.486  22.284  0.00  0.00    +0.000 A 
ATOM      5  C   UNL     1       0.101  10.916  20.955  0.00  0.00    +0.000 A 
ATOM      6  C   UNL     1       0.708  10.116  19.981  0.00  0.00    +0.000 A 
ENDROOT
BRANCH   1   8
ATOM      7  O   UNL     1       1.898   8.333  18.150  0.00  0.00    +0.000 OA
ATOM      8  C   UNL     1       1.971   8.024  19.332  0.00  0.00    +0.000 C 
ATOM      9  N   UNL     1       2.557   6.923  19.872  0.00  0.00    +0.000 N 
ATOM     10  C   UNL     1       3.265   5.961  19.201  0.00  0.00    +0.000 A 
ATOM     11  N   UNL     1       3.509   4.794  19.745  0.00  0.00    +0.000 NA
ATOM     12  N   UNL     1       4.220   3.974  18.900  0.00  0.00    +0.000 NA
ATOM     13  C   UNL     1       4.548   4.576  17.772  0.00  0.00    +0.000 A 
ATOM     14  S   UNL     1       3.941   6.186  17.651  0.00  0.00    +0.000 S 
ATOM     15  H   UNL     1       2.336   6.646  20.821  0.00  0.00    +0.000 HD
BRANCH  13  16
ATOM     16  C   UNL     1       5.269   3.902  16.651  0.00  0.00    +0.000 C 
BRANCH  16  17
ATOM     17  O   UNL     1       5.877   4.881  15.797  0.00  0.00    +0.000 OA
BRANCH  17  18
ATOM     18  C   UNL     1       6.543   4.291  14.681  0.00  0.00    +0.000 C 
ATOM     19  C   UNL     1       5.537   3.783  13.654  0.00  0.00    +0.000 C 
ATOM     20  C   UNL     1       6.358   3.616  12.380  0.00  0.00    +0.000 C 
ATOM     21  C   UNL     1       7.474   4.656  12.464  0.00  0.00    +0.000 C 
ATOM     22  C   UNL     1       7.383   5.271  13.859  0.00  0.00    +0.000 C 
ENDBRANCH  17  18
ENDBRANCH  16  17
ENDBRANCH  13  16
ENDBRANCH   1   8
BRANCH   4  23
ATOM     23  O   UNL     1      -0.531  11.362  23.173  0.00  0.00    +0.000 OA
BRANCH  23  24
ATOM     24  C   UNL     1      -1.392  12.360  22.614  0.00  0.00    +0.000 C 
ATOM     25  C   UNL     1      -2.852  12.119  23.023  0.00  0.00    +0.000 C 
ATOM     26  C   UNL     1      -3.753  13.139  22.332  0.00  0.00    +0.000 C 
ATOM     27  C   UNL     1      -3.375  14.574  22.721  0.00  0.00    +0.000 C 
ATOM     28  C   UNL     1      -1.877  14.822  22.451  0.00  0.00    +0.000 C 
ATOM     29  C   UNL     1      -0.958  13.754  23.064  0.00  0.00    +0.000 C 
BRANCH  27  30
ATOM     30  C   UNL     1      -3.740  14.893  24.169  0.00  0.00    +0.000 C 
ATOM     31  O   UNL     1      -3.063  15.572  24.925  0.00  0.00    +0.000 OA
BRANCH  30  32
ATOM     32  O   UNL     1      -4.926  14.378  24.558  0.00  0.00    +0.000 OA
ATOM     33  H   UNL     1      -4.877  13.517  25.009  0.00  0.00    +0.000 HD
ENDBRANCH  30  32
ENDBRANCH  27  30
ENDBRANCH  23  24
ENDBRANCH   4  23
TORSDOF 8
ENDMDL
MODEL 8
REMARK VINA RESULT:      -7.8      3.356     11.881
REMARK  Name = 
REMARK  8 active torsions:
REMARK  status: ('A' for Active; 'I' for Inactive)
REMARK    1  A    between atoms: C_2  and  C_16
REMARK    2  A    between atoms: C_7  and  C_8
REMARK    3  A    between atoms: C_8  and  O_9
REMARK    4  A    between atoms: O_9  and  C_10
REMARK    5  A    between atoms: C_19  and  O_20
REMARK    6  A    between atoms: O_20  and  C_21
REMARK    7  A    between atoms: C_24  and  C_25
REMARK    8  A    between atoms: C_25  and  O_27
REMARK                            x       y       z     vdW  Elec       q    Type
REMARK                         _______ _______ _______ _____ _____    ______ ____
ROOT
ATOM      1  C   UNL     1       0.690   9.682  19.618  0.00  0.00    +0.000 A 
ATOM      2  C   UNL     1       1.018   8.758  20.606  0.00  0.00    +0.000 A 
ATOM      3  C   UNL     1       1.860   7.692  20.300  0.00  0.00    +0.000 A 
ATOM      4  C   UNL     1       2.370   7.521  19.008  0.00  0.00    +0.000 A 
ATOM      5  C   UNL     1       2.062   8.467  18.026  0.00  0.00    +0.000 A 
ATOM      6  C   UNL     1       1.228   9.548  18.329  0.00  0.00    +0.000 A 
ENDROOT
BRANCH   1   8
ATOM      7  O   UNL     1      -0.859  11.344  19.062  0.00  0.00    +0.000 OA
ATOM      8  C   UNL     1      -0.240  10.798  19.966  0.00  0.00    +0.000 C 
ATOM      9  N   UNL     1      -0.222  11.129  21.284  0.00  0.00    +0.000 N 
ATOM     10  C   UNL     1      -0.968  12.104  21.893  0.00  0.00    +0.000 A 
ATOM     11  N   UNL     1      -0.652  12.557  23.081  0.00  0.00    +0.000 NA
ATOM     12  N   UNL     1      -1.519  13.540  23.501  0.00  0.00    +0.000 NA
ATOM     13  C   UNL     1      -2.501  13.745  22.643  0.00  0.00    +0.000 A 
ATOM     14  S   UNL     1      -2.383  12.777  21.220  0.00  0.00    +0.000 S 
ATOM     15  H   UNL     1       0.512  10.775  21.885  0.00  0.00    +0.000 HD
BRANCH  13  16
ATOM     16  C   UNL     1      -3.550  14.793  22.818  0.00  0.00    +0.000 C 
BRANCH  16  17
ATOM     17  O   UNL     1      -4.478  14.749  21.726  0.00  0.00    +0.000 OA
BRANCH  17  18
ATOM     18  C   UNL     1      -5.815  14.497  22.157  0.00  0.00    +0.000 C 
ATOM     19  C   UNL     1      -6.112  13.001  22.159  0.00  0.00    +0.000 C 
ATOM     20  C   UNL     1      -7.349  12.869  23.040  0.00  0.00    +0.000 C 
ATOM     21  C   UNL     1      -7.270  14.016  24.046  0.00  0.00    +0.000 C 
ATOM     22  C   UNL     1      -6.094  14.887  23.610  0.00  0.00    +0.000 C 
ENDBRANCH  17  18
ENDBRANCH  16  17
ENDBRANCH  13  16
ENDBRANCH   1   8
BRANCH   4  23
ATOM     23  O   UNL     1       3.164   6.474  18.599  0.00  0.00    +0.000 OA
BRANCH  23  24
ATOM     24  C   UNL     1       2.566   5.173  18.623  0.00  0.00    +0.000 C 
ATOM     25  C   UNL     1       3.205   4.254  17.573  0.00  0.00    +0.000 C 
ATOM     26  C   UNL     1       2.479   2.911  17.558  0.00  0.00    +0.000 C 
ATOM     27  C   UNL     1       2.562   2.214  18.923  0.00  0.00    +0.000 C 
ATOM     28  C   UNL     1       2.052   3.155  20.033  0.00  0.00    +0.000 C 
ATOM     29  C   UNL     1       2.708   4.545  20.009  0.00  0.00    +0.000 C 
BRANCH  27  30
ATOM     30  C   UNL     1       3.970   1.707  19.226  0.00  0.00    +0.000 C 
ATOM     31  O   UNL     1       4.705   2.162  20.089  0.00  0.00    +0.000 OA
BRANCH  30  32
ATOM     32  O   UNL     1       4.347   0.658  18.463  0.00  0.00    +0.000 OA
ATOM     33  H   UNL     1       5.296   0.624  18.245  0.00  0.00    +0.000 HD
ENDBRANCH  30  32
ENDBRANCH  27  30
ENDBRANCH  23  24
ENDBRANCH   4  23
TORSDOF 8
ENDMDL
MODEL 9
REMARK VINA RESULT:      -7.8      1.226      1.620
REMARK  Name = 
REMARK  8 active torsions:
REMARK  status: ('A' for Active; 'I' for Inactive)
REMARK    1  A    between atoms: C_2  and  C_16
REMARK    2  A    between atoms: C_7  and  C_8
REMARK    3  A    between atoms: C_8  and  O_9
REMARK    4  A    between atoms: O_9  and  C_10
REMARK    5  A    between atoms: C_19  and  O_20
REMARK    6  A    between atoms: O_20  and  C_21
REMARK    7  A    between atoms: C_24  and  C_25
REMARK    8  A    between atoms: C_25  and  O_27
REMARK                            x       y       z     vdW  Elec       q    Type
REMARK                         _______ _______ _______ _____ _____    ______ ____
ROOT
ATOM      1  C   UNL     1       0.672   9.304  21.207  0.00  0.00    +0.000 A 
ATOM      2  C   UNL     1       0.423  10.564  20.673  0.00  0.00    +0.000 A 
ATOM      3  C   UNL     1      -0.283  11.503  21.421  0.00  0.00    +0.000 A 
ATOM      4  C   UNL     1      -0.765  11.194  22.698  0.00  0.00    +0.000 A 
ATOM      5  C   UNL     1      -0.489   9.936  23.242  0.00  0.00    +0.000 A 
ATOM      6  C   UNL     1       0.232   8.994  22.502  0.00  0.00    +0.000 A 
ENDROOT
BRANCH   1   8
ATOM      7  O   UNL     1       1.737   8.627  19.237  0.00  0.00    +0.000 OA
ATOM      8  C   UNL     1       1.405   8.306  20.370  0.00  0.00    +0.000 C 
ATOM      9  N   UNL     1       1.551   7.096  20.972  0.00  0.00    +0.000 N 
ATOM     10  C   UNL     1       2.180   5.995  20.452  0.00  0.00    +0.000 A 
ATOM     11  N   UNL     1       1.991   4.802  20.961  0.00  0.00    +0.000 NA
ATOM     12  N   UNL     1       2.703   3.839  20.284  0.00  0.00    +0.000 NA
ATOM     13  C   UNL     1       3.460   4.349  19.331  0.00  0.00    +0.000 A 
ATOM     14  S   UNL     1       3.293   6.057  19.162  0.00  0.00    +0.000 S 
ATOM     15  H   UNL     1       1.017   6.877  21.804  0.00  0.00    +0.000 HD
BRANCH  13  16
ATOM     16  C   UNL     1       4.292   3.526  18.403  0.00  0.00    +0.000 C 
BRANCH  16  17
ATOM     17  O   UNL     1       5.478   4.244  18.037  0.00  0.00    +0.000 OA
BRANCH  17  18
ATOM     18  C   UNL     1       5.906   3.948  16.708  0.00  0.00    +0.000 C 
ATOM     19  C   UNL     1       4.853   4.374  15.690  0.00  0.00    +0.000 C 
ATOM     20  C   UNL     1       5.611   4.421  14.369  0.00  0.00    +0.000 C 
ATOM     21  C   UNL     1       7.055   4.769  14.728  0.00  0.00    +0.000 C 
ATOM     22  C   UNL     1       7.137   4.733  16.252  0.00  0.00    +0.000 C 
ENDBRANCH  17  18
ENDBRANCH  16  17
ENDBRANCH  13  16
ENDBRANCH   1   8
BRANCH   4  23
ATOM     23  O   UNL     1      -1.516  12.035  23.488  0.00  0.00    +0.000 OA
BRANCH  23  24
ATOM     24  C   UNL     1      -2.331  12.993  22.805  0.00  0.00    +0.000 C 
ATOM     25  C   UNL     1      -3.820  12.749  23.088  0.00  0.00    +0.000 C 
ATOM     26  C   UNL     1      -4.664  13.723  22.269  0.00  0.00    +0.000 C 
ATOM     27  C   UNL     1      -4.338  15.180  22.623  0.00  0.00    +0.000 C 
ATOM     28  C   UNL     1      -2.824  15.438  22.482  0.00  0.00    +0.000 C 
ATOM     29  C   UNL     1      -1.955  14.412  23.227  0.00  0.00    +0.000 C 
BRANCH  27  30
ATOM     30  C   UNL     1      -4.840  15.561  24.014  0.00  0.00    +0.000 C 
ATOM     31  O   UNL     1      -4.271  16.329  24.774  0.00  0.00    +0.000 OA
BRANCH  30  32
ATOM     32  O   UNL     1      -6.019  14.990  24.343  0.00  0.00    +0.000 OA
ATOM     33  H   UNL     1      -6.461  14.506  23.622  0.00  0.00    +0.000 HD
ENDBRANCH  30  32
ENDBRANCH  27  30
ENDBRANCH  23  24
ENDBRANCH   4  23
TORSDOF 8
ENDMDL
