MODEL 1
REMARK VINA RESULT:      -7.2      0.000      0.000
REMARK  Name = 
REMARK  1 active torsions:
REMARK  status: ('A' for Active; 'I' for Inactive)
REMARK    1  A    between atoms: C_6  and  C_7
REMARK                            x       y       z     vdW  Elec       q    Type
REMARK                         _______ _______ _______ _____ _____    ______ ____
ROOT
ATOM      1  O   UNL     1       2.770   2.871  16.607  0.00  0.00    +0.000 OA
ATOM      2  C   UNL     1       3.482   3.775  17.058  0.00  0.00    +0.000 C 
ATOM      3  N   UNL     1       2.923   4.710  17.924  0.00  0.00    +0.000 N 
ATOM      4  C   UNL     1       3.469   5.971  18.405  0.00  0.00    +0.000 C 
ATOM      5  C   UNL     1       3.547   5.890  19.939  0.00  0.00    +0.000 C 
ATOM      6  C   UNL     1       2.149   5.757  20.551  0.00  0.00    +0.000 C 
ATOM      7  C   UNL     1       1.360   4.629  19.859  0.00  0.00    +0.000 C 
ATOM      8  C   UNL     1       1.510   4.588  18.328  0.00  0.00    +0.000 C 
ATOM      9  N   UNL     1       4.811   3.890  16.618  0.00  0.00    +0.000 N 
ATOM     10  C   UNL     1       5.188   3.215  15.368  0.00  0.00    +0.000 C 
ATOM     11  C   UNL     1       5.816   4.202  14.384  0.00  0.00    +0.000 C 
ATOM     12  C   UNL     1       6.993   4.950  14.996  0.00  0.00    +0.000 C 
ATOM     13  C   UNL     1       6.819   5.262  16.456  0.00  0.00    +0.000 A 
ATOM     14  C   UNL     1       7.625   6.240  17.061  0.00  0.00    +0.000 A 
ATOM     15  C   UNL     1       7.551   6.463  18.435  0.00  0.00    +0.000 A 
ATOM     16  C   UNL     1       6.804   5.599  19.227  0.00  0.00    +0.000 A 
ATOM     17  C   UNL     1       6.033   4.601  18.629  0.00  0.00    +0.000 A 
ATOM     18  C   UNL     1       5.899   4.556  17.245  0.00  0.00    +0.000 A 
ENDROOT
BRANCH   6  19
ATOM     19  C   UNL     1       1.486   7.102  20.522  0.00  0.00    +0.000 A 
ATOM     20  N   UNL     1       1.790   8.092  19.708  0.00  0.00    +0.000 NA
ATOM     21  C   UNL     1       1.087   9.176  20.139  0.00  0.00    +0.000 A 
ATOM     22  C   UNL     1       0.328   8.843  21.233  0.00  0.00    +0.000 A 
ATOM     23  N   UNL     1       0.591   7.520  21.469  0.00  0.00    +0.000 N 
ATOM     24  H   UNL     1       0.231   6.963  22.229  0.00  0.00    +0.000 HD
ENDBRANCH   6  19
TORSDOF 1
ENDMDL
MODEL 2
REMARK VINA RESULT:      -7.0      8.069     10.379
REMARK  Name = 
REMARK  1 active torsions:
REMARK  status: ('A' for Active; 'I' for Inactive)
REMARK    1  A    between atoms: C_6  and  C_7
REMARK                            x       y       z     vdW  Elec       q    Type
REMARK                         _______ _______ _______ _____ _____    ______ ____
ROOT
ATOM      1  O   UNL     1      -3.545  12.764  21.405  0.00  0.00    +0.000 OA
ATOM      2  C   UNL     1      -3.097  12.469  20.292  0.00  0.00    +0.000 C 
ATOM      3  N   UNL     1      -1.749  12.687  20.023  0.00  0.00    +0.000 N 
ATOM      4  C   UNL     1      -1.038  12.639  18.754  0.00  0.00    +0.000 C 
ATOM      5  C   UNL     1       0.057  11.566  18.873  0.00  0.00    +0.000 C 
ATOM      6  C   UNL     1       1.088  11.953  19.939  0.00  0.00    +0.000 C 
ATOM      7  C   UNL     1       0.386  12.345  21.254  0.00  0.00    +0.000 C 
ATOM      8  C   UNL     1      -0.866  13.222  21.075  0.00  0.00    +0.000 C 
ATOM      9  N   UNL     1      -3.974  12.004  19.298  0.00  0.00    +0.000 N 
ATOM     10  C   UNL     1      -5.411  12.265  19.464  0.00  0.00    +0.000 C 
ATOM     11  C   UNL     1      -5.980  12.983  18.241  0.00  0.00    +0.000 C 
ATOM     12  C   UNL     1      -5.692  12.229  16.949  0.00  0.00    +0.000 C 
ATOM     13  C   UNL     1      -4.356  11.540  16.935  0.00  0.00    +0.000 A 
ATOM     14  C   UNL     1      -3.799  11.124  15.716  0.00  0.00    +0.000 A 
ATOM     15  C   UNL     1      -2.615  10.388  15.697  0.00  0.00    +0.000 A 
ATOM     16  C   UNL     1      -2.081   9.922  16.893  0.00  0.00    +0.000 A 
ATOM     17  C   UNL     1      -2.659  10.304  18.105  0.00  0.00    +0.000 A 
ATOM     18  C   UNL     1      -3.673  11.256  18.128  0.00  0.00    +0.000 A 
ENDROOT
BRANCH   6  19
ATOM     19  C   UNL     1       1.993  13.004  19.368  0.00  0.00    +0.000 A 
ATOM     20  N   UNL     1       2.570  12.961  18.185  0.00  0.00    +0.000 NA
ATOM     21  C   UNL     1       3.444  14.006  18.144  0.00  0.00    +0.000 A 
ATOM     22  C   UNL     1       3.394  14.709  19.321  0.00  0.00    +0.000 A 
ATOM     23  N   UNL     1       2.468  14.062  20.093  0.00  0.00    +0.000 N 
ATOM     24  H   UNL     1       2.214  14.290  21.043  0.00  0.00    +0.000 HD
ENDBRANCH   6  19
TORSDOF 1
ENDMDL
MODEL 3
REMARK VINA RESULT:      -6.9      2.251      5.791
REMARK  Name = 
REMARK  1 active torsions:
REMARK  status: ('A' for Active; 'I' for Inactive)
REMARK    1  A    between atoms: C_6  and  C_7
REMARK                            x       y       z     vdW  Elec       q    Type
REMARK                         _______ _______ _______ _____ _____    ______ ____
ROOT
ATOM      1  O   UNL     1       4.521   2.407  17.506  0.00  0.00    +0.000 OA
ATOM      2  C   UNL     1       4.210   3.479  18.037  0.00  0.00    +0.000 C 
ATOM      3  N   UNL     1       5.079   4.561  17.941  0.00  0.00    +0.000 N 
ATOM      4  C   UNL     1       5.057   5.833  18.649  0.00  0.00    +0.000 C 
ATOM      5  C   UNL     1       4.942   6.950  17.598  0.00  0.00    +0.000 C 
ATOM      6  C   UNL     1       6.175   6.976  16.690  0.00  0.00    +0.000 C 
ATOM      7  C   UNL     1       6.474   5.566  16.142  0.00  0.00    +0.000 C 
ATOM      8  C   UNL     1       6.332   4.434  17.174  0.00  0.00    +0.000 C 
ATOM      9  N   UNL     1       3.031   3.554  18.798  0.00  0.00    +0.000 N 
ATOM     10  C   UNL     1       2.433   2.299  19.275  0.00  0.00    +0.000 C 
ATOM     11  C   UNL     1       2.243   2.327  20.791  0.00  0.00    +0.000 C 
ATOM     12  C   UNL     1       1.440   3.540  21.245  0.00  0.00    +0.000 C 
ATOM     13  C   UNL     1       1.709   4.780  20.439  0.00  0.00    +0.000 A 
ATOM     14  C   UNL     1       1.339   6.035  20.946  0.00  0.00    +0.000 A 
ATOM     15  C   UNL     1       1.482   7.181  20.165  0.00  0.00    +0.000 A 
ATOM     16  C   UNL     1       1.831   7.055  18.826  0.00  0.00    +0.000 A 
ATOM     17  C   UNL     1       2.162   5.801  18.310  0.00  0.00    +0.000 A 
ATOM     18  C   UNL     1       2.280   4.705  19.159  0.00  0.00    +0.000 A 
ENDROOT
BRANCH   6  19
ATOM     19  C   UNL     1       7.307   7.614  17.439  0.00  0.00    +0.000 A 
ATOM     20  N   UNL     1       7.996   7.056  18.412  0.00  0.00    +0.000 NA
ATOM     21  C   UNL     1       8.789   8.033  18.935  0.00  0.00    +0.000 A 
ATOM     22  C   UNL     1       8.590   9.212  18.262  0.00  0.00    +0.000 A 
ATOM     23  N   UNL     1       7.644   8.934  17.312  0.00  0.00    +0.000 N 
ATOM     24  H   UNL     1       7.231   9.590  16.666  0.00  0.00    +0.000 HD
ENDBRANCH   6  19
TORSDOF 1
ENDMDL
MODEL 4
REMARK VINA RESULT:      -6.9      2.315      6.619
REMARK  Name = 
REMARK  1 active torsions:
REMARK  status: ('A' for Active; 'I' for Inactive)
REMARK    1  A    between atoms: C_6  and  C_7
REMARK                            x       y       z     vdW  Elec       q    Type
REMARK                         _______ _______ _______ _____ _____    ______ ____
ROOT
ATOM      1  O   UNL     1       3.721   7.233  19.323  0.00  0.00    +0.000 OA
ATOM      2  C   UNL     1       3.797   6.052  18.967  0.00  0.00    +0.000 C 
ATOM      3  N   UNL     1       4.561   5.729  17.850  0.00  0.00    +0.000 N 
ATOM      4  C   UNL     1       4.632   4.479  17.107  0.00  0.00    +0.000 C 
ATOM      5  C   UNL     1       6.088   3.986  17.161  0.00  0.00    +0.000 C 
ATOM      6  C   UNL     1       7.025   4.970  16.454  0.00  0.00    +0.000 C 
ATOM      7  C   UNL     1       6.783   6.406  16.958  0.00  0.00    +0.000 C 
ATOM      8  C   UNL     1       5.301   6.783  17.133  0.00  0.00    +0.000 C 
ATOM      9  N   UNL     1       3.043   5.078  19.644  0.00  0.00    +0.000 N 
ATOM     10  C   UNL     1       1.905   5.526  20.459  0.00  0.00    +0.000 C 
ATOM     11  C   UNL     1       0.621   4.811  20.040  0.00  0.00    +0.000 C 
ATOM     12  C   UNL     1       0.773   3.296  20.072  0.00  0.00    +0.000 C 
ATOM     13  C   UNL     1       2.138   2.815  19.663  0.00  0.00    +0.000 A 
ATOM     14  C   UNL     1       2.323   1.474  19.294  0.00  0.00    +0.000 A 
ATOM     15  C   UNL     1       3.601   0.989  19.019  0.00  0.00    +0.000 A 
ATOM     16  C   UNL     1       4.706   1.792  19.276  0.00  0.00    +0.000 A 
ATOM     17  C   UNL     1       4.522   3.115  19.681  0.00  0.00    +0.000 A 
ATOM     18  C   UNL     1       3.248   3.673  19.692  0.00  0.00    +0.000 A 
ENDROOT
BRANCH   6  19
ATOM     19  C   UNL     1       6.878   4.788  14.972  0.00  0.00    +0.000 A 
ATOM     20  N   UNL     1       6.117   3.893  14.379  0.00  0.00    +0.000 NA
ATOM     21  C   UNL     1       6.420   3.945  13.052  0.00  0.00    +0.000 A 
ATOM     22  C   UNL     1       7.379   4.899  12.825  0.00  0.00    +0.000 A 
ATOM     23  N   UNL     1       7.665   5.429  14.054  0.00  0.00    +0.000 N 
ATOM     24  H   UNL     1       8.361   6.130  14.258  0.00  0.00    +0.000 HD
ENDBRANCH   6  19
TORSDOF 1
ENDMDL
MODEL 5
REMARK VINA RESULT:      -6.9      2.245      3.459
REMARK  Name = 
REMARK  1 active torsions:
REMARK  status: ('A' for Active; 'I' for Inactive)
REMARK    1  A    between atoms: C_6  and  C_7
REMARK                            x       y       z     vdW  Elec       q    Type
REMARK                         _______ _______ _______ _____ _____    ______ ____
ROOT
ATOM      1  O   UNL     1       2.281   4.261  21.611  0.00  0.00    +0.000 OA
ATOM      2  C   UNL     1       2.564   4.747  20.510  0.00  0.00    +0.000 C 
ATOM      3  N   UNL     1       1.973   5.947  20.127  0.00  0.00    +0.000 N 
ATOM      4  C   UNL     1       1.961   6.600  18.826  0.00  0.00    +0.000 C 
ATOM      5  C   UNL     1       2.613   7.983  18.992  0.00  0.00    +0.000 C 
ATOM      6  C   UNL     1       1.789   8.867  19.933  0.00  0.00    +0.000 C 
ATOM      7  C   UNL     1       1.468   8.115  21.240  0.00  0.00    +0.000 C 
ATOM      8  C   UNL     1       1.057   6.644  21.048  0.00  0.00    +0.000 C 
ATOM      9  N   UNL     1       3.405   4.036  19.638  0.00  0.00    +0.000 N 
ATOM     10  C   UNL     1       3.586   2.596  19.871  0.00  0.00    +0.000 C 
ATOM     11  C   UNL     1       3.246   1.793  18.616  0.00  0.00    +0.000 C 
ATOM     12  C   UNL     1       4.033   2.270  17.401  0.00  0.00    +0.000 C 
ATOM     13  C   UNL     1       4.267   3.754  17.375  0.00  0.00    +0.000 A 
ATOM     14  C   UNL     1       4.643   4.380  16.176  0.00  0.00    +0.000 A 
ATOM     15  C   UNL     1       4.969   5.736  16.160  0.00  0.00    +0.000 A 
ATOM     16  C   UNL     1       5.085   6.423  17.362  0.00  0.00    +0.000 A 
ATOM     17  C   UNL     1       4.748   5.789  18.560  0.00  0.00    +0.000 A 
ATOM     18  C   UNL     1       4.166   4.526  18.543  0.00  0.00    +0.000 A 
ENDROOT
BRANCH   6  19
ATOM     19  C   UNL     1       0.591   9.373  19.186  0.00  0.00    +0.000 A 
ATOM     20  N   UNL     1       0.529   9.588  17.889  0.00  0.00    +0.000 NA
ATOM     21  C   UNL     1      -0.657  10.217  17.657  0.00  0.00    +0.000 A 
ATOM     22  C   UNL     1      -1.341  10.383  18.835  0.00  0.00    +0.000 A 
ATOM     23  N   UNL     1      -0.536   9.844  19.802  0.00  0.00    +0.000 N 
ATOM     24  H   UNL     1      -0.715   9.835  20.795  0.00  0.00    +0.000 HD
ENDBRANCH   6  19
TORSDOF 1
ENDMDL
MODEL 6
REMARK VINA RESULT:      -6.7      2.334      6.795
REMARK  Name = 
REMARK  1 active torsions:
REMARK  status: ('A' for Active; 'I' for Inactive)
REMARK    1  A    between atoms: C_6  and  C_7
REMARK                            x       y       z     vdW  Elec       q    Type
REMARK                         _______ _______ _______ _____ _____    ______ ____
ROOT
ATOM      1  O   UNL     1       4.260   7.415  18.147  0.00  0.00    +0.000 OA
ATOM      2  C   UNL     1       4.102   6.198  18.004  0.00  0.00    +0.000 C 
ATOM      3  N   UNL     1       4.551   5.588  16.837  0.00  0.00    +0.000 N 
ATOM      4  C   UNL     1       4.292   4.246  16.334  0.00  0.00    +0.000 C 
ATOM      5  C   UNL     1       5.648   3.533  16.191  0.00  0.00    +0.000 C 
ATOM      6  C   UNL     1       6.525   4.231  15.146  0.00  0.00    +0.000 C 
ATOM      7  C   UNL     1       6.589   5.746  15.418  0.00  0.00    +0.000 C 
ATOM      8  C   UNL     1       5.244   6.385  15.809  0.00  0.00    +0.000 C 
ATOM      9  N   UNL     1       3.398   5.475  18.982  0.00  0.00    +0.000 N 
ATOM     10  C   UNL     1       2.536   6.222  19.909  0.00  0.00    +0.000 C 
ATOM     11  C   UNL     1       1.109   5.675  19.888  0.00  0.00    +0.000 C 
ATOM     12  C   UNL     1       1.067   4.177  20.165  0.00  0.00    +0.000 C 
ATOM     13  C   UNL     1       2.233   3.422  19.590  0.00  0.00    +0.000 A 
ATOM     14  C   UNL     1       2.156   2.028  19.443  0.00  0.00    +0.000 A 
ATOM     15  C   UNL     1       3.268   1.303  19.015  0.00  0.00    +0.000 A 
ATOM     16  C   UNL     1       4.497   1.941  18.900  0.00  0.00    +0.000 A 
ATOM     17  C   UNL     1       4.581   3.323  19.085  0.00  0.00    +0.000 A 
ATOM     18  C   UNL     1       3.424   4.078  19.244  0.00  0.00    +0.000 A 
ENDROOT
BRANCH   6  19
ATOM     19  C   UNL     1       6.031   3.855  13.781  0.00  0.00    +0.000 A 
ATOM     20  N   UNL     1       4.818   4.070  13.316  0.00  0.00    +0.000 NA
ATOM     21  C   UNL     1       4.738   3.413  12.125  0.00  0.00    +0.000 A 
ATOM     22  C   UNL     1       5.928   2.789  11.849  0.00  0.00    +0.000 A 
ATOM     23  N   UNL     1       6.744   3.076  12.911  0.00  0.00    +0.000 N 
ATOM     24  H   UNL     1       7.684   2.738  13.053  0.00  0.00    +0.000 HD
ENDBRANCH   6  19
TORSDOF 1
ENDMDL
MODEL 7
REMARK VINA RESULT:      -6.6      3.472      7.440
REMARK  Name = 
REMARK  1 active torsions:
REMARK  status: ('A' for Active; 'I' for Inactive)
REMARK    1  A    between atoms: C_6  and  C_7
REMARK                            x       y       z     vdW  Elec       q    Type
REMARK                         _______ _______ _______ _____ _____    ______ ____
ROOT
ATOM      1  O   UNL     1       2.202  10.383  17.576  0.00  0.00    +0.000 OA
ATOM      2  C   UNL     1       1.684   9.926  18.601  0.00  0.00    +0.000 C 
ATOM      3  N   UNL     1       1.690   8.549  18.807  0.00  0.00    +0.000 N 
ATOM      4  C   UNL     1       0.969   7.757  19.793  0.00  0.00    +0.000 C 
ATOM      5  C   UNL     1       2.010   7.009  20.643  0.00  0.00    +0.000 C 
ATOM      6  C   UNL     1       2.808   6.022  19.786  0.00  0.00    +0.000 C 
ATOM      7  C   UNL     1       3.348   6.716  18.521  0.00  0.00    +0.000 C 
ATOM      8  C   UNL     1       2.348   7.661  17.832  0.00  0.00    +0.000 C 
ATOM      9  N   UNL     1       1.027  10.794  19.487  0.00  0.00    +0.000 N 
ATOM     10  C   UNL     1       0.622  12.116  18.989  0.00  0.00    +0.000 C 
ATOM     11  C   UNL     1      -0.872  12.348  19.211  0.00  0.00    +0.000 C 
ATOM     12  C   UNL     1      -1.272  12.149  20.668  0.00  0.00    +0.000 C 
ATOM     13  C   UNL     1      -0.510  11.055  21.361  0.00  0.00    +0.000 A 
ATOM     14  C   UNL     1      -1.002  10.515  22.560  0.00  0.00    +0.000 A 
ATOM     15  C   UNL     1      -0.253   9.578  23.270  0.00  0.00    +0.000 A 
ATOM     16  C   UNL     1       1.053   9.309  22.878  0.00  0.00    +0.000 A 
ATOM     17  C   UNL     1       1.556   9.877  21.706  0.00  0.00    +0.000 A 
ATOM     18  C   UNL     1       0.716  10.594  20.860  0.00  0.00    +0.000 A 
ENDROOT
BRANCH   6  19
ATOM     19  C   UNL     1       1.955   4.815  19.529  0.00  0.00    +0.000 A 
ATOM     20  N   UNL     1       1.248   4.167  20.431  0.00  0.00    +0.000 NA
ATOM     21  C   UNL     1       0.784   3.040  19.823  0.00  0.00    +0.000 A 
ATOM     22  C   UNL     1       1.205   3.001  18.517  0.00  0.00    +0.000 A 
ATOM     23  N   UNL     1       1.951   4.136  18.342  0.00  0.00    +0.000 N 
ATOM     24  H   UNL     1       2.449   4.403  17.506  0.00  0.00    +0.000 HD
ENDBRANCH   6  19
TORSDOF 1
ENDMDL
MODEL 8
REMARK VINA RESULT:      -6.5      7.755     10.690
REMARK  Name = 
REMARK  1 active torsions:
REMARK  status: ('A' for Active; 'I' for Inactive)
REMARK    1  A    between atoms: C_6  and  C_7
REMARK                            x       y       z     vdW  Elec       q    Type
REMARK                         _______ _______ _______ _____ _____    ______ ____
ROOT
ATOM      1  O   UNL     1       3.170  13.643  18.770  0.00  0.00    +0.000 OA
ATOM      2  C   UNL     1       2.053  14.165  18.686  0.00  0.00    +0.000 C 
ATOM      3  N   UNL     1       0.925  13.350  18.651  0.00  0.00    +0.000 N 
ATOM      4  C   UNL     1      -0.454  13.692  18.335  0.00  0.00    +0.000 C 
ATOM      5  C   UNL     1      -1.314  13.341  19.562  0.00  0.00    +0.000 C 
ATOM      6  C   UNL     1      -1.287  11.834  19.836  0.00  0.00    +0.000 C 
ATOM      7  C   UNL     1       0.164  11.314  19.861  0.00  0.00    +0.000 C 
ATOM      8  C   UNL     1       1.070  11.887  18.757  0.00  0.00    +0.000 C 
ATOM      9  N   UNL     1       1.953  15.559  18.541  0.00  0.00    +0.000 N 
ATOM     10  C   UNL     1       3.141  16.296  18.089  0.00  0.00    +0.000 C 
ATOM     11  C   UNL     1       2.825  17.134  16.851  0.00  0.00    +0.000 C 
ATOM     12  C   UNL     1       1.639  18.064  17.077  0.00  0.00    +0.000 C 
ATOM     13  C   UNL     1       0.568  17.477  17.954  0.00  0.00    +0.000 A 
ATOM     14  C   UNL     1      -0.716  18.043  17.959  0.00  0.00    +0.000 A 
ATOM     15  C   UNL     1      -1.687  17.580  18.846  0.00  0.00    +0.000 A 
ATOM     16  C   UNL     1      -1.329  16.676  19.839  0.00  0.00    +0.000 A 
ATOM     17  C   UNL     1      -0.039  16.142  19.858  0.00  0.00    +0.000 A 
ATOM     18  C   UNL     1       0.841  16.401  18.812  0.00  0.00    +0.000 A 
ENDROOT
BRANCH   6  19
ATOM     19  C   UNL     1      -2.184  11.153  18.845  0.00  0.00    +0.000 A 
ATOM     20  N   UNL     1      -1.934  10.011  18.241  0.00  0.00    +0.000 NA
ATOM     21  C   UNL     1      -2.903   9.853  17.296  0.00  0.00    +0.000 A 
ATOM     22  C   UNL     1      -3.771  10.915  17.329  0.00  0.00    +0.000 A 
ATOM     23  N   UNL     1      -3.303  11.737  18.317  0.00  0.00    +0.000 N 
ATOM     24  H   UNL     1      -3.682  12.635  18.581  0.00  0.00    +0.000 HD
ENDBRANCH   6  19
TORSDOF 1
ENDMDL
MODEL 9
REMARK VINA RESULT:      -6.4      8.454     11.778
REMARK  Name = 
REMARK  1 active torsions:
REMARK  status: ('A' for Active; 'I' for Inactive)
REMARK    1  A    between atoms: C_6  and  C_7
REMARK                            x       y       z     vdW  Elec       q    Type
REMARK                         _______ _______ _______ _____ _____    ______ ____
ROOT
ATOM      1  O   UNL     1       0.283  15.858  20.529  0.00  0.00    +0.000 OA
ATOM      2  C   UNL     1      -0.560  15.037  20.909  0.00  0.00    +0.000 C 
ATOM      3  N   UNL     1      -0.925  13.998  20.058  0.00  0.00    +0.000 N 
ATOM      4  C   UNL     1      -2.028  13.055  20.169  0.00  0.00    +0.000 C 
ATOM      5  C   UNL     1      -1.428  11.639  20.217  0.00  0.00    +0.000 C 
ATOM      6  C   UNL     1      -0.699  11.310  18.911  0.00  0.00    +0.000 C 
ATOM      7  C   UNL     1       0.278  12.441  18.535  0.00  0.00    +0.000 C 
ATOM      8  C   UNL     1      -0.277  13.861  18.741  0.00  0.00    +0.000 C 
ATOM      9  N   UNL     1      -1.191  15.222  22.150  0.00  0.00    +0.000 N 
ATOM     10  C   UNL     1      -1.144  16.558  22.760  0.00  0.00    +0.000 C 
ATOM     11  C   UNL     1      -2.551  17.061  23.081  0.00  0.00    +0.000 C 
ATOM     12  C   UNL     1      -3.327  16.075  23.946  0.00  0.00    +0.000 C 
ATOM     13  C   UNL     1      -3.033  14.634  23.636  0.00  0.00    +0.000 A 
ATOM     14  C   UNL     1      -3.912  13.633  24.076  0.00  0.00    +0.000 A 
ATOM     15  C   UNL     1      -3.597  12.287  23.891  0.00  0.00    +0.000 A 
ATOM     16  C   UNL     1      -2.334  11.940  23.424  0.00  0.00    +0.000 A 
ATOM     17  C   UNL     1      -1.444  12.938  23.023  0.00  0.00    +0.000 A 
ATOM     18  C   UNL     1      -1.863  14.262  22.955  0.00  0.00    +0.000 A 
ENDROOT
BRANCH   6  19
ATOM     19  C   UNL     1      -1.722  10.985  17.862  0.00  0.00    +0.000 A 
ATOM     20  N   UNL     1      -2.476   9.906  17.832  0.00  0.00    +0.000 NA
ATOM     21  C   UNL     1      -3.117   9.916  16.630  0.00  0.00    +0.000 A 
ATOM     22  C   UNL     1      -2.756  11.028  15.912  0.00  0.00    +0.000 A 
ATOM     23  N   UNL     1      -1.867  11.701  16.706  0.00  0.00    +0.000 N 
ATOM     24  H   UNL     1      -1.370  12.546  16.467  0.00  0.00    +0.000 HD
ENDBRANCH   6  19
TORSDOF 1
ENDMDL
