MODEL 1
REMARK VINA RESULT:      -6.9      0.000      0.000
REMARK  Name = 
REMARK  2 active torsions:
REMARK  status: ('A' for Active; 'I' for Inactive)
REMARK    1  A    between atoms: C_7  and  S_8
REMARK    2  A    between atoms: S_8  and  C_9
REMARK                            x       y       z     vdW  Elec       q    Type
REMARK                         _______ _______ _______ _____ _____    ______ ____
ROOT
ATOM      1  S   UNL     1       4.297   3.595  17.434  0.00  0.00    +0.000 S 
ENDROOT
BRANCH   1   2
ATOM      2  C   UNL     1       3.442   3.727  19.070  0.00  0.00    +0.000 C 
ATOM      3  C   UNL     1       3.100   2.356  19.706  0.00  0.00    +0.000 C 
ATOM      4  N   UNL     1       1.664   2.245  20.077  0.00  0.00    +0.000 NA
ATOM      5  C   UNL     1       1.308   3.340  21.006  0.00  0.00    +0.000 C 
ATOM      6  C   UNL     1       1.607   4.722  20.405  0.00  0.00    +0.000 C 
ATOM      7  C   UNL     1       2.137   4.551  18.966  0.00  0.00    +0.000 C 
ATOM      8  C   UNL     1       1.051   3.770  18.197  0.00  0.00    +0.000 C 
ATOM      9  C   UNL     1       0.860   2.389  18.843  0.00  0.00    +0.000 C 
ENDBRANCH   1   2
BRANCH   1  16
ATOM     10 BR   UNL     1       6.043   5.071  14.802  0.00  0.00    +0.000 Br
ATOM     11  C   UNL     1       6.344   5.410  16.650  0.00  0.00    +0.000 A 
ATOM     12  C   UNL     1       7.339   6.347  16.958  0.00  0.00    +0.000 A 
ATOM     13  C   UNL     1       7.731   6.553  18.279  0.00  0.00    +0.000 A 
ATOM     14  C   UNL     1       7.150   5.798  19.295  0.00  0.00    +0.000 A 
ATOM     15  C   UNL     1       6.126   4.891  18.995  0.00  0.00    +0.000 A 
ATOM     16  C   UNL     1       5.678   4.717  17.676  0.00  0.00    +0.000 A 
ENDBRANCH   1  16
TORSDOF 2
ENDMDL
MODEL 2
REMARK VINA RESULT:      -6.8      2.875      5.904
REMARK  Name = 
REMARK  2 active torsions:
REMARK  status: ('A' for Active; 'I' for Inactive)
REMARK    1  A    between atoms: C_7  and  S_8
REMARK    2  A    between atoms: S_8  and  C_9
REMARK                            x       y       z     vdW  Elec       q    Type
REMARK                         _______ _______ _______ _____ _____    ______ ____
ROOT
ATOM      1  S   UNL     1       5.099   4.562  19.307  0.00  0.00    +0.000 S 
ENDROOT
BRANCH   1   2
ATOM      2  C   UNL     1       5.772   4.282  17.607  0.00  0.00    +0.000 C 
ATOM      3  C   UNL     1       7.230   4.774  17.425  0.00  0.00    +0.000 C 
ATOM      4  N   UNL     1       7.379   5.691  16.263  0.00  0.00    +0.000 NA
ATOM      5  C   UNL     1       6.916   5.008  15.034  0.00  0.00    +0.000 C 
ATOM      6  C   UNL     1       5.464   4.524  15.160  0.00  0.00    +0.000 C 
ATOM      7  C   UNL     1       4.895   4.959  16.527  0.00  0.00    +0.000 C 
ATOM      8  C   UNL     1       5.037   6.494  16.584  0.00  0.00    +0.000 C 
ATOM      9  C   UNL     1       6.524   6.874  16.500  0.00  0.00    +0.000 C 
ENDBRANCH   1   2
BRANCH   1  16
ATOM     10 BR   UNL     1       2.102   6.052  20.287  0.00  0.00    +0.000 Br
ATOM     11  C   UNL     1       2.267   4.338  19.476  0.00  0.00    +0.000 A 
ATOM     12  C   UNL     1       1.073   3.642  19.244  0.00  0.00    +0.000 A 
ATOM     13  C   UNL     1       1.101   2.325  18.791  0.00  0.00    +0.000 A 
ATOM     14  C   UNL     1       2.325   1.689  18.598  0.00  0.00    +0.000 A 
ATOM     15  C   UNL     1       3.519   2.395  18.789  0.00  0.00    +0.000 A 
ATOM     16  C   UNL     1       3.506   3.742  19.187  0.00  0.00    +0.000 A 
ENDBRANCH   1  16
TORSDOF 2
ENDMDL
MODEL 3
REMARK VINA RESULT:      -6.7      1.667      2.794
REMARK  Name = 
REMARK  2 active torsions:
REMARK  status: ('A' for Active; 'I' for Inactive)
REMARK    1  A    between atoms: C_7  and  S_8
REMARK    2  A    between atoms: S_8  and  C_9
REMARK                            x       y       z     vdW  Elec       q    Type
REMARK                         _______ _______ _______ _____ _____    ______ ____
ROOT
ATOM      1  S   UNL     1       4.994   4.631  19.156  0.00  0.00    +0.000 S 
ENDROOT
BRANCH   1   2
ATOM      2  C   UNL     1       3.295   3.959  18.863  0.00  0.00    +0.000 C 
ATOM      3  C   UNL     1       2.163   4.871  19.401  0.00  0.00    +0.000 C 
ATOM      4  N   UNL     1       1.225   4.144  20.296  0.00  0.00    +0.000 NA
ATOM      5  C   UNL     1       0.647   2.990  19.572  0.00  0.00    +0.000 C 
ATOM      6  C   UNL     1       1.735   2.043  19.043  0.00  0.00    +0.000 C 
ATOM      7  C   UNL     1       3.121   2.554  19.487  0.00  0.00    +0.000 C 
ATOM      8  C   UNL     1       3.077   2.637  21.027  0.00  0.00    +0.000 C 
ATOM      9  C   UNL     1       1.995   3.641  21.455  0.00  0.00    +0.000 C 
ENDBRANCH   1   2
BRANCH   1  16
ATOM     10 BR   UNL     1       7.703   6.623  18.232  0.00  0.00    +0.000 Br
ATOM     11  C   UNL     1       6.772   5.427  17.082  0.00  0.00    +0.000 A 
ATOM     12  C   UNL     1       7.241   5.339  15.764  0.00  0.00    +0.000 A 
ATOM     13  C   UNL     1       6.538   4.604  14.812  0.00  0.00    +0.000 A 
ATOM     14  C   UNL     1       5.345   3.980  15.168  0.00  0.00    +0.000 A 
ATOM     15  C   UNL     1       4.896   4.031  16.493  0.00  0.00    +0.000 A 
ATOM     16  C   UNL     1       5.625   4.717  17.477  0.00  0.00    +0.000 A 
ENDBRANCH   1  16
TORSDOF 2
ENDMDL
MODEL 4
REMARK VINA RESULT:      -6.7      2.648      5.786
REMARK  Name = 
REMARK  2 active torsions:
REMARK  status: ('A' for Active; 'I' for Inactive)
REMARK    1  A    between atoms: C_7  and  S_8
REMARK    2  A    between atoms: S_8  and  C_9
REMARK                            x       y       z     vdW  Elec       q    Type
REMARK                         _______ _______ _______ _____ _____    ______ ____
ROOT
ATOM      1  S   UNL     1       3.671   4.886  17.510  0.00  0.00    +0.000 S 
ENDROOT
BRANCH   1   2
ATOM      2  C   UNL     1       5.128   5.859  18.107  0.00  0.00    +0.000 C 
ATOM      3  C   UNL     1       5.583   6.967  17.123  0.00  0.00    +0.000 C 
ATOM      4  N   UNL     1       7.029   6.874  16.792  0.00  0.00    +0.000 NA
ATOM      5  C   UNL     1       7.825   6.942  18.039  0.00  0.00    +0.000 C 
ATOM      6  C   UNL     1       7.425   5.843  19.035  0.00  0.00    +0.000 C 
ATOM      7  C   UNL     1       6.341   4.946  18.402  0.00  0.00    +0.000 C 
ATOM      8  C   UNL     1       6.948   4.396  17.093  0.00  0.00    +0.000 C 
ATOM      9  C   UNL     1       7.269   5.564  16.147  0.00  0.00    +0.000 C 
ENDBRANCH   1   2
BRANCH   1  16
ATOM     10 BR   UNL     1       3.632   1.506  18.364  0.00  0.00    +0.000 Br
ATOM     11  C   UNL     1       3.063   2.932  19.487  0.00  0.00    +0.000 A 
ATOM     12  C   UNL     1       2.613   2.577  20.766  0.00  0.00    +0.000 A 
ATOM     13  C   UNL     1       2.041   3.531  21.604  0.00  0.00    +0.000 A 
ATOM     14  C   UNL     1       1.889   4.840  21.153  0.00  0.00    +0.000 A 
ATOM     15  C   UNL     1       2.375   5.208  19.892  0.00  0.00    +0.000 A 
ATOM     16  C   UNL     1       3.008   4.270  19.061  0.00  0.00    +0.000 A 
ENDBRANCH   1  16
TORSDOF 2
ENDMDL
MODEL 5
REMARK VINA RESULT:      -6.6      1.821      2.897
REMARK  Name = 
REMARK  2 active torsions:
REMARK  status: ('A' for Active; 'I' for Inactive)
REMARK    1  A    between atoms: C_7  and  S_8
REMARK    2  A    between atoms: S_8  and  C_9
REMARK                            x       y       z     vdW  Elec       q    Type
REMARK                         _______ _______ _______ _____ _____    ______ ____
ROOT
ATOM      1  S   UNL     1       3.937   6.026  18.294  0.00  0.00    +0.000 S 
ENDROOT
BRANCH   1   2
ATOM      2  C   UNL     1       2.762   4.606  18.130  0.00  0.00    +0.000 C 
ATOM      3  C   UNL     1       1.700   4.544  19.257  0.00  0.00    +0.000 C 
ATOM      4  N   UNL     1       1.661   3.217  19.928  0.00  0.00    +0.000 NA
ATOM      5  C   UNL     1       1.398   2.164  18.922  0.00  0.00    +0.000 C 
ATOM      6  C   UNL     1       2.444   2.172  17.797  0.00  0.00    +0.000 C 
ATOM      7  C   UNL     1       3.507   3.251  18.092  0.00  0.00    +0.000 C 
ATOM      8  C   UNL     1       4.098   2.907  19.476  0.00  0.00    +0.000 C 
ATOM      9  C   UNL     1       2.988   2.972  20.537  0.00  0.00    +0.000 C 
ENDBRANCH   1   2
BRANCH   1  16
ATOM     10 BR   UNL     1       7.245   5.524  19.277  0.00  0.00    +0.000 Br
ATOM     11  C   UNL     1       6.557   5.221  17.529  0.00  0.00    +0.000 A 
ATOM     12  C   UNL     1       7.466   4.739  16.577  0.00  0.00    +0.000 A 
ATOM     13  C   UNL     1       7.094   4.626  15.240  0.00  0.00    +0.000 A 
ATOM     14  C   UNL     1       5.820   5.025  14.843  0.00  0.00    +0.000 A 
ATOM     15  C   UNL     1       4.897   5.469  15.798  0.00  0.00    +0.000 A 
ATOM     16  C   UNL     1       5.238   5.531  17.159  0.00  0.00    +0.000 A 
ENDBRANCH   1  16
TORSDOF 2
ENDMDL
MODEL 6
REMARK VINA RESULT:      -6.6      2.634      5.901
REMARK  Name = 
REMARK  2 active torsions:
REMARK  status: ('A' for Active; 'I' for Inactive)
REMARK    1  A    between atoms: C_7  and  S_8
REMARK    2  A    between atoms: S_8  and  C_9
REMARK                            x       y       z     vdW  Elec       q    Type
REMARK                         _______ _______ _______ _____ _____    ______ ____
ROOT
ATOM      1  S   UNL     1       4.075   3.454  17.591  0.00  0.00    +0.000 S 
ENDROOT
BRANCH   1   2
ATOM      2  C   UNL     1       5.053   4.980  17.963  0.00  0.00    +0.000 C 
ATOM      3  C   UNL     1       4.845   6.120  16.934  0.00  0.00    +0.000 C 
ATOM      4  N   UNL     1       6.129   6.625  16.379  0.00  0.00    +0.000 NA
ATOM      5  C   UNL     1       6.995   7.090  17.486  0.00  0.00    +0.000 C 
ATOM      6  C   UNL     1       7.250   5.982  18.519  0.00  0.00    +0.000 C 
ATOM      7  C   UNL     1       6.568   4.679  18.052  0.00  0.00    +0.000 C 
ATOM      8  C   UNL     1       7.150   4.363  16.658  0.00  0.00    +0.000 C 
ATOM      9  C   UNL     1       6.802   5.503  15.688  0.00  0.00    +0.000 C 
ENDBRANCH   1   2
BRANCH   1  16
ATOM     10 BR   UNL     1       4.931   1.630  20.436  0.00  0.00    +0.000 Br
ATOM     11  C   UNL     1       3.377   2.712  20.248  0.00  0.00    +0.000 A 
ATOM     12  C   UNL     1       2.530   2.785  21.362  0.00  0.00    +0.000 A 
ATOM     13  C   UNL     1       1.299   3.431  21.272  0.00  0.00    +0.000 A 
ATOM     14  C   UNL     1       0.898   3.981  20.056  0.00  0.00    +0.000 A 
ATOM     15  C   UNL     1       1.760   3.946  18.953  0.00  0.00    +0.000 A 
ATOM     16  C   UNL     1       3.028   3.351  19.046  0.00  0.00    +0.000 A 
ENDBRANCH   1  16
TORSDOF 2
ENDMDL
MODEL 7
REMARK VINA RESULT:      -6.5      1.886      2.545
REMARK  Name = 
REMARK  2 active torsions:
REMARK  status: ('A' for Active; 'I' for Inactive)
REMARK    1  A    between atoms: C_7  and  S_8
REMARK    2  A    between atoms: S_8  and  C_9
REMARK                            x       y       z     vdW  Elec       q    Type
REMARK                         _______ _______ _______ _____ _____    ______ ____
ROOT
ATOM      1  S   UNL     1       4.131   6.383  18.436  0.00  0.00    +0.000 S 
ENDROOT
BRANCH   1   2
ATOM      2  C   UNL     1       3.496   4.917  19.370  0.00  0.00    +0.000 C 
ATOM      3  C   UNL     1       4.200   3.588  18.997  0.00  0.00    +0.000 C 
ATOM      4  N   UNL     1       3.236   2.522  18.616  0.00  0.00    +0.000 NA
ATOM      5  C   UNL     1       2.284   2.298  19.727  0.00  0.00    +0.000 C 
ATOM      6  C   UNL     1       1.542   3.587  20.114  0.00  0.00    +0.000 C 
ATOM      7  C   UNL     1       1.973   4.730  19.171  0.00  0.00    +0.000 C 
ATOM      8  C   UNL     1       1.660   4.249  17.739  0.00  0.00    +0.000 C 
ATOM      9  C   UNL     1       2.482   2.988  17.430  0.00  0.00    +0.000 C 
ENDBRANCH   1   2
BRANCH   1  16
ATOM     10 BR   UNL     1       7.465   5.730  19.223  0.00  0.00    +0.000 Br
ATOM     11  C   UNL     1       6.595   5.226  17.607  0.00  0.00    +0.000 A 
ATOM     12  C   UNL     1       7.370   4.519  16.678  0.00  0.00    +0.000 A 
ATOM     13  C   UNL     1       6.867   4.235  15.410  0.00  0.00    +0.000 A 
ATOM     14  C   UNL     1       5.598   4.687  15.056  0.00  0.00    +0.000 A 
ATOM     15  C   UNL     1       4.806   5.358  15.996  0.00  0.00    +0.000 A 
ATOM     16  C   UNL     1       5.276   5.597  17.297  0.00  0.00    +0.000 A 
ENDBRANCH   1  16
TORSDOF 2
ENDMDL
MODEL 8
REMARK VINA RESULT:      -6.5      2.446      5.766
REMARK  Name = 
REMARK  2 active torsions:
REMARK  status: ('A' for Active; 'I' for Inactive)
REMARK    1  A    between atoms: C_7  and  S_8
REMARK    2  A    between atoms: S_8  and  C_9
REMARK                            x       y       z     vdW  Elec       q    Type
REMARK                         _______ _______ _______ _____ _____    ______ ____
ROOT
ATOM      1  S   UNL     1       4.460   3.211  17.892  0.00  0.00    +0.000 S 
ENDROOT
BRANCH   1   2
ATOM      2  C   UNL     1       5.290   4.844  18.147  0.00  0.00    +0.000 C 
ATOM      3  C   UNL     1       4.879   5.921  17.110  0.00  0.00    +0.000 C 
ATOM      4  N   UNL     1       6.053   6.542  16.441  0.00  0.00    +0.000 NA
ATOM      5  C   UNL     1       6.946   7.134  17.463  0.00  0.00    +0.000 C 
ATOM      6  C   UNL     1       7.400   6.095  18.499  0.00  0.00    +0.000 C 
ATOM      7  C   UNL     1       6.831   4.711  18.121  0.00  0.00    +0.000 C 
ATOM      8  C   UNL     1       7.335   4.413  16.693  0.00  0.00    +0.000 C 
ATOM      9  C   UNL     1       6.790   5.477  15.726  0.00  0.00    +0.000 C 
ENDBRANCH   1   2
BRANCH   1  16
ATOM     10 BR   UNL     1       1.358   4.781  17.614  0.00  0.00    +0.000 Br
ATOM     11  C   UNL     1       1.948   3.763  19.110  0.00  0.00    +0.000 A 
ATOM     12  C   UNL     1       1.040   3.630  20.169  0.00  0.00    +0.000 A 
ATOM     13  C   UNL     1       1.431   3.030  21.363  0.00  0.00    +0.000 A 
ATOM     14  C   UNL     1       2.744   2.589  21.515  0.00  0.00    +0.000 A 
ATOM     15  C   UNL     1       3.642   2.684  20.444  0.00  0.00    +0.000 A 
ATOM     16  C   UNL     1       3.244   3.231  19.214  0.00  0.00    +0.000 A 
ENDBRANCH   1  16
TORSDOF 2
ENDMDL
MODEL 9
REMARK VINA RESULT:      -6.5      2.495      5.451
REMARK  Name = 
REMARK  2 active torsions:
REMARK  status: ('A' for Active; 'I' for Inactive)
REMARK    1  A    between atoms: C_7  and  S_8
REMARK    2  A    between atoms: S_8  and  C_9
REMARK                            x       y       z     vdW  Elec       q    Type
REMARK                         _______ _______ _______ _____ _____    ______ ____
ROOT
ATOM      1  S   UNL     1       2.835   3.884  17.170  0.00  0.00    +0.000 S 
ENDROOT
BRANCH   1   2
ATOM      2  C   UNL     1       4.678   3.746  17.083  0.00  0.00    +0.000 C 
ATOM      3  C   UNL     1       5.402   4.275  18.346  0.00  0.00    +0.000 C 
ATOM      4  N   UNL     1       6.449   5.280  18.021  0.00  0.00    +0.000 NA
ATOM      5  C   UNL     1       7.429   4.686  17.084  0.00  0.00    +0.000 C 
ATOM      6  C   UNL     1       6.757   4.170  15.803  0.00  0.00    +0.000 C 
ATOM      7  C   UNL     1       5.248   4.489  15.851  0.00  0.00    +0.000 C 
ATOM      8  C   UNL     1       5.136   6.017  16.029  0.00  0.00    +0.000 C 
ATOM      9  C   UNL     1       5.792   6.428  17.357  0.00  0.00    +0.000 C 
ENDBRANCH   1   2
BRANCH   1  16
ATOM     10 BR   UNL     1       2.551   6.731  19.163  0.00  0.00    +0.000 Br
ATOM     11  C   UNL     1       2.348   4.939  19.768  0.00  0.00    +0.000 A 
ATOM     12  C   UNL     1       2.041   4.771  21.125  0.00  0.00    +0.000 A 
ATOM     13  C   UNL     1       2.017   3.498  21.691  0.00  0.00    +0.000 A 
ATOM     14  C   UNL     1       2.332   2.390  20.908  0.00  0.00    +0.000 A 
ATOM     15  C   UNL     1       2.599   2.551  19.543  0.00  0.00    +0.000 A 
ATOM     16  C   UNL     1       2.567   3.821  18.945  0.00  0.00    +0.000 A 
ENDBRANCH   1  16
TORSDOF 2
ENDMDL
