MODEL 1
REMARK VINA RESULT:      -8.3      0.000      0.000
REMARK  Name = 
REMARK  6 active torsions:
REMARK  status: ('A' for Active; 'I' for Inactive)
REMARK    1  A    between atoms: C_1  and  C_2
REMARK    2  A    between atoms: C_2  and  O_3
REMARK    3  A    between atoms: N_6  and  C_7
REMARK    4  A    between atoms: C_7  and  C_8
REMARK    5  A    between atoms: C_16  and  O_17
REMARK    6  A    between atoms: O_17  and  C_18
REMARK                            x       y       z     vdW  Elec       q    Type
REMARK                         _______ _______ _______ _____ _____    ______ ____
ROOT
ATOM      1  C   UNL     1       2.622   3.235  20.824  0.00  0.00    +0.000 C 
ATOM      2  C   UNL     1       1.779   3.791  19.668  0.00  0.00    +0.000 C 
ATOM      3  C   UNL     1       1.766   2.833  18.470  0.00  0.00    +0.000 C 
ATOM      4  C   UNL     1       3.132   2.733  17.788  0.00  0.00    +0.000 C 
ATOM      5  N   UNL     1       3.676   4.045  17.392  0.00  0.00    +0.000 NA
ATOM      6  C   UNL     1       3.658   5.013  18.506  0.00  0.00    +0.000 C 
ATOM      7  C   UNL     1       2.264   5.172  19.149  0.00  0.00    +0.000 C 
ENDROOT
BRANCH   2   8
ATOM      8  O   UNL     1       0.437   3.870  20.176  0.00  0.00    +0.000 OA
ATOM      9  H   UNL     1       0.485   4.017  21.140  0.00  0.00    +0.000 HD
ENDBRANCH   2   8
BRANCH   5  10
ATOM     10  C   UNL     1       5.077   3.911  16.907  0.00  0.00    +0.000 C 
BRANCH  10  11
ATOM     11  C   UNL     1       6.039   4.960  17.424  0.00  0.00    +0.000 A 
ATOM     12  N   UNL     1       6.844   4.610  18.470  0.00  0.00    +0.000 NA
ATOM     13  C   UNL     1       7.731   5.532  18.902  0.00  0.00    +0.000 A 
ATOM     14  C   UNL     1       7.858   6.799  18.354  0.00  0.00    +0.000 A 
ATOM     15  C   UNL     1       7.020   7.145  17.298  0.00  0.00    +0.000 A 
ATOM     16  C   UNL     1       6.102   6.215  16.826  0.00  0.00    +0.000 A 
ATOM     17  F   UNL     1       5.287   6.546  15.817  0.00  0.00    +0.000 F 
ENDBRANCH  10  11
ENDBRANCH   5  10
BRANCH   7  18
ATOM     18  O   UNL     1       2.301   6.124  20.226  0.00  0.00    +0.000 OA
BRANCH  18  19
ATOM     19  C   UNL     1       1.863   7.395  19.957  0.00  0.00    +0.000 A 
ATOM     20  C   UNL     1       1.235   8.051  21.019  0.00  0.00    +0.000 A 
ATOM     21  C   UNL     1       0.750   9.353  20.864  0.00  0.00    +0.000 A 
ATOM     22  C   UNL     1       0.905  10.016  19.647  0.00  0.00    +0.000 A 
ATOM     23  C   UNL     1       1.542   9.375  18.590  0.00  0.00    +0.000 A 
ATOM     24  C   UNL     1       2.013   8.069  18.742  0.00  0.00    +0.000 A 
ENDBRANCH  18  19
ENDBRANCH   7  18
TORSDOF 5
ENDMDL
MODEL 2
REMARK VINA RESULT:      -8.2      0.196      1.015
REMARK  Name = 
REMARK  6 active torsions:
REMARK  status: ('A' for Active; 'I' for Inactive)
REMARK    1  A    between atoms: C_1  and  C_2
REMARK    2  A    between atoms: C_2  and  O_3
REMARK    3  A    between atoms: N_6  and  C_7
REMARK    4  A    between atoms: C_7  and  C_8
REMARK    5  A    between atoms: C_16  and  O_17
REMARK    6  A    between atoms: O_17  and  C_18
REMARK                            x       y       z     vdW  Elec       q    Type
REMARK                         _______ _______ _______ _____ _____    ______ ____
ROOT
ATOM      1  C   UNL     1       2.615   3.316  20.875  0.00  0.00    +0.000 C 
ATOM      2  C   UNL     1       1.797   3.873  19.702  0.00  0.00    +0.000 C 
ATOM      3  C   UNL     1       1.788   2.905  18.512  0.00  0.00    +0.000 C 
ATOM      4  C   UNL     1       3.162   2.782  17.850  0.00  0.00    +0.000 C 
ATOM      5  N   UNL     1       3.729   4.083  17.452  0.00  0.00    +0.000 NA
ATOM      6  C   UNL     1       3.708   5.060  18.558  0.00  0.00    +0.000 C 
ATOM      7  C   UNL     1       2.307   5.243  19.179  0.00  0.00    +0.000 C 
ENDROOT
BRANCH   2   8
ATOM      8  O   UNL     1       0.448   3.974  20.191  0.00  0.00    +0.000 OA
ATOM      9  H   UNL     1       0.128   4.879  20.016  0.00  0.00    +0.000 HD
ENDBRANCH   2   8
BRANCH   5  10
ATOM     10  C   UNL     1       5.136   3.927  16.988  0.00  0.00    +0.000 C 
BRANCH  10  11
ATOM     11  C   UNL     1       6.096   4.990  17.479  0.00  0.00    +0.000 A 
ATOM     12  N   UNL     1       6.892   4.672  18.542  0.00  0.00    +0.000 NA
ATOM     13  C   UNL     1       7.778   5.605  18.951  0.00  0.00    +0.000 A 
ATOM     14  C   UNL     1       7.911   6.854  18.363  0.00  0.00    +0.000 A 
ATOM     15  C   UNL     1       7.083   7.168  17.290  0.00  0.00    +0.000 A 
ATOM     16  C   UNL     1       6.166   6.225  16.842  0.00  0.00    +0.000 A 
ATOM     17  F   UNL     1       5.359   6.525  15.816  0.00  0.00    +0.000 F 
ENDBRANCH  10  11
ENDBRANCH   5  10
BRANCH   7  18
ATOM     18  O   UNL     1       2.342   6.203  20.249  0.00  0.00    +0.000 OA
BRANCH  18  19
ATOM     19  C   UNL     1       1.891   7.469  19.973  0.00  0.00    +0.000 A 
ATOM     20  C   UNL     1       2.125   7.918  18.671  0.00  0.00    +0.000 A 
ATOM     21  C   UNL     1       1.707   9.192  18.273  0.00  0.00    +0.000 A 
ATOM     22  C   UNL     1       1.036  10.020  19.172  0.00  0.00    +0.000 A 
ATOM     23  C   UNL     1       0.787   9.573  20.466  0.00  0.00    +0.000 A 
ATOM     24  C   UNL     1       1.218   8.307  20.866  0.00  0.00    +0.000 A 
ENDBRANCH  18  19
ENDBRANCH   7  18
TORSDOF 5
ENDMDL
MODEL 3
REMARK VINA RESULT:      -8.1      3.536      7.074
REMARK  Name = 
REMARK  6 active torsions:
REMARK  status: ('A' for Active; 'I' for Inactive)
REMARK    1  A    between atoms: C_1  and  C_2
REMARK    2  A    between atoms: C_2  and  O_3
REMARK    3  A    between atoms: N_6  and  C_7
REMARK    4  A    between atoms: C_7  and  C_8
REMARK    5  A    between atoms: C_16  and  O_17
REMARK    6  A    between atoms: O_17  and  C_18
REMARK                            x       y       z     vdW  Elec       q    Type
REMARK                         _______ _______ _______ _____ _____    ______ ____
ROOT
ATOM      1  C   UNL     1       7.546   5.688  18.299  0.00  0.00    +0.000 C 
ATOM      2  C   UNL     1       6.426   6.245  17.410  0.00  0.00    +0.000 C 
ATOM      3  C   UNL     1       5.131   6.461  18.205  0.00  0.00    +0.000 C 
ATOM      4  C   UNL     1       4.494   5.143  18.650  0.00  0.00    +0.000 C 
ATOM      5  N   UNL     1       4.264   4.208  17.535  0.00  0.00    +0.000 NA
ATOM      6  C   UNL     1       5.475   4.013  16.714  0.00  0.00    +0.000 C 
ATOM      7  C   UNL     1       6.078   5.337  16.200  0.00  0.00    +0.000 C 
ENDROOT
BRANCH   2   8
ATOM      8  O   UNL     1       6.889   7.535  16.976  0.00  0.00    +0.000 OA
ATOM      9  H   UNL     1       6.754   8.169  17.707  0.00  0.00    +0.000 HD
ENDBRANCH   2   8
BRANCH   5  10
ATOM     10  C   UNL     1       3.820   2.880  18.042  0.00  0.00    +0.000 C 
BRANCH  10  11
ATOM     11  C   UNL     1       2.903   2.926  19.246  0.00  0.00    +0.000 A 
ATOM     12  N   UNL     1       3.439   2.578  20.454  0.00  0.00    +0.000 NA
ATOM     13  C   UNL     1       2.632   2.660  21.534  0.00  0.00    +0.000 A 
ATOM     14  C   UNL     1       1.307   3.063  21.479  0.00  0.00    +0.000 A 
ATOM     15  C   UNL     1       0.772   3.400  20.239  0.00  0.00    +0.000 A 
ATOM     16  C   UNL     1       1.580   3.332  19.110  0.00  0.00    +0.000 A 
ATOM     17  F   UNL     1       1.068   3.646  17.913  0.00  0.00    +0.000 F 
ENDBRANCH  10  11
ENDBRANCH   5  10
BRANCH   7  18
ATOM     18  O   UNL     1       7.253   5.092  15.408  0.00  0.00    +0.000 OA
BRANCH  18  19
ATOM     19  C   UNL     1       7.063   4.702  14.106  0.00  0.00    +0.000 A 
ATOM     20  C   UNL     1       7.847   5.368  13.160  0.00  0.00    +0.000 A 
ATOM     21  C   UNL     1       7.743   5.052  11.802  0.00  0.00    +0.000 A 
ATOM     22  C   UNL     1       6.865   4.054  11.382  0.00  0.00    +0.000 A 
ATOM     23  C   UNL     1       6.092   3.377  12.320  0.00  0.00    +0.000 A 
ATOM     24  C   UNL     1       6.187   3.704  13.674  0.00  0.00    +0.000 A 
ENDBRANCH  18  19
ENDBRANCH   7  18
TORSDOF 5
ENDMDL
MODEL 4
REMARK VINA RESULT:      -7.9      3.615      7.168
REMARK  Name = 
REMARK  6 active torsions:
REMARK  status: ('A' for Active; 'I' for Inactive)
REMARK    1  A    between atoms: C_1  and  C_2
REMARK    2  A    between atoms: C_2  and  O_3
REMARK    3  A    between atoms: N_6  and  C_7
REMARK    4  A    between atoms: C_7  and  C_8
REMARK    5  A    between atoms: C_16  and  O_17
REMARK    6  A    between atoms: O_17  and  C_18
REMARK                            x       y       z     vdW  Elec       q    Type
REMARK                         _______ _______ _______ _____ _____    ______ ____
ROOT
ATOM      1  C   UNL     1       7.593   5.808  18.304  0.00  0.00    +0.000 C 
ATOM      2  C   UNL     1       6.475   6.399  17.433  0.00  0.00    +0.000 C 
ATOM      3  C   UNL     1       5.189   6.617  18.240  0.00  0.00    +0.000 C 
ATOM      4  C   UNL     1       4.536   5.299  18.662  0.00  0.00    +0.000 C 
ATOM      5  N   UNL     1       4.286   4.389  17.530  0.00  0.00    +0.000 NA
ATOM      6  C   UNL     1       5.490   4.195  16.698  0.00  0.00    +0.000 C 
ATOM      7  C   UNL     1       6.109   5.521  16.207  0.00  0.00    +0.000 C 
ENDROOT
BRANCH   2   8
ATOM      8  O   UNL     1       6.954   7.691  17.022  0.00  0.00    +0.000 OA
ATOM      9  H   UNL     1       6.286   8.090  16.433  0.00  0.00    +0.000 HD
ENDBRANCH   2   8
BRANCH   5  10
ATOM     10  C   UNL     1       3.827   3.058  18.012  0.00  0.00    +0.000 C 
BRANCH  10  11
ATOM     11  C   UNL     1       2.927   3.091  19.229  0.00  0.00    +0.000 A 
ATOM     12  N   UNL     1       1.663   3.581  19.061  0.00  0.00    +0.000 NA
ATOM     13  C   UNL     1       0.848   3.570  20.137  0.00  0.00    +0.000 A 
ATOM     14  C   UNL     1       1.225   3.104  21.387  0.00  0.00    +0.000 A 
ATOM     15  C   UNL     1       2.520   2.621  21.546  0.00  0.00    +0.000 A 
ATOM     16  C   UNL     1       3.381   2.613  20.455  0.00  0.00    +0.000 A 
ATOM     17  F   UNL     1       4.631   2.159  20.605  0.00  0.00    +0.000 F 
ENDBRANCH  10  11
ENDBRANCH   5  10
BRANCH   7  18
ATOM     18  O   UNL     1       7.275   5.275  15.403  0.00  0.00    +0.000 OA
BRANCH  18  19
ATOM     19  C   UNL     1       7.075   4.794  14.134  0.00  0.00    +0.000 A 
ATOM     20  C   UNL     1       7.852   5.389  13.137  0.00  0.00    +0.000 A 
ATOM     21  C   UNL     1       7.737   4.978  11.806  0.00  0.00    +0.000 A 
ATOM     22  C   UNL     1       6.854   3.954  11.465  0.00  0.00    +0.000 A 
ATOM     23  C   UNL     1       6.087   3.348  12.454  0.00  0.00    +0.000 A 
ATOM     24  C   UNL     1       6.193   3.770  13.781  0.00  0.00    +0.000 A 
ENDBRANCH  18  19
ENDBRANCH   7  18
TORSDOF 5
ENDMDL
MODEL 5
REMARK VINA RESULT:      -7.9      3.613      7.115
REMARK  Name = 
REMARK  6 active torsions:
REMARK  status: ('A' for Active; 'I' for Inactive)
REMARK    1  A    between atoms: C_1  and  C_2
REMARK    2  A    between atoms: C_2  and  O_3
REMARK    3  A    between atoms: N_6  and  C_7
REMARK    4  A    between atoms: C_7  and  C_8
REMARK    5  A    between atoms: C_16  and  O_17
REMARK    6  A    between atoms: O_17  and  C_18
REMARK                            x       y       z     vdW  Elec       q    Type
REMARK                         _______ _______ _______ _____ _____    ______ ____
ROOT
ATOM      1  C   UNL     1       7.565   5.894  18.337  0.00  0.00    +0.000 C 
ATOM      2  C   UNL     1       6.455   6.431  17.423  0.00  0.00    +0.000 C 
ATOM      3  C   UNL     1       5.138   6.617  18.188  0.00  0.00    +0.000 C 
ATOM      4  C   UNL     1       4.518   5.285  18.615  0.00  0.00    +0.000 C 
ATOM      5  N   UNL     1       4.333   4.348  17.492  0.00  0.00    +0.000 NA
ATOM      6  C   UNL     1       5.567   4.182  16.700  0.00  0.00    +0.000 C 
ATOM      7  C   UNL     1       6.154   5.519  16.202  0.00  0.00    +0.000 C 
ENDROOT
BRANCH   2   8
ATOM      8  O   UNL     1       6.902   7.731  17.003  0.00  0.00    +0.000 OA
ATOM      9  H   UNL     1       7.875   7.708  16.927  0.00  0.00    +0.000 HD
ENDBRANCH   2   8
BRANCH   5  10
ATOM     10  C   UNL     1       3.905   3.011  17.986  0.00  0.00    +0.000 C 
BRANCH  10  11
ATOM     11  C   UNL     1       2.968   3.034  19.175  0.00  0.00    +0.000 A 
ATOM     12  N   UNL     1       1.695   3.477  18.960  0.00  0.00    +0.000 NA
ATOM     13  C   UNL     1       0.848   3.457  20.012  0.00  0.00    +0.000 A 
ATOM     14  C   UNL     1       1.202   3.025  21.281  0.00  0.00    +0.000 A 
ATOM     15  C   UNL     1       2.508   2.589  21.487  0.00  0.00    +0.000 A 
ATOM     16  C   UNL     1       3.401   2.592  20.422  0.00  0.00    +0.000 A 
ATOM     17  F   UNL     1       4.660   2.182  20.616  0.00  0.00    +0.000 F 
ENDBRANCH  10  11
ENDBRANCH   5  10
BRANCH   7  18
ATOM     18  O   UNL     1       7.352   5.301  15.437  0.00  0.00    +0.000 OA
BRANCH  18  19
ATOM     19  C   UNL     1       7.202   4.863  14.146  0.00  0.00    +0.000 A 
ATOM     20  C   UNL     1       6.242   3.866  13.958  0.00  0.00    +0.000 A 
ATOM     21  C   UNL     1       5.998   3.343  12.684  0.00  0.00    +0.000 A 
ATOM     22  C   UNL     1       6.704   3.830  11.584  0.00  0.00    +0.000 A 
ATOM     23  C   UNL     1       7.651   4.833  11.761  0.00  0.00    +0.000 A 
ATOM     24  C   UNL     1       7.903   5.342  13.036  0.00  0.00    +0.000 A 
ENDBRANCH  18  19
ENDBRANCH   7  18
TORSDOF 5
ENDMDL
MODEL 6
REMARK VINA RESULT:      -7.7      3.390      6.790
REMARK  Name = 
REMARK  6 active torsions:
REMARK  status: ('A' for Active; 'I' for Inactive)
REMARK    1  A    between atoms: C_1  and  C_2
REMARK    2  A    between atoms: C_2  and  O_3
REMARK    3  A    between atoms: N_6  and  C_7
REMARK    4  A    between atoms: C_7  and  C_8
REMARK    5  A    between atoms: C_16  and  O_17
REMARK    6  A    between atoms: O_17  and  C_18
REMARK                            x       y       z     vdW  Elec       q    Type
REMARK                         _______ _______ _______ _____ _____    ______ ____
ROOT
ATOM      1  C   UNL     1       6.101   5.517  18.570  0.00  0.00    +0.000 C 
ATOM      2  C   UNL     1       5.413   6.104  17.330  0.00  0.00    +0.000 C 
ATOM      3  C   UNL     1       4.105   6.817  17.696  0.00  0.00    +0.000 C 
ATOM      4  C   UNL     1       3.024   5.844  18.171  0.00  0.00    +0.000 C 
ATOM      5  N   UNL     1       2.766   4.755  17.211  0.00  0.00    +0.000 NA
ATOM      6  C   UNL     1       4.009   4.077  16.794  0.00  0.00    +0.000 C 
ATOM      7  C   UNL     1       5.075   5.047  16.244  0.00  0.00    +0.000 C 
ENDROOT
BRANCH   2   8
ATOM      8  O   UNL     1       6.322   7.097  16.823  0.00  0.00    +0.000 OA
ATOM      9  H   UNL     1       6.767   6.728  16.037  0.00  0.00    +0.000 HD
ENDBRANCH   2   8
BRANCH   5  10
ATOM     10  C   UNL     1       1.849   3.739  17.798  0.00  0.00    +0.000 C 
BRANCH  10  11
ATOM     11  C   UNL     1       2.218   3.268  19.189  0.00  0.00    +0.000 A 
ATOM     12  N   UNL     1       3.380   2.562  19.323  0.00  0.00    +0.000 NA
ATOM     13  C   UNL     1       3.730   2.179  20.570  0.00  0.00    +0.000 A 
ATOM     14  C   UNL     1       2.977   2.453  21.701  0.00  0.00    +0.000 A 
ATOM     15  C   UNL     1       1.789   3.161  21.546  0.00  0.00    +0.000 A 
ATOM     16  C   UNL     1       1.406   3.575  20.276  0.00  0.00    +0.000 A 
ATOM     17  F   UNL     1       0.259   4.248  20.119  0.00  0.00    +0.000 F 
ENDBRANCH  10  11
ENDBRANCH   5  10
BRANCH   7  18
ATOM     18  O   UNL     1       6.263   4.337  15.853  0.00  0.00    +0.000 OA
BRANCH  18  19
ATOM     19  C   UNL     1       6.627   4.401  14.532  0.00  0.00    +0.000 A 
ATOM     20  C   UNL     1       5.946   3.528  13.680  0.00  0.00    +0.000 A 
ATOM     21  C   UNL     1       6.231   3.506  12.310  0.00  0.00    +0.000 A 
ATOM     22  C   UNL     1       7.188   4.370  11.782  0.00  0.00    +0.000 A 
ATOM     23  C   UNL     1       7.859   5.252  12.622  0.00  0.00    +0.000 A 
ATOM     24  C   UNL     1       7.584   5.262  13.991  0.00  0.00    +0.000 A 
ENDBRANCH  18  19
ENDBRANCH   7  18
TORSDOF 5
ENDMDL
MODEL 7
REMARK VINA RESULT:      -7.7      1.445      1.702
REMARK  Name = 
REMARK  6 active torsions:
REMARK  status: ('A' for Active; 'I' for Inactive)
REMARK    1  A    between atoms: C_1  and  C_2
REMARK    2  A    between atoms: C_2  and  O_3
REMARK    3  A    between atoms: N_6  and  C_7
REMARK    4  A    between atoms: C_7  and  C_8
REMARK    5  A    between atoms: C_16  and  O_17
REMARK    6  A    between atoms: O_17  and  C_18
REMARK                            x       y       z     vdW  Elec       q    Type
REMARK                         _______ _______ _______ _____ _____    ______ ____
ROOT
ATOM      1  C   UNL     1       2.355   3.877  21.619  0.00  0.00    +0.000 C 
ATOM      2  C   UNL     1       1.873   4.171  20.192  0.00  0.00    +0.000 C 
ATOM      3  C   UNL     1       2.253   3.041  19.226  0.00  0.00    +0.000 C 
ATOM      4  C   UNL     1       3.763   2.958  18.991  0.00  0.00    +0.000 C 
ATOM      5  N   UNL     1       4.348   4.236  18.546  0.00  0.00    +0.000 NA
ATOM      6  C   UNL     1       3.962   5.359  19.422  0.00  0.00    +0.000 C 
ATOM      7  C   UNL     1       2.435   5.492  19.601  0.00  0.00    +0.000 C 
ENDROOT
BRANCH   2   8
ATOM      8  O   UNL     1       0.438   4.208  20.274  0.00  0.00    +0.000 OA
ATOM      9  H   UNL     1       0.147   3.477  20.852  0.00  0.00    +0.000 HD
ENDBRANCH   2   8
BRANCH   5  10
ATOM     10  C   UNL     1       5.834   4.153  18.513  0.00  0.00    +0.000 C 
BRANCH  10  11
ATOM     11  C   UNL     1       6.542   5.441  18.148  0.00  0.00    +0.000 A 
ATOM     12  N   UNL     1       6.163   6.057  16.990  0.00  0.00    +0.000 NA
ATOM     13  C   UNL     1       6.764   7.228  16.687  0.00  0.00    +0.000 A 
ATOM     14  C   UNL     1       7.738   7.822  17.475  0.00  0.00    +0.000 A 
ATOM     15  C   UNL     1       8.123   7.175  18.645  0.00  0.00    +0.000 A 
ATOM     16  C   UNL     1       7.517   5.972  18.987  0.00  0.00    +0.000 A 
ATOM     17  F   UNL     1       7.891   5.340  20.106  0.00  0.00    +0.000 F 
ENDBRANCH  10  11
ENDBRANCH   5  10
BRANCH   7  18
ATOM     18  O   UNL     1       2.114   6.598  20.461  0.00  0.00    +0.000 OA
BRANCH  18  19
ATOM     19  C   UNL     1       1.810   7.794  19.861  0.00  0.00    +0.000 A 
ATOM     20  C   UNL     1       1.113   8.705  20.658  0.00  0.00    +0.000 A 
ATOM     21  C   UNL     1       0.751   9.959  20.154  0.00  0.00    +0.000 A 
ATOM     22  C   UNL     1       1.102  10.316  18.853  0.00  0.00    +0.000 A 
ATOM     23  C   UNL     1       1.808   9.419  18.059  0.00  0.00    +0.000 A 
ATOM     24  C   UNL     1       2.155   8.163  18.559  0.00  0.00    +0.000 A 
ENDBRANCH  18  19
ENDBRANCH   7  18
TORSDOF 5
ENDMDL
MODEL 8
REMARK VINA RESULT:      -7.6      1.418      1.666
REMARK  Name = 
REMARK  6 active torsions:
REMARK  status: ('A' for Active; 'I' for Inactive)
REMARK    1  A    between atoms: C_1  and  C_2
REMARK    2  A    between atoms: C_2  and  O_3
REMARK    3  A    between atoms: N_6  and  C_7
REMARK    4  A    between atoms: C_7  and  C_8
REMARK    5  A    between atoms: C_16  and  O_17
REMARK    6  A    between atoms: O_17  and  C_18
REMARK                            x       y       z     vdW  Elec       q    Type
REMARK                         _______ _______ _______ _____ _____    ______ ____
ROOT
ATOM      1  C   UNL     1       3.404   3.892  19.960  0.00  0.00    +0.000 C 
ATOM      2  C   UNL     1       2.463   4.436  18.876  0.00  0.00    +0.000 C 
ATOM      3  C   UNL     1       2.552   3.609  17.587  0.00  0.00    +0.000 C 
ATOM      4  C   UNL     1       3.900   3.770  16.882  0.00  0.00    +0.000 C 
ATOM      5  N   UNL     1       4.248   5.177  16.616  0.00  0.00    +0.000 NA
ATOM      6  C   UNL     1       4.125   6.017  17.823  0.00  0.00    +0.000 C 
ATOM      7  C   UNL     1       2.739   5.916  18.495  0.00  0.00    +0.000 C 
ENDROOT
BRANCH   2   8
ATOM      8  O   UNL     1       1.137   4.274  19.406  0.00  0.00    +0.000 OA
ATOM      9  H   UNL     1       1.206   4.172  20.375  0.00  0.00    +0.000 HD
ENDBRANCH   2   8
BRANCH   5  10
ATOM     10  C   UNL     1       5.641   5.290  16.103  0.00  0.00    +0.000 C 
BRANCH  10  11
ATOM     11  C   UNL     1       6.605   6.016  17.017  0.00  0.00    +0.000 A 
ATOM     12  N   UNL     1       6.908   7.311  16.706  0.00  0.00    +0.000 NA
ATOM     13  C   UNL     1       7.734   7.971  17.546  0.00  0.00    +0.000 A 
ATOM     14  C   UNL     1       8.290   7.407  18.684  0.00  0.00    +0.000 A 
ATOM     15  C   UNL     1       7.983   6.082  18.980  0.00  0.00    +0.000 A 
ATOM     16  C   UNL     1       7.130   5.379  18.138  0.00  0.00    +0.000 A 
ATOM     17  F   UNL     1       6.838   4.101  18.412  0.00  0.00    +0.000 F 
ENDBRANCH  10  11
ENDBRANCH   5  10
BRANCH   7  18
ATOM     18  O   UNL     1       2.673   6.751  19.663  0.00  0.00    +0.000 OA
BRANCH  18  19
ATOM     19  C   UNL     1       1.930   7.901  19.572  0.00  0.00    +0.000 A 
ATOM     20  C   UNL     1       1.280   8.290  20.746  0.00  0.00    +0.000 A 
ATOM     21  C   UNL     1       0.497   9.448  20.774  0.00  0.00    +0.000 A 
ATOM     22  C   UNL     1       0.372  10.235  19.630  0.00  0.00    +0.000 A 
ATOM     23  C   UNL     1       1.027   9.862  18.462  0.00  0.00    +0.000 A 
ATOM     24  C   UNL     1       1.797   8.697  18.431  0.00  0.00    +0.000 A 
ENDBRANCH  18  19
ENDBRANCH   7  18
TORSDOF 5
ENDMDL
MODEL 9
REMARK VINA RESULT:      -7.6      1.379      1.902
REMARK  Name = 
REMARK  6 active torsions:
REMARK  status: ('A' for Active; 'I' for Inactive)
REMARK    1  A    between atoms: C_1  and  C_2
REMARK    2  A    between atoms: C_2  and  O_3
REMARK    3  A    between atoms: N_6  and  C_7
REMARK    4  A    between atoms: C_7  and  C_8
REMARK    5  A    between atoms: C_16  and  O_17
REMARK    6  A    between atoms: O_17  and  C_18
REMARK                            x       y       z     vdW  Elec       q    Type
REMARK                         _______ _______ _______ _____ _____    ______ ____
ROOT
ATOM      1  C   UNL     1       3.377   3.766  20.029  0.00  0.00    +0.000 C 
ATOM      2  C   UNL     1       2.434   4.320  18.952  0.00  0.00    +0.000 C 
ATOM      3  C   UNL     1       2.504   3.492  17.662  0.00  0.00    +0.000 C 
ATOM      4  C   UNL     1       3.848   3.640  16.947  0.00  0.00    +0.000 C 
ATOM      5  N   UNL     1       4.208   5.044  16.678  0.00  0.00    +0.000 NA
ATOM      6  C   UNL     1       4.102   5.885  17.886  0.00  0.00    +0.000 C 
ATOM      7  C   UNL     1       2.721   5.797  18.568  0.00  0.00    +0.000 C 
ENDROOT
BRANCH   2   8
ATOM      8  O   UNL     1       1.110   4.172  19.492  0.00  0.00    +0.000 OA
ATOM      9  H   UNL     1       0.890   3.221  19.502  0.00  0.00    +0.000 HD
ENDBRANCH   2   8
BRANCH   5  10
ATOM     10  C   UNL     1       5.598   5.143  16.155  0.00  0.00    +0.000 C 
BRANCH  10  11
ATOM     11  C   UNL     1       6.557   5.927  17.024  0.00  0.00    +0.000 A 
ATOM     12  N   UNL     1       6.836   7.211  16.649  0.00  0.00    +0.000 NA
ATOM     13  C   UNL     1       7.658   7.923  17.449  0.00  0.00    +0.000 A 
ATOM     14  C   UNL     1       8.233   7.424  18.607  0.00  0.00    +0.000 A 
ATOM     15  C   UNL     1       7.951   6.109  18.968  0.00  0.00    +0.000 A 
ATOM     16  C   UNL     1       7.102   5.353  18.169  0.00  0.00    +0.000 A 
ATOM     17  F   UNL     1       6.835   4.085  18.506  0.00  0.00    +0.000 F 
ENDBRANCH  10  11
ENDBRANCH   5  10
BRANCH   7  18
ATOM     18  O   UNL     1       2.672   6.633  19.737  0.00  0.00    +0.000 OA
BRANCH  18  19
ATOM     19  C   UNL     1       1.991   7.820  19.632  0.00  0.00    +0.000 A 
ATOM     20  C   UNL     1       2.018   8.418  18.370  0.00  0.00    +0.000 A 
ATOM     21  C   UNL     1       1.357   9.629  18.142  0.00  0.00    +0.000 A 
ATOM     22  C   UNL     1       0.648  10.242  19.175  0.00  0.00    +0.000 A 
ATOM     23  C   UNL     1       0.605   9.645  20.430  0.00  0.00    +0.000 A 
ATOM     24  C   UNL     1       1.278   8.444  20.659  0.00  0.00    +0.000 A 
ENDBRANCH  18  19
ENDBRANCH   7  18
TORSDOF 5
ENDMDL
