MODEL 1
REMARK VINA RESULT:      -7.5      0.000      0.000
REMARK  Name = 
REMARK  7 active torsions:
REMARK  status: ('A' for Active; 'I' for Inactive)
REMARK    1  A    between atoms: C_4  and  C_5
REMARK    2  A    between atoms: C_5  and  C_6
REMARK    3  A    between atoms: N_9  and  C_10
REMARK    4  A    between atoms: C_10  and  C_11
REMARK    5  A    between atoms: C_11  and  C_12
REMARK    6  A    between atoms: C_12  and  S_13
REMARK    7  A    between atoms: S_13  and  C_14
REMARK                            x       y       z     vdW  Elec       q    Type
REMARK                         _______ _______ _______ _____ _____    ______ ____
ROOT
ATOM      1  C   UNL     1       4.656   4.767  17.235  0.00  0.00    +0.000 C 
ATOM      2  C   UNL     1       5.520   4.448  18.462  0.00  0.00    +0.000 C 
ATOM      3  C   UNL     1       6.383   5.602  18.975  0.00  0.00    +0.000 C 
ATOM      4  N   UNL     1       7.178   6.223  17.904  0.00  0.00    +0.000 NA
ATOM      5  C   UNL     1       6.264   6.785  16.894  0.00  0.00    +0.000 C 
ATOM      6  C   UNL     1       5.393   5.698  16.252  0.00  0.00    +0.000 C 
ENDROOT
BRANCH   1   7
ATOM      7  C   UNL     1       3.247   5.295  17.590  0.00  0.00    +0.000 C 
BRANCH   7  11
ATOM      8  C   UNL     1       0.800   2.951  20.304  0.00  0.00    +0.000 A 
ATOM      9  C   UNL     1       1.406   4.125  20.738  0.00  0.00    +0.000 A 
ATOM     10  C   UNL     1       2.219   4.863  19.870  0.00  0.00    +0.000 A 
ATOM     11  C   UNL     1       2.440   4.433  18.552  0.00  0.00    +0.000 A 
ATOM     12  C   UNL     1       1.824   3.244  18.133  0.00  0.00    +0.000 A 
ATOM     13  C   UNL     1       1.009   2.504  19.004  0.00  0.00    +0.000 A 
ENDBRANCH   7  11
ENDBRANCH   1   7
BRANCH   4  14
ATOM     14  C   UNL     1       8.052   7.300  18.426  0.00  0.00    +0.000 C 
BRANCH  14  15
ATOM     15  C   UNL     1       8.221   8.501  17.473  0.00  0.00    +0.000 C 
BRANCH  15  16
ATOM     16  C   UNL     1       7.997   9.864  18.144  0.00  0.00    +0.000 C 
BRANCH  16  17
ATOM     17  S   UNL     1       9.362  10.251  19.300  0.00  0.00    +0.000 S 
BRANCH  17  18
ATOM     18  C   UNL     1       9.988  11.754  18.586  0.00  0.00    +0.000 A 
ATOM     19  C   UNL     1      11.185  11.723  17.864  0.00  0.00    +0.000 A 
ATOM     20  C   UNL     1      11.653  12.871  17.224  0.00  0.00    +0.000 A 
ATOM     21  C   UNL     1      10.920  14.055  17.295  0.00  0.00    +0.000 A 
ATOM     22  C   UNL     1       9.724  14.092  18.011  0.00  0.00    +0.000 A 
ATOM     23  C   UNL     1       9.258  12.945  18.655  0.00  0.00    +0.000 A 
ENDBRANCH  17  18
ENDBRANCH  16  17
ENDBRANCH  15  16
ENDBRANCH  14  15
ENDBRANCH   4  14
TORSDOF 7
ENDMDL
MODEL 2
REMARK VINA RESULT:      -7.4      1.267      1.763
REMARK  Name = 
REMARK  7 active torsions:
REMARK  status: ('A' for Active; 'I' for Inactive)
REMARK    1  A    between atoms: C_4  and  C_5
REMARK    2  A    between atoms: C_5  and  C_6
REMARK    3  A    between atoms: N_9  and  C_10
REMARK    4  A    between atoms: C_10  and  C_11
REMARK    5  A    between atoms: C_11  and  C_12
REMARK    6  A    between atoms: C_12  and  S_13
REMARK    7  A    between atoms: S_13  and  C_14
REMARK                            x       y       z     vdW  Elec       q    Type
REMARK                         _______ _______ _______ _____ _____    ______ ____
ROOT
ATOM      1  C   UNL     1       4.457   5.360  17.182  0.00  0.00    +0.000 C 
ATOM      2  C   UNL     1       5.445   4.689  18.147  0.00  0.00    +0.000 C 
ATOM      3  C   UNL     1       6.486   5.619  18.771  0.00  0.00    +0.000 C 
ATOM      4  N   UNL     1       7.186   6.430  17.762  0.00  0.00    +0.000 NA
ATOM      5  C   UNL     1       6.205   7.285  17.071  0.00  0.00    +0.000 C 
ATOM      6  C   UNL     1       5.145   6.453  16.340  0.00  0.00    +0.000 C 
ENDROOT
BRANCH   1   7
ATOM      7  C   UNL     1       3.174   5.880  17.872  0.00  0.00    +0.000 C 
BRANCH   7  11
ATOM      8  C   UNL     1       0.719   3.023  20.030  0.00  0.00    +0.000 A 
ATOM      9  C   UNL     1       1.242   4.135  20.681  0.00  0.00    +0.000 A 
ATOM     10  C   UNL     1       2.058   5.038  19.990  0.00  0.00    +0.000 A 
ATOM     11  C   UNL     1       2.366   4.839  18.635  0.00  0.00    +0.000 A 
ATOM     12  C   UNL     1       1.833   3.708  17.996  0.00  0.00    +0.000 A 
ATOM     13  C   UNL     1       1.016   2.803  18.690  0.00  0.00    +0.000 A 
ENDBRANCH   7  11
ENDBRANCH   1   7
BRANCH   4  14
ATOM     14  C   UNL     1       8.233   7.282  18.376  0.00  0.00    +0.000 C 
BRANCH  14  15
ATOM     15  C   UNL     1       8.153   8.771  17.982  0.00  0.00    +0.000 C 
BRANCH  15  16
ATOM     16  C   UNL     1       8.844   9.715  18.975  0.00  0.00    +0.000 C 
BRANCH  16  17
ATOM     17  S   UNL     1       9.656  11.101  18.097  0.00  0.00    +0.000 S 
BRANCH  17  18
ATOM     18  C   UNL     1       9.697  12.330  19.381  0.00  0.00    +0.000 A 
ATOM     19  C   UNL     1       9.477  13.672  19.053  0.00  0.00    +0.000 A 
ATOM     20  C   UNL     1       9.421  14.642  20.054  0.00  0.00    +0.000 A 
ATOM     21  C   UNL     1       9.575  14.275  21.389  0.00  0.00    +0.000 A 
ATOM     22  C   UNL     1       9.793  12.939  21.724  0.00  0.00    +0.000 A 
ATOM     23  C   UNL     1       9.853  11.968  20.724  0.00  0.00    +0.000 A 
ENDBRANCH  17  18
ENDBRANCH  16  17
ENDBRANCH  15  16
ENDBRANCH  14  15
ENDBRANCH   4  14
TORSDOF 7
ENDMDL
MODEL 3
REMARK VINA RESULT:      -7.3      0.424      1.479
REMARK  Name = 
REMARK  7 active torsions:
REMARK  status: ('A' for Active; 'I' for Inactive)
REMARK    1  A    between atoms: C_4  and  C_5
REMARK    2  A    between atoms: C_5  and  C_6
REMARK    3  A    between atoms: N_9  and  C_10
REMARK    4  A    between atoms: C_10  and  C_11
REMARK    5  A    between atoms: C_11  and  C_12
REMARK    6  A    between atoms: C_12  and  S_13
REMARK    7  A    between atoms: S_13  and  C_14
REMARK                            x       y       z     vdW  Elec       q    Type
REMARK                         _______ _______ _______ _____ _____    ______ ____
ROOT
ATOM      1  C   UNL     1       4.373   5.084  17.226  0.00  0.00    +0.000 C 
ATOM      2  C   UNL     1       5.331   4.591  18.319  0.00  0.00    +0.000 C 
ATOM      3  C   UNL     1       6.346   5.623  18.815  0.00  0.00    +0.000 C 
ATOM      4  N   UNL     1       7.075   6.264  17.709  0.00  0.00    +0.000 NA
ATOM      5  C   UNL     1       6.114   6.983  16.855  0.00  0.00    +0.000 C 
ATOM      6  C   UNL     1       5.083   6.030  16.237  0.00  0.00    +0.000 C 
ENDROOT
BRANCH   1   7
ATOM      7  C   UNL     1       3.065   5.696  17.778  0.00  0.00    +0.000 C 
BRANCH   7  11
ATOM      8  C   UNL     1       0.718   2.902  20.130  0.00  0.00    +0.000 A 
ATOM      9  C   UNL     1       0.912   2.688  18.770  0.00  0.00    +0.000 A 
ATOM     10  C   UNL     1       1.644   3.606  18.008  0.00  0.00    +0.000 A 
ATOM     11  C   UNL     1       2.190   4.756  18.597  0.00  0.00    +0.000 A 
ATOM     12  C   UNL     1       1.979   4.958  19.971  0.00  0.00    +0.000 A 
ATOM     13  C   UNL     1       1.245   4.038  20.734  0.00  0.00    +0.000 A 
ENDBRANCH   7  11
ENDBRANCH   1   7
BRANCH   4  14
ATOM     14  C   UNL     1       8.096   7.216  18.208  0.00  0.00    +0.000 C 
BRANCH  14  15
ATOM     15  C   UNL     1       7.670   8.698  18.141  0.00  0.00    +0.000 C 
BRANCH  15  16
ATOM     16  C   UNL     1       8.806   9.655  17.757  0.00  0.00    +0.000 C 
BRANCH  16  17
ATOM     17  S   UNL     1       9.362  10.621  19.208  0.00  0.00    +0.000 S 
BRANCH  17  18
ATOM     18  C   UNL     1      10.076  12.041  18.410  0.00  0.00    +0.000 A 
ATOM     19  C   UNL     1       9.421  13.274  18.491  0.00  0.00    +0.000 A 
ATOM     20  C   UNL     1      10.003  14.418  17.945  0.00  0.00    +0.000 A 
ATOM     21  C   UNL     1      11.248  14.338  17.325  0.00  0.00    +0.000 A 
ATOM     22  C   UNL     1      11.908  13.112  17.243  0.00  0.00    +0.000 A 
ATOM     23  C   UNL     1      11.325  11.966  17.785  0.00  0.00    +0.000 A 
ENDBRANCH  17  18
ENDBRANCH  16  17
ENDBRANCH  15  16
ENDBRANCH  14  15
ENDBRANCH   4  14
TORSDOF 7
ENDMDL
MODEL 4
REMARK VINA RESULT:      -7.1      1.110      1.793
REMARK  Name = 
REMARK  7 active torsions:
REMARK  status: ('A' for Active; 'I' for Inactive)
REMARK    1  A    between atoms: C_4  and  C_5
REMARK    2  A    between atoms: C_5  and  C_6
REMARK    3  A    between atoms: N_9  and  C_10
REMARK    4  A    between atoms: C_10  and  C_11
REMARK    5  A    between atoms: C_11  and  C_12
REMARK    6  A    between atoms: C_12  and  S_13
REMARK    7  A    between atoms: S_13  and  C_14
REMARK                            x       y       z     vdW  Elec       q    Type
REMARK                         _______ _______ _______ _____ _____    ______ ____
ROOT
ATOM      1  C   UNL     1       3.875   4.839  17.252  0.00  0.00    +0.000 C 
ATOM      2  C   UNL     1       4.677   5.006  15.954  0.00  0.00    +0.000 C 
ATOM      3  C   UNL     1       6.146   5.393  16.135  0.00  0.00    +0.000 C 
ATOM      4  N   UNL     1       6.311   6.555  17.023  0.00  0.00    +0.000 NA
ATOM      5  C   UNL     1       5.788   6.216  18.358  0.00  0.00    +0.000 C 
ATOM      6  C   UNL     1       4.292   5.880  18.311  0.00  0.00    +0.000 C 
ENDROOT
BRANCH   1   7
ATOM      7  C   UNL     1       3.897   3.399  17.813  0.00  0.00    +0.000 C 
BRANCH   7  11
ATOM      8  C   UNL     1       1.383   2.842  21.308  0.00  0.00    +0.000 A 
ATOM      9  C   UNL     1       2.756   2.634  21.387  0.00  0.00    +0.000 A 
ATOM     10  C   UNL     1       3.560   2.785  20.252  0.00  0.00    +0.000 A 
ATOM     11  C   UNL     1       3.000   3.144  19.016  0.00  0.00    +0.000 A 
ATOM     12  C   UNL     1       1.612   3.345  18.954  0.00  0.00    +0.000 A 
ATOM     13  C   UNL     1       0.806   3.192  20.092  0.00  0.00    +0.000 A 
ENDBRANCH   7  11
ENDBRANCH   1   7
BRANCH   4  14
ATOM     14  C   UNL     1       7.733   6.954  17.141  0.00  0.00    +0.000 C 
BRANCH  14  15
ATOM     15  C   UNL     1       8.043   7.854  18.355  0.00  0.00    +0.000 C 
BRANCH  15  16
ATOM     16  C   UNL     1       8.315   9.319  17.989  0.00  0.00    +0.000 C 
BRANCH  16  17
ATOM     17  S   UNL     1       9.180  10.180  19.354  0.00  0.00    +0.000 S 
BRANCH  17  18
ATOM     18  C   UNL     1       9.706  11.666  18.531  0.00  0.00    +0.000 A 
ATOM     19  C   UNL     1       9.086  12.880  18.845  0.00  0.00    +0.000 A 
ATOM     20  C   UNL     1       9.537  14.070  18.275  0.00  0.00    +0.000 A 
ATOM     21  C   UNL     1      10.618  14.054  17.395  0.00  0.00    +0.000 A 
ATOM     22  C   UNL     1      11.243  12.849  17.079  0.00  0.00    +0.000 A 
ATOM     23  C   UNL     1      10.789  11.657  17.646  0.00  0.00    +0.000 A 
ENDBRANCH  17  18
ENDBRANCH  16  17
ENDBRANCH  15  16
ENDBRANCH  14  15
ENDBRANCH   4  14
TORSDOF 7
ENDMDL
MODEL 5
REMARK VINA RESULT:      -7.1      1.109      1.605
REMARK  Name = 
REMARK  7 active torsions:
REMARK  status: ('A' for Active; 'I' for Inactive)
REMARK    1  A    between atoms: C_4  and  C_5
REMARK    2  A    between atoms: C_5  and  C_6
REMARK    3  A    between atoms: N_9  and  C_10
REMARK    4  A    between atoms: C_10  and  C_11
REMARK    5  A    between atoms: C_11  and  C_12
REMARK    6  A    between atoms: C_12  and  S_13
REMARK    7  A    between atoms: S_13  and  C_14
REMARK                            x       y       z     vdW  Elec       q    Type
REMARK                         _______ _______ _______ _____ _____    ______ ____
ROOT
ATOM      1  C   UNL     1       4.546   3.594  17.088  0.00  0.00    +0.000 C 
ATOM      2  C   UNL     1       5.186   4.135  18.374  0.00  0.00    +0.000 C 
ATOM      3  C   UNL     1       5.491   5.634  18.374  0.00  0.00    +0.000 C 
ATOM      4  N   UNL     1       6.246   6.049  17.181  0.00  0.00    +0.000 NA
ATOM      5  C   UNL     1       5.434   5.775  15.982  0.00  0.00    +0.000 C 
ATOM      6  C   UNL     1       5.126   4.280  15.836  0.00  0.00    +0.000 C 
ENDROOT
BRANCH   1   7
ATOM      7  C   UNL     1       3.000   3.626  17.105  0.00  0.00    +0.000 C 
BRANCH   7  11
ATOM      8  C   UNL     1       1.325   3.481  21.107  0.00  0.00    +0.000 A 
ATOM      9  C   UNL     1       1.746   2.315  20.477  0.00  0.00    +0.000 A 
ATOM     10  C   UNL     1       2.258   2.361  19.175  0.00  0.00    +0.000 A 
ATOM     11  C   UNL     1       2.352   3.577  18.482  0.00  0.00    +0.000 A 
ATOM     12  C   UNL     1       1.918   4.744  19.132  0.00  0.00    +0.000 A 
ATOM     13  C   UNL     1       1.404   4.696  20.437  0.00  0.00    +0.000 A 
ENDBRANCH   7  11
ENDBRANCH   1   7
BRANCH   4  14
ATOM     14  C   UNL     1       6.586   7.491  17.224  0.00  0.00    +0.000 C 
BRANCH  14  15
ATOM     15  C   UNL     1       7.957   7.803  17.858  0.00  0.00    +0.000 C 
BRANCH  15  16
ATOM     16  C   UNL     1       8.324   9.293  17.844  0.00  0.00    +0.000 C 
BRANCH  16  17
ATOM     17  S   UNL     1       9.117   9.782  19.419  0.00  0.00    +0.000 S 
BRANCH  17  18
ATOM     18  C   UNL     1       9.631  11.441  19.033  0.00  0.00    +0.000 A 
ATOM     19  C   UNL     1       9.125  12.066  17.889  0.00  0.00    +0.000 A 
ATOM     20  C   UNL     1       9.447  13.395  17.612  0.00  0.00    +0.000 A 
ATOM     21  C   UNL     1      10.269  14.108  18.482  0.00  0.00    +0.000 A 
ATOM     22  C   UNL     1      10.774  13.492  19.626  0.00  0.00    +0.000 A 
ATOM     23  C   UNL     1      10.456  12.162  19.903  0.00  0.00    +0.000 A 
ENDBRANCH  17  18
ENDBRANCH  16  17
ENDBRANCH  15  16
ENDBRANCH  14  15
ENDBRANCH   4  14
TORSDOF 7
ENDMDL
MODEL 6
REMARK VINA RESULT:      -7.0      0.959      1.552
REMARK  Name = 
REMARK  7 active torsions:
REMARK  status: ('A' for Active; 'I' for Inactive)
REMARK    1  A    between atoms: C_4  and  C_5
REMARK    2  A    between atoms: C_5  and  C_6
REMARK    3  A    between atoms: N_9  and  C_10
REMARK    4  A    between atoms: C_10  and  C_11
REMARK    5  A    between atoms: C_11  and  C_12
REMARK    6  A    between atoms: C_12  and  S_13
REMARK    7  A    between atoms: S_13  and  C_14
REMARK                            x       y       z     vdW  Elec       q    Type
REMARK                         _______ _______ _______ _____ _____    ______ ____
ROOT
ATOM      1  C   UNL     1       4.621   4.481  17.407  0.00  0.00    +0.000 C 
ATOM      2  C   UNL     1       5.611   4.738  18.551  0.00  0.00    +0.000 C 
ATOM      3  C   UNL     1       6.439   6.019  18.426  0.00  0.00    +0.000 C 
ATOM      4  N   UNL     1       7.091   6.135  17.112  0.00  0.00    +0.000 NA
ATOM      5  C   UNL     1       6.055   6.189  16.066  0.00  0.00    +0.000 C 
ATOM      6  C   UNL     1       5.203   4.914  16.047  0.00  0.00    +0.000 C 
ENDROOT
BRANCH   1   7
ATOM      7  C   UNL     1       3.218   5.081  17.656  0.00  0.00    +0.000 C 
BRANCH   7  11
ATOM      8  C   UNL     1       1.011   3.052  20.796  0.00  0.00    +0.000 A 
ATOM      9  C   UNL     1       0.816   2.707  19.462  0.00  0.00    +0.000 A 
ATOM     10  C   UNL     1       1.507   3.384  18.450  0.00  0.00    +0.000 A 
ATOM     11  C   UNL     1       2.402   4.420  18.759  0.00  0.00    +0.000 A 
ATOM     12  C   UNL     1       2.582   4.757  20.110  0.00  0.00    +0.000 A 
ATOM     13  C   UNL     1       1.888   4.079  21.124  0.00  0.00    +0.000 A 
ENDBRANCH   7  11
ENDBRANCH   1   7
BRANCH   4  14
ATOM     14  C   UNL     1       7.936   7.350  17.027  0.00  0.00    +0.000 C 
BRANCH  14  15
ATOM     15  C   UNL     1       7.435   8.535  17.879  0.00  0.00    +0.000 C 
BRANCH  15  16
ATOM     16  C   UNL     1       8.352   9.764  17.835  0.00  0.00    +0.000 C 
BRANCH  16  17
ATOM     17  S   UNL     1       9.189  10.009  19.444  0.00  0.00    +0.000 S 
BRANCH  17  18
ATOM     18  C   UNL     1      10.358  11.280  19.022  0.00  0.00    +0.000 A 
ATOM     19  C   UNL     1      11.175  11.819  20.021  0.00  0.00    +0.000 A 
ATOM     20  C   UNL     1      12.157  12.757  19.699  0.00  0.00    +0.000 A 
ATOM     21  C   UNL     1      12.333  13.153  18.375  0.00  0.00    +0.000 A 
ATOM     22  C   UNL     1      11.524  12.618  17.374  0.00  0.00    +0.000 A 
ATOM     23  C   UNL     1      10.539  11.683  17.695  0.00  0.00    +0.000 A 
ENDBRANCH  17  18
ENDBRANCH  16  17
ENDBRANCH  15  16
ENDBRANCH  14  15
ENDBRANCH   4  14
TORSDOF 7
ENDMDL
MODEL 7
REMARK VINA RESULT:      -7.0      5.131      8.663
REMARK  Name = 
REMARK  7 active torsions:
REMARK  status: ('A' for Active; 'I' for Inactive)
REMARK    1  A    between atoms: C_4  and  C_5
REMARK    2  A    between atoms: C_5  and  C_6
REMARK    3  A    between atoms: N_9  and  C_10
REMARK    4  A    between atoms: C_10  and  C_11
REMARK    5  A    between atoms: C_11  and  C_12
REMARK    6  A    between atoms: C_12  and  S_13
REMARK    7  A    between atoms: S_13  and  C_14
REMARK                            x       y       z     vdW  Elec       q    Type
REMARK                         _______ _______ _______ _____ _____    ______ ____
ROOT
ATOM      1  C   UNL     1       6.374   5.615  17.048  0.00  0.00    +0.000 C 
ATOM      2  C   UNL     1       6.233   5.482  18.570  0.00  0.00    +0.000 C 
ATOM      3  C   UNL     1       4.797   5.461  19.096  0.00  0.00    +0.000 C 
ATOM      4  N   UNL     1       3.996   6.580  18.576  0.00  0.00    +0.000 NA
ATOM      5  C   UNL     1       3.918   6.472  17.109  0.00  0.00    +0.000 C 
ATOM      6  C   UNL     1       5.305   6.558  16.461  0.00  0.00    +0.000 C 
ENDROOT
BRANCH   1   7
ATOM      7  C   UNL     1       6.419   4.257  16.310  0.00  0.00    +0.000 C 
BRANCH   7  11
ATOM      8  C   UNL     1       7.075   4.350  12.019  0.00  0.00    +0.000 A 
ATOM      9  C   UNL     1       7.830   5.155  12.865  0.00  0.00    +0.000 A 
ATOM     10  C   UNL     1       7.596   5.145  14.245  0.00  0.00    +0.000 A 
ATOM     11  C   UNL     1       6.597   4.330  14.799  0.00  0.00    +0.000 A 
ATOM     12  C   UNL     1       5.842   3.527  13.930  0.00  0.00    +0.000 A 
ATOM     13  C   UNL     1       6.076   3.538  12.547  0.00  0.00    +0.000 A 
ENDBRANCH   7  11
ENDBRANCH   1   7
BRANCH   4  14
ATOM     14  C   UNL     1       2.625   6.580  19.141  0.00  0.00    +0.000 C 
BRANCH  14  15
ATOM     15  C   UNL     1       2.495   5.853  20.496  0.00  0.00    +0.000 C 
BRANCH  15  16
ATOM     16  C   UNL     1       1.140   5.164  20.705  0.00  0.00    +0.000 C 
BRANCH  16  17
ATOM     17  S   UNL     1       1.364   3.383  21.064  0.00  0.00    +0.000 S 
BRANCH  17  18
ATOM     18  C   UNL     1       2.240   2.857  19.609  0.00  0.00    +0.000 A 
ATOM     19  C   UNL     1       1.772   3.242  18.349  0.00  0.00    +0.000 A 
ATOM     20  C   UNL     1       2.488   2.912  17.199  0.00  0.00    +0.000 A 
ATOM     21  C   UNL     1       3.684   2.204  17.304  0.00  0.00    +0.000 A 
ATOM     22  C   UNL     1       4.159   1.819  18.557  0.00  0.00    +0.000 A 
ATOM     23  C   UNL     1       3.441   2.145  19.708  0.00  0.00    +0.000 A 
ENDBRANCH  17  18
ENDBRANCH  16  17
ENDBRANCH  15  16
ENDBRANCH  14  15
ENDBRANCH   4  14
TORSDOF 7
ENDMDL
MODEL 8
REMARK VINA RESULT:      -6.9      4.899      8.672
REMARK  Name = 
REMARK  7 active torsions:
REMARK  status: ('A' for Active; 'I' for Inactive)
REMARK    1  A    between atoms: C_4  and  C_5
REMARK    2  A    between atoms: C_5  and  C_6
REMARK    3  A    between atoms: N_9  and  C_10
REMARK    4  A    between atoms: C_10  and  C_11
REMARK    5  A    between atoms: C_11  and  C_12
REMARK    6  A    between atoms: C_12  and  S_13
REMARK    7  A    between atoms: S_13  and  C_14
REMARK                            x       y       z     vdW  Elec       q    Type
REMARK                         _______ _______ _______ _____ _____    ______ ____
ROOT
ATOM      1  C   UNL     1       6.944   4.454  15.253  0.00  0.00    +0.000 C 
ATOM      2  C   UNL     1       5.704   3.671  15.707  0.00  0.00    +0.000 C 
ATOM      3  C   UNL     1       4.544   4.523  16.227  0.00  0.00    +0.000 C 
ATOM      4  N   UNL     1       4.977   5.488  17.250  0.00  0.00    +0.000 NA
ATOM      5  C   UNL     1       5.956   6.413  16.653  0.00  0.00    +0.000 C 
ATOM      6  C   UNL     1       7.205   5.673  16.160  0.00  0.00    +0.000 C 
ENDROOT
BRANCH   1   7
ATOM      7  C   UNL     1       6.919   4.838  13.756  0.00  0.00    +0.000 C 
BRANCH   7  11
ATOM      8  C   UNL     1       5.015   2.109  10.968  0.00  0.00    +0.000 A 
ATOM      9  C   UNL     1       4.288   3.143  11.549  0.00  0.00    +0.000 A 
ATOM     10  C   UNL     1       4.897   4.002  12.471  0.00  0.00    +0.000 A 
ATOM     11  C   UNL     1       6.244   3.838  12.828  0.00  0.00    +0.000 A 
ATOM     12  C   UNL     1       6.961   2.786  12.234  0.00  0.00    +0.000 A 
ATOM     13  C   UNL     1       6.349   1.924  11.311  0.00  0.00    +0.000 A 
ENDBRANCH   7  11
ENDBRANCH   1   7
BRANCH   4  14
ATOM     14  C   UNL     1       3.833   6.264  17.787  0.00  0.00    +0.000 C 
BRANCH  14  15
ATOM     15  C   UNL     1       3.649   6.154  19.314  0.00  0.00    +0.000 C 
BRANCH  15  16
ATOM     16  C   UNL     1       2.203   6.363  19.783  0.00  0.00    +0.000 C 
BRANCH  16  17
ATOM     17  S   UNL     1       1.605   4.907  20.716  0.00  0.00    +0.000 S 
BRANCH  17  18
ATOM     18  C   UNL     1       2.310   3.584  19.758  0.00  0.00    +0.000 A 
ATOM     19  C   UNL     1       1.736   3.247  18.529  0.00  0.00    +0.000 A 
ATOM     20  C   UNL     1       2.320   2.271  17.722  0.00  0.00    +0.000 A 
ATOM     21  C   UNL     1       3.489   1.634  18.136  0.00  0.00    +0.000 A 
ATOM     22  C   UNL     1       4.068   1.967  19.359  0.00  0.00    +0.000 A 
ATOM     23  C   UNL     1       3.482   2.941  20.169  0.00  0.00    +0.000 A 
ENDBRANCH  17  18
ENDBRANCH  16  17
ENDBRANCH  15  16
ENDBRANCH  14  15
ENDBRANCH   4  14
TORSDOF 7
ENDMDL
MODEL 9
REMARK VINA RESULT:      -6.9      4.786      8.694
REMARK  Name = 
REMARK  7 active torsions:
REMARK  status: ('A' for Active; 'I' for Inactive)
REMARK    1  A    between atoms: C_4  and  C_5
REMARK    2  A    between atoms: C_5  and  C_6
REMARK    3  A    between atoms: N_9  and  C_10
REMARK    4  A    between atoms: C_10  and  C_11
REMARK    5  A    between atoms: C_11  and  C_12
REMARK    6  A    between atoms: C_12  and  S_13
REMARK    7  A    between atoms: S_13  and  C_14
REMARK                            x       y       z     vdW  Elec       q    Type
REMARK                         _______ _______ _______ _____ _____    ______ ____
ROOT
ATOM      1  C   UNL     1       6.578   4.360  15.244  0.00  0.00    +0.000 C 
ATOM      2  C   UNL     1       5.241   3.888  15.831  0.00  0.00    +0.000 C 
ATOM      3  C   UNL     1       4.427   4.962  16.555  0.00  0.00    +0.000 C 
ATOM      4  N   UNL     1       5.227   5.689  17.553  0.00  0.00    +0.000 NA
ATOM      5  C   UNL     1       6.335   6.378  16.869  0.00  0.00    +0.000 C 
ATOM      6  C   UNL     1       7.268   5.386  16.164  0.00  0.00    +0.000 C 
ENDROOT
BRANCH   1   7
ATOM      7  C   UNL     1       6.471   4.866  13.787  0.00  0.00    +0.000 C 
BRANCH   7  11
ATOM      8  C   UNL     1       6.028   1.667  10.886  0.00  0.00    +0.000 A 
ATOM      9  C   UNL     1       7.293   2.100  11.270  0.00  0.00    +0.000 A 
ATOM     10  C   UNL     1       7.432   3.152  12.182  0.00  0.00    +0.000 A 
ATOM     11  C   UNL     1       6.305   3.790  12.723  0.00  0.00    +0.000 A 
ATOM     12  C   UNL     1       5.037   3.342  12.321  0.00  0.00    +0.000 A 
ATOM     13  C   UNL     1       4.898   2.288  11.405  0.00  0.00    +0.000 A 
ENDBRANCH   7  11
ENDBRANCH   1   7
BRANCH   4  14
ATOM     14  C   UNL     1       4.410   6.684  18.287  0.00  0.00    +0.000 C 
BRANCH  14  15
ATOM     15  C   UNL     1       2.919   6.311  18.421  0.00  0.00    +0.000 C 
BRANCH  15  16
ATOM     16  C   UNL     1       2.345   6.536  19.826  0.00  0.00    +0.000 C 
BRANCH  16  17
ATOM     17  S   UNL     1       1.421   5.062  20.395  0.00  0.00    +0.000 S 
BRANCH  17  18
ATOM     18  C   UNL     1       2.274   3.773  19.515  0.00  0.00    +0.000 A 
ATOM     19  C   UNL     1       3.485   3.287  20.017  0.00  0.00    +0.000 A 
ATOM     20  C   UNL     1       4.130   2.220  19.391  0.00  0.00    +0.000 A 
ATOM     21  C   UNL     1       3.562   1.627  18.265  0.00  0.00    +0.000 A 
ATOM     22  C   UNL     1       2.353   2.105  17.761  0.00  0.00    +0.000 A 
ATOM     23  C   UNL     1       1.709   3.175  18.384  0.00  0.00    +0.000 A 
ENDBRANCH  17  18
ENDBRANCH  16  17
ENDBRANCH  15  16
ENDBRANCH  14  15
ENDBRANCH   4  14
TORSDOF 7
ENDMDL
