MODEL 1
REMARK VINA RESULT:      -7.0      0.000      0.000
REMARK  Name = 
REMARK  13 active torsions:
REMARK  status: ('A' for Active; 'I' for Inactive)
REMARK    1  A    between atoms: C_1  and  O_2
REMARK    2  A    between atoms: O_2  and  C_3
REMARK    3  A    between atoms: C_6  and  O_7
REMARK    4  A    between atoms: O_7  and  C_8
REMARK    5  A    between atoms: C_8  and  C_9
REMARK    6  A    between atoms: C_9  and  O_10
REMARK    7  A    between atoms: C_9  and  C_11
REMARK    8  A    between atoms: C_11  and  N_12
REMARK    9  A    between atoms: C_15  and  N_16
REMARK   10  A    between atoms: N_16  and  C_27
REMARK   11  A    between atoms: C_17  and  C_19
REMARK   12  A    between atoms: C_22  and  O_23
REMARK   13  A    between atoms: O_23  and  C_24
REMARK                            x       y       z     vdW  Elec       q    Type
REMARK                         _______ _______ _______ _____ _____    ______ ____
ROOT
ATOM      1  N   UNL     1       2.604   7.882  18.454  0.00  0.00    +0.000 NA
ATOM      2  C   UNL     1       2.484   6.916  19.560  0.00  0.00    +0.000 C 
ATOM      3  C   UNL     1       3.815   6.336  20.032  0.00  0.00    +0.000 C 
ATOM      4  C   UNL     1       4.579   5.656  18.886  0.00  0.00    +0.000 C 
ATOM      5  C   UNL     1       4.784   6.774  17.833  0.00  0.00    +0.000 C 
ATOM      6  C   UNL     1       3.476   7.411  17.365  0.00  0.00    +0.000 C 
ENDROOT
BRANCH   4   7
ATOM      7  N   UNL     1       3.960   4.354  18.445  0.00  0.00    +0.000 N 
ATOM      8  C   UNL     1       4.339   3.519  17.365  0.00  0.00    +0.000 C 
ATOM      9  O   UNL     1       3.792   2.425  17.172  0.00  0.00    +0.000 OA
BRANCH   8  10
ATOM     10  C   UNL     1       5.375   3.839  16.344  0.00  0.00    +0.000 A 
ATOM     11  C   UNL     1       4.932   3.872  15.005  0.00  0.00    +0.000 A 
ATOM     12  C   UNL     1       5.737   4.385  13.986  0.00  0.00    +0.000 A 
ATOM     13  C   UNL     1       7.001   4.881  14.284  0.00  0.00    +0.000 A 
ATOM     14  C   UNL     1       7.475   4.804  15.596  0.00  0.00    +0.000 A 
ATOM     15  C   UNL     1       6.659   4.305  16.625  0.00  0.00    +0.000 A 
BRANCH  13  16
ATOM     16  O   UNL     1       7.696   5.401  13.228  0.00  0.00    +0.000 OA
ATOM     17  C   UNL     1       7.434   4.781  11.972  0.00  0.00    +0.000 C 
ENDBRANCH  13  16
ENDBRANCH   8  10
BRANCH   7  18
ATOM     18  C   UNL     1       2.932   3.790  19.272  0.00  0.00    +0.000 A 
ATOM     19  C   UNL     1       3.277   3.176  20.488  0.00  0.00    +0.000 A 
ATOM     20  C   UNL     1       2.285   2.690  21.340  0.00  0.00    +0.000 A 
ATOM     21  C   UNL     1       0.945   2.788  20.971  0.00  0.00    +0.000 A 
ATOM     22  C   UNL     1       0.598   3.346  19.740  0.00  0.00    +0.000 A 
ATOM     23  C   UNL     1       1.590   3.833  18.885  0.00  0.00    +0.000 A 
ENDBRANCH   7  18
ENDBRANCH   4   7
BRANCH   1  24
ATOM     24  C   UNL     1       1.267   8.162  17.872  0.00  0.00    +0.000 C 
BRANCH  24  25
ATOM     25  C   UNL     1       0.891   9.644  17.680  0.00  0.00    +0.000 C 
BRANCH  25  26
ATOM     26  O   UNL     1       2.073  10.436  17.888  0.00  0.00    +0.000 OA
ATOM     27  H   UNL     1       2.476  10.612  17.022  0.00  0.00    +0.000 HD
ENDBRANCH  25  26
BRANCH  25  28
ATOM     28  C   UNL     1      -0.233  10.064  18.635  0.00  0.00    +0.000 C 
BRANCH  28  29
ATOM     29  O   UNL     1       0.262  11.085  19.509  0.00  0.00    +0.000 OA
BRANCH  29  33
ATOM     30  C   UNL     1      -2.108  11.764  22.872  0.00  0.00    +0.000 A 
ATOM     31  C   UNL     1      -2.303  12.455  21.678  0.00  0.00    +0.000 A 
ATOM     32  C   UNL     1      -1.487  12.199  20.574  0.00  0.00    +0.000 A 
ATOM     33  C   UNL     1      -0.447  11.278  20.662  0.00  0.00    +0.000 A 
ATOM     34  C   UNL     1      -0.236  10.596  21.864  0.00  0.00    +0.000 A 
ATOM     35  C   UNL     1      -1.064  10.842  22.968  0.00  0.00    +0.000 A 
BRANCH  30  37
ATOM     36  C   UNL     1      -3.718  13.279  23.698  0.00  0.00    +0.000 C 
ATOM     37  O   UNL     1      -2.973  12.080  23.883  0.00  0.00    +0.000 OA
ENDBRANCH  30  37
ENDBRANCH  29  33
ENDBRANCH  28  29
ENDBRANCH  25  28
ENDBRANCH  24  25
ENDBRANCH   1  24
TORSDOF 11
ENDMDL
MODEL 2
REMARK VINA RESULT:      -6.9      3.542     10.406
REMARK  Name = 
REMARK  13 active torsions:
REMARK  status: ('A' for Active; 'I' for Inactive)
REMARK    1  A    between atoms: C_1  and  O_2
REMARK    2  A    between atoms: O_2  and  C_3
REMARK    3  A    between atoms: C_6  and  O_7
REMARK    4  A    between atoms: O_7  and  C_8
REMARK    5  A    between atoms: C_8  and  C_9
REMARK    6  A    between atoms: C_9  and  O_10
REMARK    7  A    between atoms: C_9  and  C_11
REMARK    8  A    between atoms: C_11  and  N_12
REMARK    9  A    between atoms: C_15  and  N_16
REMARK   10  A    between atoms: N_16  and  C_27
REMARK   11  A    between atoms: C_17  and  C_19
REMARK   12  A    between atoms: C_22  and  O_23
REMARK   13  A    between atoms: O_23  and  C_24
REMARK                            x       y       z     vdW  Elec       q    Type
REMARK                         _______ _______ _______ _____ _____    ______ ____
ROOT
ATOM      1  N   UNL     1       0.141  10.935  19.074  0.00  0.00    +0.000 NA
ATOM      2  C   UNL     1      -1.158  10.880  19.767  0.00  0.00    +0.000 C 
ATOM      3  C   UNL     1      -2.218  11.815  19.188  0.00  0.00    +0.000 C 
ATOM      4  C   UNL     1      -1.745  13.276  19.178  0.00  0.00    +0.000 C 
ATOM      5  C   UNL     1      -0.458  13.266  18.315  0.00  0.00    +0.000 C 
ATOM      6  C   UNL     1       0.615  12.309  18.838  0.00  0.00    +0.000 C 
ENDROOT
BRANCH   4   7
ATOM      7  N   UNL     1      -1.688  13.895  20.552  0.00  0.00    +0.000 N 
ATOM      8  C   UNL     1      -1.022  15.077  20.959  0.00  0.00    +0.000 C 
ATOM      9  O   UNL     1      -1.136  15.518  22.110  0.00  0.00    +0.000 OA
BRANCH   8  10
ATOM     10  C   UNL     1      -0.113  15.895  20.110  0.00  0.00    +0.000 A 
ATOM     11  C   UNL     1       1.269  15.696  20.315  0.00  0.00    +0.000 A 
ATOM     12  C   UNL     1       2.217  16.218  19.433  0.00  0.00    +0.000 A 
ATOM     13  C   UNL     1       1.805  16.948  18.323  0.00  0.00    +0.000 A 
ATOM     14  C   UNL     1       0.444  17.200  18.137  0.00  0.00    +0.000 A 
ATOM     15  C   UNL     1      -0.512  16.660  19.014  0.00  0.00    +0.000 A 
BRANCH  13  16
ATOM     16  O   UNL     1       2.804  17.380  17.496  0.00  0.00    +0.000 OA
ATOM     17  C   UNL     1       3.530  16.345  16.839  0.00  0.00    +0.000 C 
ENDBRANCH  13  16
ENDBRANCH   8  10
BRANCH   7  18
ATOM     18  C   UNL     1      -2.502  13.312  21.580  0.00  0.00    +0.000 A 
ATOM     19  C   UNL     1      -1.904  12.517  22.571  0.00  0.00    +0.000 A 
ATOM     20  C   UNL     1      -2.668  12.004  23.620  0.00  0.00    +0.000 A 
ATOM     21  C   UNL     1      -4.037  12.260  23.671  0.00  0.00    +0.000 A 
ATOM     22  C   UNL     1      -4.647  13.004  22.660  0.00  0.00    +0.000 A 
ATOM     23  C   UNL     1      -3.884  13.517  21.608  0.00  0.00    +0.000 A 
ENDBRANCH   7  18
ENDBRANCH   4   7
BRANCH   1  24
ATOM     24  C   UNL     1       1.177  10.233  19.872  0.00  0.00    +0.000 C 
BRANCH  24  25
ATOM     25  C   UNL     1       0.707   9.546  21.168  0.00  0.00    +0.000 C 
BRANCH  25  26
ATOM     26  O   UNL     1       1.294  10.240  22.281  0.00  0.00    +0.000 OA
ATOM     27  H   UNL     1       2.224   9.968  22.352  0.00  0.00    +0.000 HD
ENDBRANCH  25  26
BRANCH  25  28
ATOM     28  C   UNL     1       1.084   8.059  21.181  0.00  0.00    +0.000 C 
BRANCH  28  29
ATOM     29  O   UNL     1       2.044   7.816  20.147  0.00  0.00    +0.000 OA
BRANCH  29  33
ATOM     30  C   UNL     1       2.096   3.819  18.962  0.00  0.00    +0.000 A 
ATOM     31  C   UNL     1       1.724   4.204  20.249  0.00  0.00    +0.000 A 
ATOM     32  C   UNL     1       1.721   5.554  20.607  0.00  0.00    +0.000 A 
ATOM     33  C   UNL     1       2.122   6.528  19.696  0.00  0.00    +0.000 A 
ATOM     34  C   UNL     1       2.513   6.143  18.411  0.00  0.00    +0.000 A 
ATOM     35  C   UNL     1       2.503   4.790  18.047  0.00  0.00    +0.000 A 
BRANCH  30  37
ATOM     36  C   UNL     1       3.095   1.965  17.896  0.00  0.00    +0.000 C 
ATOM     37  O   UNL     1       2.048   2.475  18.714  0.00  0.00    +0.000 OA
ENDBRANCH  30  37
ENDBRANCH  29  33
ENDBRANCH  28  29
ENDBRANCH  25  28
ENDBRANCH  24  25
ENDBRANCH   1  24
TORSDOF 11
ENDMDL
MODEL 3
REMARK VINA RESULT:      -6.9      3.547     10.112
REMARK  Name = 
REMARK  13 active torsions:
REMARK  status: ('A' for Active; 'I' for Inactive)
REMARK    1  A    between atoms: C_1  and  O_2
REMARK    2  A    between atoms: O_2  and  C_3
REMARK    3  A    between atoms: C_6  and  O_7
REMARK    4  A    between atoms: O_7  and  C_8
REMARK    5  A    between atoms: C_8  and  C_9
REMARK    6  A    between atoms: C_9  and  O_10
REMARK    7  A    between atoms: C_9  and  C_11
REMARK    8  A    between atoms: C_11  and  N_12
REMARK    9  A    between atoms: C_15  and  N_16
REMARK   10  A    between atoms: N_16  and  C_27
REMARK   11  A    between atoms: C_17  and  C_19
REMARK   12  A    between atoms: C_22  and  O_23
REMARK   13  A    between atoms: O_23  and  C_24
REMARK                            x       y       z     vdW  Elec       q    Type
REMARK                         _______ _______ _______ _____ _____    ______ ____
ROOT
ATOM      1  N   UNL     1      -0.018  10.684  20.913  0.00  0.00    +0.000 NA
ATOM      2  C   UNL     1      -0.842  10.365  19.734  0.00  0.00    +0.000 C 
ATOM      3  C   UNL     1      -1.014  11.527  18.757  0.00  0.00    +0.000 C 
ATOM      4  C   UNL     1      -1.619  12.761  19.441  0.00  0.00    +0.000 C 
ATOM      5  C   UNL     1      -0.622  13.111  20.574  0.00  0.00    +0.000 C 
ATOM      6  C   UNL     1      -0.389  11.958  21.552  0.00  0.00    +0.000 C 
ENDROOT
BRANCH   4   7
ATOM      7  N   UNL     1      -3.078  12.598  19.787  0.00  0.00    +0.000 N 
ATOM      8  C   UNL     1      -4.061  11.828  19.118  0.00  0.00    +0.000 C 
ATOM      9  O   UNL     1      -5.208  11.714  19.568  0.00  0.00    +0.000 OA
BRANCH   8  10
ATOM     10  C   UNL     1      -3.869  11.109  17.827  0.00  0.00    +0.000 A 
ATOM     11  C   UNL     1      -4.156  11.849  16.661  0.00  0.00    +0.000 A 
ATOM     12  C   UNL     1      -3.797  11.380  15.396  0.00  0.00    +0.000 A 
ATOM     13  C   UNL     1      -3.139  10.161  15.269  0.00  0.00    +0.000 A 
ATOM     14  C   UNL     1      -2.898   9.392  16.410  0.00  0.00    +0.000 A 
ATOM     15  C   UNL     1      -3.242   9.872  17.685  0.00  0.00    +0.000 A 
BRANCH  13  16
ATOM     16  O   UNL     1      -2.790   9.807  13.996  0.00  0.00    +0.000 OA
ATOM     17  C   UNL     1      -3.862   9.806  13.057  0.00  0.00    +0.000 C 
ENDBRANCH  13  16
ENDBRANCH   8  10
BRANCH   7  18
ATOM     18  C   UNL     1      -3.542  13.179  21.014  0.00  0.00    +0.000 A 
ATOM     19  C   UNL     1      -3.921  14.531  21.042  0.00  0.00    +0.000 A 
ATOM     20  C   UNL     1      -4.445  15.092  22.207  0.00  0.00    +0.000 A 
ATOM     21  C   UNL     1      -4.567  14.315  23.358  0.00  0.00    +0.000 A 
ATOM     22  C   UNL     1      -4.142  12.987  23.352  0.00  0.00    +0.000 A 
ATOM     23  C   UNL     1      -3.615  12.422  22.187  0.00  0.00    +0.000 A 
ENDBRANCH   7  18
ENDBRANCH   4   7
BRANCH   1  24
ATOM     24  C   UNL     1      -0.150   9.614  21.934  0.00  0.00    +0.000 C 
BRANCH  24  25
ATOM     25  C   UNL     1       1.104   8.763  22.212  0.00  0.00    +0.000 C 
BRANCH  25  26
ATOM     26  O   UNL     1       2.160   9.646  22.629  0.00  0.00    +0.000 OA
ATOM     27  H   UNL     1       1.755  10.456  22.984  0.00  0.00    +0.000 HD
ENDBRANCH  25  26
BRANCH  25  28
ATOM     28  C   UNL     1       1.516   7.952  20.977  0.00  0.00    +0.000 C 
BRANCH  28  29
ATOM     29  O   UNL     1       1.389   6.558  21.277  0.00  0.00    +0.000 OA
BRANCH  29  33
ATOM     30  C   UNL     1       2.471   3.783  18.359  0.00  0.00    +0.000 A 
ATOM     31  C   UNL     1       1.645   3.446  19.430  0.00  0.00    +0.000 A 
ATOM     32  C   UNL     1       1.307   4.405  20.388  0.00  0.00    +0.000 A 
ATOM     33  C   UNL     1       1.817   5.698  20.304  0.00  0.00    +0.000 A 
ATOM     34  C   UNL     1       2.660   6.034  19.241  0.00  0.00    +0.000 A 
ATOM     35  C   UNL     1       2.988   5.076  18.273  0.00  0.00    +0.000 A 
BRANCH  30  37
ATOM     36  C   UNL     1       3.469   1.676  17.990  0.00  0.00    +0.000 C 
ATOM     37  O   UNL     1       2.724   2.773  17.472  0.00  0.00    +0.000 OA
ENDBRANCH  30  37
ENDBRANCH  29  33
ENDBRANCH  28  29
ENDBRANCH  25  28
ENDBRANCH  24  25
ENDBRANCH   1  24
TORSDOF 11
ENDMDL
MODEL 4
REMARK VINA RESULT:      -6.8      0.897      1.230
REMARK  Name = 
REMARK  13 active torsions:
REMARK  status: ('A' for Active; 'I' for Inactive)
REMARK    1  A    between atoms: C_1  and  O_2
REMARK    2  A    between atoms: O_2  and  C_3
REMARK    3  A    between atoms: C_6  and  O_7
REMARK    4  A    between atoms: O_7  and  C_8
REMARK    5  A    between atoms: C_8  and  C_9
REMARK    6  A    between atoms: C_9  and  O_10
REMARK    7  A    between atoms: C_9  and  C_11
REMARK    8  A    between atoms: C_11  and  N_12
REMARK    9  A    between atoms: C_15  and  N_16
REMARK   10  A    between atoms: N_16  and  C_27
REMARK   11  A    between atoms: C_17  and  C_19
REMARK   12  A    between atoms: C_22  and  O_23
REMARK   13  A    between atoms: O_23  and  C_24
REMARK                            x       y       z     vdW  Elec       q    Type
REMARK                         _______ _______ _______ _____ _____    ______ ____
ROOT
ATOM      1  N   UNL     1       2.636   7.928  18.393  0.00  0.00    +0.000 NA
ATOM      2  C   UNL     1       2.477   6.987  19.516  0.00  0.00    +0.000 C 
ATOM      3  C   UNL     1       3.789   6.399  20.030  0.00  0.00    +0.000 C 
ATOM      4  C   UNL     1       4.570   5.686  18.916  0.00  0.00    +0.000 C 
ATOM      5  C   UNL     1       4.815   6.780  17.846  0.00  0.00    +0.000 C 
ATOM      6  C   UNL     1       3.526   7.424  17.334  0.00  0.00    +0.000 C 
ENDROOT
BRANCH   4   7
ATOM      7  N   UNL     1       3.943   4.383  18.487  0.00  0.00    +0.000 N 
ATOM      8  C   UNL     1       4.316   3.537  17.414  0.00  0.00    +0.000 C 
ATOM      9  O   UNL     1       3.764   2.445  17.231  0.00  0.00    +0.000 OA
BRANCH   8  10
ATOM     10  C   UNL     1       5.352   3.844  16.389  0.00  0.00    +0.000 A 
ATOM     11  C   UNL     1       4.892   3.953  15.060  0.00  0.00    +0.000 A 
ATOM     12  C   UNL     1       5.707   4.463  14.047  0.00  0.00    +0.000 A 
ATOM     13  C   UNL     1       7.000   4.881  14.343  0.00  0.00    +0.000 A 
ATOM     14  C   UNL     1       7.489   4.727  15.642  0.00  0.00    +0.000 A 
ATOM     15  C   UNL     1       6.663   4.231  16.665  0.00  0.00    +0.000 A 
BRANCH  13  16
ATOM     16  O   UNL     1       7.706   5.406  13.296  0.00  0.00    +0.000 OA
ATOM     17  C   UNL     1       7.456   4.791  12.034  0.00  0.00    +0.000 C 
ENDBRANCH  13  16
ENDBRANCH   8  10
BRANCH   7  18
ATOM     18  C   UNL     1       2.915   3.831  19.321  0.00  0.00    +0.000 A 
ATOM     19  C   UNL     1       1.582   3.837  18.877  0.00  0.00    +0.000 A 
ATOM     20  C   UNL     1       0.581   3.238  19.641  0.00  0.00    +0.000 A 
ATOM     21  C   UNL     1       0.898   2.654  20.865  0.00  0.00    +0.000 A 
ATOM     22  C   UNL     1       2.210   2.692  21.338  0.00  0.00    +0.000 A 
ATOM     23  C   UNL     1       3.215   3.292  20.576  0.00  0.00    +0.000 A 
ENDBRANCH   7  18
ENDBRANCH   4   7
BRANCH   1  24
ATOM     24  C   UNL     1       1.316   8.214  17.775  0.00  0.00    +0.000 C 
BRANCH  24  25
ATOM     25  C   UNL     1       0.798   9.661  17.883  0.00  0.00    +0.000 C 
BRANCH  25  26
ATOM     26  O   UNL     1       1.851  10.545  17.463  0.00  0.00    +0.000 OA
ATOM     27  H   UNL     1       1.445  11.323  17.045  0.00  0.00    +0.000 HD
ENDBRANCH  25  26
BRANCH  25  28
ATOM     28  C   UNL     1       0.339   9.985  19.310  0.00  0.00    +0.000 C 
BRANCH  28  29
ATOM     29  O   UNL     1       0.870  11.260  19.687  0.00  0.00    +0.000 OA
BRANCH  29  33
ATOM     30  C   UNL     1      -0.919  13.356  22.816  0.00  0.00    +0.000 A 
ATOM     31  C   UNL     1       0.095  13.912  22.038  0.00  0.00    +0.000 A 
ATOM     32  C   UNL     1       0.670  13.176  21.000  0.00  0.00    +0.000 A 
ATOM     33  C   UNL     1       0.262  11.868  20.750  0.00  0.00    +0.000 A 
ATOM     34  C   UNL     1      -0.741  11.302  21.540  0.00  0.00    +0.000 A 
ATOM     35  C   UNL     1      -1.328  12.044  22.574  0.00  0.00    +0.000 A 
BRANCH  30  37
ATOM     36  C   UNL     1      -2.774  13.920  24.163  0.00  0.00    +0.000 C 
ATOM     37  O   UNL     1      -1.421  14.169  23.794  0.00  0.00    +0.000 OA
ENDBRANCH  30  37
ENDBRANCH  29  33
ENDBRANCH  28  29
ENDBRANCH  25  28
ENDBRANCH  24  25
ENDBRANCH   1  24
TORSDOF 11
ENDMDL
MODEL 5
REMARK VINA RESULT:      -6.8      3.322     10.003
REMARK  Name = 
REMARK  13 active torsions:
REMARK  status: ('A' for Active; 'I' for Inactive)
REMARK    1  A    between atoms: C_1  and  O_2
REMARK    2  A    between atoms: O_2  and  C_3
REMARK    3  A    between atoms: C_6  and  O_7
REMARK    4  A    between atoms: O_7  and  C_8
REMARK    5  A    between atoms: C_8  and  C_9
REMARK    6  A    between atoms: C_9  and  O_10
REMARK    7  A    between atoms: C_9  and  C_11
REMARK    8  A    between atoms: C_11  and  N_12
REMARK    9  A    between atoms: C_15  and  N_16
REMARK   10  A    between atoms: N_16  and  C_27
REMARK   11  A    between atoms: C_17  and  C_19
REMARK   12  A    between atoms: C_22  and  O_23
REMARK   13  A    between atoms: O_23  and  C_24
REMARK                            x       y       z     vdW  Elec       q    Type
REMARK                         _______ _______ _______ _____ _____    ______ ____
ROOT
ATOM      1  N   UNL     1       0.201  11.103  21.069  0.00  0.00    +0.000 NA
ATOM      2  C   UNL     1      -0.609  10.561  19.964  0.00  0.00    +0.000 C 
ATOM      3  C   UNL     1      -0.882  11.558  18.840  0.00  0.00    +0.000 C 
ATOM      4  C   UNL     1      -1.574  12.827  19.360  0.00  0.00    +0.000 C 
ATOM      5  C   UNL     1      -0.593  13.406  20.411  0.00  0.00    +0.000 C 
ATOM      6  C   UNL     1      -0.260  12.422  21.533  0.00  0.00    +0.000 C 
ENDROOT
BRANCH   4   7
ATOM      7  N   UNL     1      -3.011  12.604  19.759  0.00  0.00    +0.000 N 
ATOM      8  C   UNL     1      -3.985  11.794  19.125  0.00  0.00    +0.000 C 
ATOM      9  O   UNL     1      -5.110  11.633  19.617  0.00  0.00    +0.000 OA
BRANCH   8  10
ATOM     10  C   UNL     1      -3.811  11.083  17.827  0.00  0.00    +0.000 A 
ATOM     11  C   UNL     1      -4.253  11.776  16.680  0.00  0.00    +0.000 A 
ATOM     12  C   UNL     1      -3.936  11.331  15.395  0.00  0.00    +0.000 A 
ATOM     13  C   UNL     1      -3.167  10.185  15.228  0.00  0.00    +0.000 A 
ATOM     14  C   UNL     1      -2.770   9.457  16.353  0.00  0.00    +0.000 A 
ATOM     15  C   UNL     1      -3.072   9.915  17.647  0.00  0.00    +0.000 A 
BRANCH  13  16
ATOM     16  O   UNL     1      -2.873   9.852  13.935  0.00  0.00    +0.000 OA
ATOM     17  C   UNL     1      -3.994   9.816  13.055  0.00  0.00    +0.000 C 
ENDBRANCH  13  16
ENDBRANCH   8  10
BRANCH   7  18
ATOM     18  C   UNL     1      -3.453  13.165  21.002  0.00  0.00    +0.000 A 
ATOM     19  C   UNL     1      -3.905  14.495  21.042  0.00  0.00    +0.000 A 
ATOM     20  C   UNL     1      -4.409  15.033  22.226  0.00  0.00    +0.000 A 
ATOM     21  C   UNL     1      -4.440  14.258  23.384  0.00  0.00    +0.000 A 
ATOM     22  C   UNL     1      -3.942  12.955  23.364  0.00  0.00    +0.000 A 
ATOM     23  C   UNL     1      -3.435  12.413  22.180  0.00  0.00    +0.000 A 
ENDBRANCH   7  18
ENDBRANCH   4   7
BRANCH   1  24
ATOM     24  C   UNL     1       0.166  10.179  22.231  0.00  0.00    +0.000 C 
BRANCH  24  25
ATOM     25  C   UNL     1       1.072   8.935  22.155  0.00  0.00    +0.000 C 
BRANCH  25  26
ATOM     26  O   UNL     1       2.295   9.229  22.851  0.00  0.00    +0.000 OA
ATOM     27  H   UNL     1       2.282  10.168  23.103  0.00  0.00    +0.000 HD
ENDBRANCH  25  26
BRANCH  25  28
ATOM     28  C   UNL     1       1.346   8.530  20.701  0.00  0.00    +0.000 C 
BRANCH  28  29
ATOM     29  O   UNL     1       1.673   7.136  20.664  0.00  0.00    +0.000 OA
BRANCH  29  33
ATOM     30  C   UNL     1       4.176   6.197  17.464  0.00  0.00    +0.000 A 
ATOM     31  C   UNL     1       3.425   7.371  17.496  0.00  0.00    +0.000 A 
ATOM     32  C   UNL     1       2.597   7.648  18.586  0.00  0.00    +0.000 A 
ATOM     33  C   UNL     1       2.485   6.742  19.637  0.00  0.00    +0.000 A 
ATOM     34  C   UNL     1       3.222   5.555  19.600  0.00  0.00    +0.000 A 
ATOM     35  C   UNL     1       4.064   5.283  18.512  0.00  0.00    +0.000 A 
BRANCH  30  37
ATOM     36  C   UNL     1       6.324   5.703  16.620  0.00  0.00    +0.000 C 
ATOM     37  O   UNL     1       4.964   6.033  16.359  0.00  0.00    +0.000 OA
ENDBRANCH  30  37
ENDBRANCH  29  33
ENDBRANCH  28  29
ENDBRANCH  25  28
ENDBRANCH  24  25
ENDBRANCH   1  24
TORSDOF 11
ENDMDL
MODEL 6
REMARK VINA RESULT:      -6.8      7.472     10.298
REMARK  Name = 
REMARK  13 active torsions:
REMARK  status: ('A' for Active; 'I' for Inactive)
REMARK    1  A    between atoms: C_1  and  O_2
REMARK    2  A    between atoms: O_2  and  C_3
REMARK    3  A    between atoms: C_6  and  O_7
REMARK    4  A    between atoms: O_7  and  C_8
REMARK    5  A    between atoms: C_8  and  C_9
REMARK    6  A    between atoms: C_9  and  O_10
REMARK    7  A    between atoms: C_9  and  C_11
REMARK    8  A    between atoms: C_11  and  N_12
REMARK    9  A    between atoms: C_15  and  N_16
REMARK   10  A    between atoms: N_16  and  C_27
REMARK   11  A    between atoms: C_17  and  C_19
REMARK   12  A    between atoms: C_22  and  O_23
REMARK   13  A    between atoms: O_23  and  C_24
REMARK                            x       y       z     vdW  Elec       q    Type
REMARK                         _______ _______ _______ _____ _____    ______ ____
ROOT
ATOM      1  N   UNL     1       7.198  15.762  20.239  0.00  0.00    +0.000 NA
ATOM      2  C   UNL     1       6.854  14.942  21.414  0.00  0.00    +0.000 C 
ATOM      3  C   UNL     1       7.932  14.914  22.495  0.00  0.00    +0.000 C 
ATOM      4  C   UNL     1       9.277  14.417  21.944  0.00  0.00    +0.000 C 
ATOM      5  C   UNL     1       9.630  15.413  20.811  0.00  0.00    +0.000 C 
ATOM      6  C   UNL     1       8.554  15.503  19.728  0.00  0.00    +0.000 C 
ENDROOT
BRANCH   4   7
ATOM      7  N   UNL     1       9.289  12.941  21.638  0.00  0.00    +0.000 N 
ATOM      8  C   UNL     1       8.644  11.891  22.336  0.00  0.00    +0.000 C 
ATOM      9  O   UNL     1       8.667  10.726  21.917  0.00  0.00    +0.000 OA
BRANCH   8  10
ATOM     10  C   UNL     1       7.910  12.029  23.626  0.00  0.00    +0.000 A 
ATOM     11  C   UNL     1       6.552  11.649  23.607  0.00  0.00    +0.000 A 
ATOM     12  C   UNL     1       5.821  11.507  24.788  0.00  0.00    +0.000 A 
ATOM     13  C   UNL     1       6.433  11.737  26.015  0.00  0.00    +0.000 A 
ATOM     14  C   UNL     1       7.762  12.167  26.047  0.00  0.00    +0.000 A 
ATOM     15  C   UNL     1       8.504  12.293  24.860  0.00  0.00    +0.000 A 
BRANCH  13  16
ATOM     16  O   UNL     1       5.649  11.530  27.115  0.00  0.00    +0.000 OA
ATOM     17  C   UNL     1       4.553  10.640  26.914  0.00  0.00    +0.000 C 
ENDBRANCH  13  16
ENDBRANCH   8  10
BRANCH   7  18
ATOM     18  C   UNL     1       9.918  12.517  20.420  0.00  0.00    +0.000 A 
ATOM     19  C   UNL     1      11.302  12.281  20.399  0.00  0.00    +0.000 A 
ATOM     20  C   UNL     1      11.918  11.797  19.245  0.00  0.00    +0.000 A 
ATOM     21  C   UNL     1      11.161  11.572  18.097  0.00  0.00    +0.000 A 
ATOM     22  C   UNL     1       9.795  11.855  18.094  0.00  0.00    +0.000 A 
ATOM     23  C   UNL     1       9.176  12.342  19.248  0.00  0.00    +0.000 A 
ENDBRANCH   7  18
ENDBRANCH   4   7
BRANCH   1  24
ATOM     24  C   UNL     1       6.243  15.497  19.133  0.00  0.00    +0.000 C 
BRANCH  24  25
ATOM     25  C   UNL     1       5.248  16.622  18.791  0.00  0.00    +0.000 C 
BRANCH  25  26
ATOM     26  O   UNL     1       5.808  17.867  19.243  0.00  0.00    +0.000 OA
ATOM     27  H   UNL     1       5.076  18.481  19.422  0.00  0.00    +0.000 HD
ENDBRANCH  25  26
BRANCH  25  28
ATOM     28  C   UNL     1       3.875  16.368  19.428  0.00  0.00    +0.000 C 
BRANCH  28  29
ATOM     29  O   UNL     1       2.933  16.077  18.390  0.00  0.00    +0.000 OA
BRANCH  29  33
ATOM     30  C   UNL     1       1.083  12.363  18.806  0.00  0.00    +0.000 A 
ATOM     31  C   UNL     1       2.375  12.493  18.299  0.00  0.00    +0.000 A 
ATOM     32  C   UNL     1       2.958  13.756  18.174  0.00  0.00    +0.000 A 
ATOM     33  C   UNL     1       2.247  14.901  18.522  0.00  0.00    +0.000 A 
ATOM     34  C   UNL     1       0.945  14.775  19.014  0.00  0.00    +0.000 A 
ATOM     35  C   UNL     1       0.363  13.507  19.152  0.00  0.00    +0.000 A 
BRANCH  30  37
ATOM     36  C   UNL     1       0.020  10.737  20.147  0.00  0.00    +0.000 C 
ATOM     37  O   UNL     1       0.615  11.081  18.901  0.00  0.00    +0.000 OA
ENDBRANCH  30  37
ENDBRANCH  29  33
ENDBRANCH  28  29
ENDBRANCH  25  28
ENDBRANCH  24  25
ENDBRANCH   1  24
TORSDOF 11
ENDMDL
MODEL 7
REMARK VINA RESULT:      -6.8      3.754     10.356
REMARK  Name = 
REMARK  13 active torsions:
REMARK  status: ('A' for Active; 'I' for Inactive)
REMARK    1  A    between atoms: C_1  and  O_2
REMARK    2  A    between atoms: O_2  and  C_3
REMARK    3  A    between atoms: C_6  and  O_7
REMARK    4  A    between atoms: O_7  and  C_8
REMARK    5  A    between atoms: C_8  and  C_9
REMARK    6  A    between atoms: C_9  and  O_10
REMARK    7  A    between atoms: C_9  and  C_11
REMARK    8  A    between atoms: C_11  and  N_12
REMARK    9  A    between atoms: C_15  and  N_16
REMARK   10  A    between atoms: N_16  and  C_27
REMARK   11  A    between atoms: C_17  and  C_19
REMARK   12  A    between atoms: C_22  and  O_23
REMARK   13  A    between atoms: O_23  and  C_24
REMARK                            x       y       z     vdW  Elec       q    Type
REMARK                         _______ _______ _______ _____ _____    ______ ____
ROOT
ATOM      1  N   UNL     1       0.663  10.214  18.853  0.00  0.00    +0.000 NA
ATOM      2  C   UNL     1      -0.635  10.599  19.435  0.00  0.00    +0.000 C 
ATOM      3  C   UNL     1      -1.168  11.943  18.943  0.00  0.00    +0.000 C 
ATOM      4  C   UNL     1      -0.172  13.082  19.204  0.00  0.00    +0.000 C 
ATOM      5  C   UNL     1       1.112  12.663  18.443  0.00  0.00    +0.000 C 
ATOM      6  C   UNL     1       1.655  11.301  18.878  0.00  0.00    +0.000 C 
ENDROOT
BRANCH   4   7
ATOM      7  N   UNL     1      -0.058  13.454  20.661  0.00  0.00    +0.000 N 
ATOM      8  C   UNL     1       0.881  14.315  21.280  0.00  0.00    +0.000 C 
ATOM      9  O   UNL     1       0.800  14.601  22.482  0.00  0.00    +0.000 OA
BRANCH   8  10
ATOM     10  C   UNL     1       2.056  14.940  20.611  0.00  0.00    +0.000 A 
ATOM     11  C   UNL     1       1.795  16.115  19.876  0.00  0.00    +0.000 A 
ATOM     12  C   UNL     1       2.832  16.922  19.403  0.00  0.00    +0.000 A 
ATOM     13  C   UNL     1       4.153  16.574  19.659  0.00  0.00    +0.000 A 
ATOM     14  C   UNL     1       4.429  15.384  20.338  0.00  0.00    +0.000 A 
ATOM     15  C   UNL     1       3.386  14.581  20.830  0.00  0.00    +0.000 A 
BRANCH  13  16
ATOM     16  O   UNL     1       5.096  17.448  19.195  0.00  0.00    +0.000 OA
ATOM     17  C   UNL     1       6.381  16.878  18.961  0.00  0.00    +0.000 C 
ENDBRANCH  13  16
ENDBRANCH   8  10
BRANCH   7  18
ATOM     18  C   UNL     1      -1.090  12.998  21.548  0.00  0.00    +0.000 A 
ATOM     19  C   UNL     1      -0.851  11.893  22.381  0.00  0.00    +0.000 A 
ATOM     20  C   UNL     1      -1.815  11.483  23.303  0.00  0.00    +0.000 A 
ATOM     21  C   UNL     1      -3.033  12.156  23.379  0.00  0.00    +0.000 A 
ATOM     22  C   UNL     1      -3.298  13.221  22.517  0.00  0.00    +0.000 A 
ATOM     23  C   UNL     1      -2.335  13.633  21.592  0.00  0.00    +0.000 A 
ENDBRANCH   7  18
ENDBRANCH   4   7
BRANCH   1  24
ATOM     24  C   UNL     1       1.236   9.063  19.596  0.00  0.00    +0.000 C 
BRANCH  24  25
ATOM     25  C   UNL     1       2.232   8.170  18.832  0.00  0.00    +0.000 C 
BRANCH  25  26
ATOM     26  O   UNL     1       1.814   8.111  17.457  0.00  0.00    +0.000 OA
ATOM     27  H   UNL     1       2.121   8.918  17.012  0.00  0.00    +0.000 HD
ENDBRANCH  25  26
BRANCH  25  28
ATOM     28  C   UNL     1       2.312   6.768  19.448  0.00  0.00    +0.000 C 
BRANCH  28  29
ATOM     29  O   UNL     1       3.677   6.336  19.434  0.00  0.00    +0.000 OA
BRANCH  29  33
ATOM     30  C   UNL     1       5.140   4.468  16.005  0.00  0.00    +0.000 A 
ATOM     31  C   UNL     1       5.546   5.747  16.381  0.00  0.00    +0.000 A 
ATOM     32  C   UNL     1       5.031   6.339  17.536  0.00  0.00    +0.000 A 
ATOM     33  C   UNL     1       4.082   5.674  18.308  0.00  0.00    +0.000 A 
ATOM     34  C   UNL     1       3.658   4.399  17.924  0.00  0.00    +0.000 A 
ATOM     35  C   UNL     1       4.185   3.799  16.771  0.00  0.00    +0.000 A 
BRANCH  30  37
ATOM     36  C   UNL     1       6.773   4.769  14.327  0.00  0.00    +0.000 C 
ATOM     37  O   UNL     1       5.718   3.979  14.866  0.00  0.00    +0.000 OA
ENDBRANCH  30  37
ENDBRANCH  29  33
ENDBRANCH  28  29
ENDBRANCH  25  28
ENDBRANCH  24  25
ENDBRANCH   1  24
TORSDOF 11
ENDMDL
MODEL 8
REMARK VINA RESULT:      -6.8      2.941     11.776
REMARK  Name = 
REMARK  13 active torsions:
REMARK  status: ('A' for Active; 'I' for Inactive)
REMARK    1  A    between atoms: C_1  and  O_2
REMARK    2  A    between atoms: O_2  and  C_3
REMARK    3  A    between atoms: C_6  and  O_7
REMARK    4  A    between atoms: O_7  and  C_8
REMARK    5  A    between atoms: C_8  and  C_9
REMARK    6  A    between atoms: C_9  and  O_10
REMARK    7  A    between atoms: C_9  and  C_11
REMARK    8  A    between atoms: C_11  and  N_12
REMARK    9  A    between atoms: C_15  and  N_16
REMARK   10  A    between atoms: N_16  and  C_27
REMARK   11  A    between atoms: C_17  and  C_19
REMARK   12  A    between atoms: C_22  and  O_23
REMARK   13  A    between atoms: O_23  and  C_24
REMARK                            x       y       z     vdW  Elec       q    Type
REMARK                         _______ _______ _______ _____ _____    ______ ____
ROOT
ATOM      1  N   UNL     1       0.049  10.295  19.657  0.00  0.00    +0.000 NA
ATOM      2  C   UNL     1      -0.734  10.726  20.829  0.00  0.00    +0.000 C 
ATOM      3  C   UNL     1      -1.902  11.653  20.495  0.00  0.00    +0.000 C 
ATOM      4  C   UNL     1      -1.436  12.909  19.744  0.00  0.00    +0.000 C 
ATOM      5  C   UNL     1      -0.750  12.369  18.463  0.00  0.00    +0.000 C 
ATOM      6  C   UNL     1       0.399  11.403  18.753  0.00  0.00    +0.000 C 
ENDROOT
BRANCH   4   7
ATOM      7  N   UNL     1      -0.677  13.878  20.615  0.00  0.00    +0.000 N 
ATOM      8  C   UNL     1      -1.011  14.345  21.911  0.00  0.00    +0.000 C 
ATOM      9  O   UNL     1      -0.244  15.078  22.550  0.00  0.00    +0.000 OA
BRANCH   8  10
ATOM     10  C   UNL     1      -2.280  14.059  22.635  0.00  0.00    +0.000 A 
ATOM     11  C   UNL     1      -3.424  14.742  22.170  0.00  0.00    +0.000 A 
ATOM     12  C   UNL     1      -4.705  14.392  22.600  0.00  0.00    +0.000 A 
ATOM     13  C   UNL     1      -4.872  13.348  23.503  0.00  0.00    +0.000 A 
ATOM     14  C   UNL     1      -3.745  12.699  24.016  0.00  0.00    +0.000 A 
ATOM     15  C   UNL     1      -2.457  13.038  23.569  0.00  0.00    +0.000 A 
BRANCH  13  16
ATOM     16  O   UNL     1      -6.165  13.051  23.832  0.00  0.00    +0.000 OA
ATOM     17  C   UNL     1      -6.993  12.674  22.734  0.00  0.00    +0.000 C 
ENDBRANCH  13  16
ENDBRANCH   8  10
BRANCH   7  18
ATOM     18  C   UNL     1       0.614  14.311  20.165  0.00  0.00    +0.000 A 
ATOM     19  C   UNL     1       1.770  13.700  20.678  0.00  0.00    +0.000 A 
ATOM     20  C   UNL     1       3.029  14.056  20.196  0.00  0.00    +0.000 A 
ATOM     21  C   UNL     1       3.145  15.043  19.219  0.00  0.00    +0.000 A 
ATOM     22  C   UNL     1       2.005  15.693  18.744  0.00  0.00    +0.000 A 
ATOM     23  C   UNL     1       0.743  15.339  19.226  0.00  0.00    +0.000 A 
ENDBRANCH   7  18
ENDBRANCH   4   7
BRANCH   1  24
ATOM     24  C   UNL     1       1.314   9.654  20.095  0.00  0.00    +0.000 C 
BRANCH  24  25
ATOM     25  C   UNL     1       1.430   8.132  19.885  0.00  0.00    +0.000 C 
BRANCH  25  26
ATOM     26  O   UNL     1       1.878   7.543  21.118  0.00  0.00    +0.000 OA
ATOM     27  H   UNL     1       1.239   7.773  21.813  0.00  0.00    +0.000 HD
ENDBRANCH  25  26
BRANCH  25  28
ATOM     28  C   UNL     1       2.386   7.798  18.732  0.00  0.00    +0.000 C 
BRANCH  28  29
ATOM     29  O   UNL     1       2.391   6.380  18.534  0.00  0.00    +0.000 OA
BRANCH  29  33
ATOM     30  C   UNL     1       5.387   4.658  16.201  0.00  0.00    +0.000 A 
ATOM     31  C   UNL     1       4.388   3.895  16.802  0.00  0.00    +0.000 A 
ATOM     32  C   UNL     1       3.403   4.510  17.578  0.00  0.00    +0.000 A 
ATOM     33  C   UNL     1       3.426   5.886  17.788  0.00  0.00    +0.000 A 
ATOM     34  C   UNL     1       4.437   6.652  17.202  0.00  0.00    +0.000 A 
ATOM     35  C   UNL     1       5.418   6.037  16.412  0.00  0.00    +0.000 A 
BRANCH  30  37
ATOM     36  C   UNL     1       6.082   3.998  14.043  0.00  0.00    +0.000 C 
ATOM     37  O   UNL     1       6.291   3.957  15.451  0.00  0.00    +0.000 OA
ENDBRANCH  30  37
ENDBRANCH  29  33
ENDBRANCH  28  29
ENDBRANCH  25  28
ENDBRANCH  24  25
ENDBRANCH   1  24
TORSDOF 11
ENDMDL
MODEL 9
REMARK VINA RESULT:      -6.8      3.771     10.623
REMARK  Name = 
REMARK  13 active torsions:
REMARK  status: ('A' for Active; 'I' for Inactive)
REMARK    1  A    between atoms: C_1  and  O_2
REMARK    2  A    between atoms: O_2  and  C_3
REMARK    3  A    between atoms: C_6  and  O_7
REMARK    4  A    between atoms: O_7  and  C_8
REMARK    5  A    between atoms: C_8  and  C_9
REMARK    6  A    between atoms: C_9  and  O_10
REMARK    7  A    between atoms: C_9  and  C_11
REMARK    8  A    between atoms: C_11  and  N_12
REMARK    9  A    between atoms: C_15  and  N_16
REMARK   10  A    between atoms: N_16  and  C_27
REMARK   11  A    between atoms: C_17  and  C_19
REMARK   12  A    between atoms: C_22  and  O_23
REMARK   13  A    between atoms: O_23  and  C_24
REMARK                            x       y       z     vdW  Elec       q    Type
REMARK                         _______ _______ _______ _____ _____    ______ ____
ROOT
ATOM      1  N   UNL     1       0.419  10.729  18.817  0.00  0.00    +0.000 NA
ATOM      2  C   UNL     1      -0.881  10.977  19.466  0.00  0.00    +0.000 C 
ATOM      3  C   UNL     1      -1.532  12.302  19.077  0.00  0.00    +0.000 C 
ATOM      4  C   UNL     1      -0.614  13.497  19.377  0.00  0.00    +0.000 C 
ATOM      5  C   UNL     1       0.667  13.226  18.548  0.00  0.00    +0.000 C 
ATOM      6  C   UNL     1       1.328  11.886  18.877  0.00  0.00    +0.000 C 
ENDROOT
BRANCH   4   7
ATOM      7  N   UNL     1      -0.474  13.788  20.849  0.00  0.00    +0.000 N 
ATOM      8  C   UNL     1       0.495  14.591  21.500  0.00  0.00    +0.000 C 
ATOM      9  O   UNL     1       0.436  14.815  22.716  0.00  0.00    +0.000 OA
BRANCH   8  10
ATOM     10  C   UNL     1       1.679  15.219  20.850  0.00  0.00    +0.000 A 
ATOM     11  C   UNL     1       1.457  16.475  20.247  0.00  0.00    +0.000 A 
ATOM     12  C   UNL     1       2.519  17.272  19.816  0.00  0.00    +0.000 A 
ATOM     13  C   UNL     1       3.828  16.833  19.982  0.00  0.00    +0.000 A 
ATOM     14  C   UNL     1       4.061  15.567  20.526  0.00  0.00    +0.000 A 
ATOM     15  C   UNL     1       2.993  14.773  20.978  0.00  0.00    +0.000 A 
BRANCH  13  16
ATOM     16  O   UNL     1       4.800  17.700  19.568  0.00  0.00    +0.000 OA
ATOM     17  C   UNL     1       6.009  17.084  19.132  0.00  0.00    +0.000 C 
ENDBRANCH  13  16
ENDBRANCH   8  10
BRANCH   7  18
ATOM     18  C   UNL     1      -1.506  13.313  21.725  0.00  0.00    +0.000 A 
ATOM     19  C   UNL     1      -1.263  12.202  22.548  0.00  0.00    +0.000 A 
ATOM     20  C   UNL     1      -2.228  11.773  23.459  0.00  0.00    +0.000 A 
ATOM     21  C   UNL     1      -3.453  12.433  23.534  0.00  0.00    +0.000 A 
ATOM     22  C   UNL     1      -3.723  13.504  22.681  0.00  0.00    +0.000 A 
ATOM     23  C   UNL     1      -2.758  13.935  21.767  0.00  0.00    +0.000 A 
ENDBRANCH   7  18
ENDBRANCH   4   7
BRANCH   1  24
ATOM     24  C   UNL     1       1.105   9.584  19.467  0.00  0.00    +0.000 C 
BRANCH  24  25
ATOM     25  C   UNL     1       2.038   8.739  18.578  0.00  0.00    +0.000 C 
BRANCH  25  26
ATOM     26  O   UNL     1       1.363   8.488  17.334  0.00  0.00    +0.000 OA
ATOM     27  H   UNL     1       1.991   8.650  16.610  0.00  0.00    +0.000 HD
ENDBRANCH  25  26
BRANCH  25  28
ATOM     28  C   UNL     1       2.432   7.427  19.269  0.00  0.00    +0.000 C 
BRANCH  28  29
ATOM     29  O   UNL     1       2.170   6.339  18.376  0.00  0.00    +0.000 OA
BRANCH  29  33
ATOM     30  C   UNL     1       5.342   4.506  16.386  0.00  0.00    +0.000 A 
ATOM     31  C   UNL     1       4.257   3.780  16.875  0.00  0.00    +0.000 A 
ATOM     32  C   UNL     1       3.215   4.431  17.537  0.00  0.00    +0.000 A 
ATOM     33  C   UNL     1       3.262   5.807  17.748  0.00  0.00    +0.000 A 
ATOM     34  C   UNL     1       4.357   6.535  17.275  0.00  0.00    +0.000 A 
ATOM     35  C   UNL     1       5.397   5.884  16.598  0.00  0.00    +0.000 A 
BRANCH  30  37
ATOM     36  C   UNL     1       6.353   3.945  14.328  0.00  0.00    +0.000 C 
ATOM     37  O   UNL     1       6.297   3.771  15.739  0.00  0.00    +0.000 OA
ENDBRANCH  30  37
ENDBRANCH  29  33
ENDBRANCH  28  29
ENDBRANCH  25  28
ENDBRANCH  24  25
ENDBRANCH   1  24
TORSDOF 11
ENDMDL
