MODEL 1
REMARK VINA RESULT:      -6.2      0.000      0.000
REMARK  Name = 
REMARK  6 active torsions:
REMARK  status: ('A' for Active; 'I' for Inactive)
REMARK    1  A    between atoms: C_1  and  C_2
REMARK    2  A    between atoms: C_2  and  O_4
REMARK    3  A    between atoms: O_4  and  C_5
REMARK    4  A    between atoms: C_14  and  N_15
REMARK    5  A    between atoms: C_26  and  C_27
REMARK    6  A    between atoms: C_26  and  C_28
REMARK                            x       y       z     vdW  Elec       q    Type
REMARK                         _______ _______ _______ _____ _____    ______ ____
ROOT
ATOM      1  C   UNL     1       0.261   9.899  19.627  0.00  0.00    +0.000 C 
ATOM      2  C   UNL     1       0.523   8.967  20.816  0.00  0.00    +0.000 C 
ATOM      3  C   UNL     1       0.557   9.765  22.108  0.00  0.00    +0.000 C 
ATOM      4  C   UNL     1      -0.709  10.599  22.299  0.00  0.00    +0.000 C 
ATOM      5  N   UNL     1      -1.088  11.359  21.109  0.00  0.00    +0.000 NA
ATOM      6  C   UNL     1      -1.119  10.583  19.860  0.00  0.00    +0.000 C 
ATOM      7  C   UNL     1      -1.500  11.410  18.643  0.00  0.00    +0.000 C 
ATOM      8  C   UNL     1      -2.839  12.020  18.938  0.00  0.00    +0.000 C 
ATOM      9  O   UNL     1      -3.803  11.810  18.205  0.00  0.00    +0.000 OA
ATOM     10  C   UNL     1      -2.879  12.979  20.122  0.00  0.00    +0.000 C 
ATOM     11  C   UNL     1      -1.819  12.633  21.261  0.00  0.00    +0.000 C 
ATOM     12  C   UNL     1      -0.695  13.703  21.179  0.00  0.00    +0.000 C 
ATOM     13  C   UNL     1      -2.437  12.788  22.682  0.00  0.00    +0.000 C 
ENDROOT
BRANCH  10  14
ATOM     14  N   UNL     1      -4.252  13.177  20.611  0.00  0.00    +0.000 N 
ATOM     15  C   UNL     1      -5.044  12.090  20.907  0.00  0.00    +0.000 A 
ATOM     16  N   UNL     1      -6.070  12.110  21.691  0.00  0.00    +0.000 NA
ATOM     17  C   UNL     1      -6.374  13.320  22.331  0.00  0.00    +0.000 A 
ATOM     18  C   UNL     1      -7.346  13.328  23.333  0.00  0.00    +0.000 A 
ATOM     19  C   UNL     1      -7.626  14.499  24.044  0.00  0.00    +0.000 A 
ATOM     20  C   UNL     1      -6.943  15.679  23.749  0.00  0.00    +0.000 A 
ATOM     21  C   UNL     1      -5.974  15.686  22.748  0.00  0.00    +0.000 A 
ATOM     22  C   UNL     1      -5.694  14.505  22.050  0.00  0.00    +0.000 A 
ATOM     23  C   UNL     1      -4.564  14.440  21.106  0.00  0.00    +0.000 A 
ATOM     24  O   UNL     1      -3.888  15.444  20.898  0.00  0.00    +0.000 OA
ENDBRANCH  10  14
BRANCH   1  25
ATOM     25  O   UNL     1       1.244  10.966  19.509  0.00  0.00    +0.000 OA
BRANCH  25  27
ATOM     26  C   UNL     1       2.415  12.499  18.183  0.00  0.00    +0.000 C 
ATOM     27  C   UNL     1       1.966  11.079  18.364  0.00  0.00    +0.000 C 
ATOM     28  O   UNL     1       2.217  10.168  17.590  0.00  0.00    +0.000 OA
ENDBRANCH  25  27
ENDBRANCH   1  25
TORSDOF 3
ENDMDL
MODEL 2
REMARK VINA RESULT:      -5.9      9.634     11.435
REMARK  Name = 
REMARK  6 active torsions:
REMARK  status: ('A' for Active; 'I' for Inactive)
REMARK    1  A    between atoms: C_1  and  C_2
REMARK    2  A    between atoms: C_2  and  O_4
REMARK    3  A    between atoms: O_4  and  C_5
REMARK    4  A    between atoms: C_14  and  N_15
REMARK    5  A    between atoms: C_26  and  C_27
REMARK    6  A    between atoms: C_26  and  C_28
REMARK                            x       y       z     vdW  Elec       q    Type
REMARK                         _______ _______ _______ _____ _____    ______ ____
ROOT
ATOM      1  C   UNL     1       8.644  14.685  18.121  0.00  0.00    +0.000 C 
ATOM      2  C   UNL     1       9.081  13.337  17.533  0.00  0.00    +0.000 C 
ATOM      3  C   UNL     1      10.027  12.632  18.490  0.00  0.00    +0.000 C 
ATOM      4  C   UNL     1       9.423  12.481  19.885  0.00  0.00    +0.000 C 
ATOM      5  N   UNL     1       8.829  13.716  20.397  0.00  0.00    +0.000 NA
ATOM      6  C   UNL     1       7.915  14.396  19.467  0.00  0.00    +0.000 C 
ATOM      7  C   UNL     1       7.330  15.683  20.027  0.00  0.00    +0.000 C 
ATOM      8  C   UNL     1       6.636  15.321  21.306  0.00  0.00    +0.000 C 
ATOM      9  O   UNL     1       5.439  15.555  21.463  0.00  0.00    +0.000 OA
ATOM     10  C   UNL     1       7.531  14.759  22.405  0.00  0.00    +0.000 C 
ATOM     11  C   UNL     1       8.794  13.958  21.852  0.00  0.00    +0.000 C 
ATOM     12  C   UNL     1      10.043  14.850  22.097  0.00  0.00    +0.000 C 
ATOM     13  C   UNL     1       9.047  12.656  22.670  0.00  0.00    +0.000 C 
ENDROOT
BRANCH  10  14
ATOM     14  N   UNL     1       6.751  14.034  23.421  0.00  0.00    +0.000 N 
ATOM     15  C   UNL     1       5.958  12.970  23.054  0.00  0.00    +0.000 A 
ATOM     16  N   UNL     1       5.559  12.033  23.847  0.00  0.00    +0.000 NA
ATOM     17  C   UNL     1       6.006  12.074  25.175  0.00  0.00    +0.000 A 
ATOM     18  C   UNL     1       5.761  10.978  26.005  0.00  0.00    +0.000 A 
ATOM     19  C   UNL     1       6.254  10.950  27.313  0.00  0.00    +0.000 A 
ATOM     20  C   UNL     1       6.987  12.028  27.809  0.00  0.00    +0.000 A 
ATOM     21  C   UNL     1       7.234  13.130  26.994  0.00  0.00    +0.000 A 
ATOM     22  C   UNL     1       6.745  13.143  25.682  0.00  0.00    +0.000 A 
ATOM     23  C   UNL     1       7.131  14.214  24.747  0.00  0.00    +0.000 A 
ATOM     24  O   UNL     1       7.853  15.129  25.136  0.00  0.00    +0.000 OA
ENDBRANCH  10  14
BRANCH   1  25
ATOM     25  O   UNL     1       9.762  15.564  18.430  0.00  0.00    +0.000 OA
BRANCH  25  27
ATOM     26  C   UNL     1       9.732  17.839  17.883  0.00  0.00    +0.000 C 
ATOM     27  C   UNL     1      10.178  16.460  17.497  0.00  0.00    +0.000 C 
ATOM     28  O   UNL     1      10.818  16.193  16.491  0.00  0.00    +0.000 OA
ENDBRANCH  25  27
ENDBRANCH   1  25
TORSDOF 3
ENDMDL
MODEL 3
REMARK VINA RESULT:      -5.9      1.342      1.635
REMARK  Name = 
REMARK  6 active torsions:
REMARK  status: ('A' for Active; 'I' for Inactive)
REMARK    1  A    between atoms: C_1  and  C_2
REMARK    2  A    between atoms: C_2  and  O_4
REMARK    3  A    between atoms: O_4  and  C_5
REMARK    4  A    between atoms: C_14  and  N_15
REMARK    5  A    between atoms: C_26  and  C_27
REMARK    6  A    between atoms: C_26  and  C_28
REMARK                            x       y       z     vdW  Elec       q    Type
REMARK                         _______ _______ _______ _____ _____    ______ ____
ROOT
ATOM      1  C   UNL     1       0.306   9.225  19.923  0.00  0.00    +0.000 C 
ATOM      2  C   UNL     1       0.503   8.393  21.197  0.00  0.00    +0.000 C 
ATOM      3  C   UNL     1       0.897   9.295  22.354  0.00  0.00    +0.000 C 
ATOM      4  C   UNL     1      -0.102  10.433  22.559  0.00  0.00    +0.000 C 
ATOM      5  N   UNL     1      -0.452  11.128  21.321  0.00  0.00    +0.000 NA
ATOM      6  C   UNL     1      -0.831  10.252  20.203  0.00  0.00    +0.000 C 
ATOM      7  C   UNL     1      -1.171  11.009  18.929  0.00  0.00    +0.000 C 
ATOM      8  C   UNL     1      -2.278  11.961  19.275  0.00  0.00    +0.000 C 
ATOM      9  O   UNL     1      -3.355  11.919  18.683  0.00  0.00    +0.000 OA
ATOM     10  C   UNL     1      -1.932  13.024  20.311  0.00  0.00    +0.000 C 
ATOM     11  C   UNL     1      -0.838  12.552  21.370  0.00  0.00    +0.000 C 
ATOM     12  C   UNL     1       0.483  13.294  21.023  0.00  0.00    +0.000 C 
ATOM     13  C   UNL     1      -1.204  13.011  22.813  0.00  0.00    +0.000 C 
ENDROOT
BRANCH  10  14
ATOM     14  N   UNL     1      -3.143  13.609  20.910  0.00  0.00    +0.000 N 
ATOM     15  C   UNL     1      -4.026  12.812  21.603  0.00  0.00    +0.000 A 
ATOM     16  N   UNL     1      -4.872  13.231  22.483  0.00  0.00    +0.000 NA
ATOM     17  C   UNL     1      -4.858  14.598  22.796  0.00  0.00    +0.000 A 
ATOM     18  C   UNL     1      -5.613  15.050  23.880  0.00  0.00    +0.000 A 
ATOM     19  C   UNL     1      -5.569  16.393  24.268  0.00  0.00    +0.000 A 
ATOM     20  C   UNL     1      -4.776  17.300  23.566  0.00  0.00    +0.000 A 
ATOM     21  C   UNL     1      -4.021  16.863  22.479  0.00  0.00    +0.000 A 
ATOM     22  C   UNL     1      -4.065  15.514  22.106  0.00  0.00    +0.000 A 
ATOM     23  C   UNL     1      -3.154  14.992  21.072  0.00  0.00    +0.000 A 
ATOM     24  O   UNL     1      -2.380  15.756  20.502  0.00  0.00    +0.000 OA
ENDBRANCH  10  14
BRANCH   1  25
ATOM     25  O   UNL     1       1.486   9.996  19.555  0.00  0.00    +0.000 OA
BRANCH  25  27
ATOM     26  C   UNL     1       2.005   8.448  17.878  0.00  0.00    +0.000 C 
ATOM     27  C   UNL     1       1.980   9.889  18.295  0.00  0.00    +0.000 C 
ATOM     28  O   UNL     1       2.352  10.820  17.596  0.00  0.00    +0.000 OA
ENDBRANCH  25  27
ENDBRANCH   1  25
TORSDOF 3
ENDMDL
MODEL 4
REMARK VINA RESULT:      -5.9      9.622     11.239
REMARK  Name = 
REMARK  6 active torsions:
REMARK  status: ('A' for Active; 'I' for Inactive)
REMARK    1  A    between atoms: C_1  and  C_2
REMARK    2  A    between atoms: C_2  and  O_4
REMARK    3  A    between atoms: O_4  and  C_5
REMARK    4  A    between atoms: C_14  and  N_15
REMARK    5  A    between atoms: C_26  and  C_27
REMARK    6  A    between atoms: C_26  and  C_28
REMARK                            x       y       z     vdW  Elec       q    Type
REMARK                         _______ _______ _______ _____ _____    ______ ____
ROOT
ATOM      1  C   UNL     1       9.498  13.169  18.056  0.00  0.00    +0.000 C 
ATOM      2  C   UNL     1       9.953  11.705  18.073  0.00  0.00    +0.000 C 
ATOM      3  C   UNL     1      10.697  11.404  19.363  0.00  0.00    +0.000 C 
ATOM      4  C   UNL     1       9.871  11.763  20.597  0.00  0.00    +0.000 C 
ATOM      5  N   UNL     1       9.267  13.093  20.524  0.00  0.00    +0.000 NA
ATOM      6  C   UNL     1       8.549  13.381  19.274  0.00  0.00    +0.000 C 
ATOM      7  C   UNL     1       7.949  14.777  19.227  0.00  0.00    +0.000 C 
ATOM      8  C   UNL     1       7.041  14.896  20.416  0.00  0.00    +0.000 C 
ATOM      9  O   UNL     1       5.849  15.158  20.276  0.00  0.00    +0.000 OA
ATOM     10  C   UNL     1       7.720  14.779  21.776  0.00  0.00    +0.000 C 
ATOM     11  C   UNL     1       9.012  13.846  21.768  0.00  0.00    +0.000 C 
ATOM     12  C   UNL     1      10.249  14.779  21.882  0.00  0.00    +0.000 C 
ATOM     13  C   UNL     1       9.064  12.932  23.028  0.00  0.00    +0.000 C 
ENDROOT
BRANCH  10  14
ATOM     14  N   UNL     1       6.751  14.464  22.838  0.00  0.00    +0.000 N 
ATOM     15  C   UNL     1       6.121  13.240  22.858  0.00  0.00    +0.000 A 
ATOM     16  N   UNL     1       5.585  12.697  23.900  0.00  0.00    +0.000 NA
ATOM     17  C   UNL     1       5.695  13.383  25.117  0.00  0.00    +0.000 A 
ATOM     18  C   UNL     1       5.307  12.738  26.294  0.00  0.00    +0.000 A 
ATOM     19  C   UNL     1       5.469  13.362  27.534  0.00  0.00    +0.000 A 
ATOM     20  C   UNL     1       6.009  14.646  27.609  0.00  0.00    +0.000 A 
ATOM     21  C   UNL     1       6.395  15.303  26.442  0.00  0.00    +0.000 A 
ATOM     22  C   UNL     1       6.239  14.664  25.206  0.00  0.00    +0.000 A 
ATOM     23  C   UNL     1       6.790  15.263  23.978  0.00  0.00    +0.000 A 
ATOM     24  O   UNL     1       7.353  16.353  24.032  0.00  0.00    +0.000 OA
ENDBRANCH  10  14
BRANCH   1  25
ATOM     25  O   UNL     1      10.596  14.112  18.212  0.00  0.00    +0.000 OA
BRANCH  25  27
ATOM     26  C   UNL     1      11.068  15.858  16.727  0.00  0.00    +0.000 C 
ATOM     27  C   UNL     1      11.346  14.440  17.128  0.00  0.00    +0.000 C 
ATOM     28  O   UNL     1      12.131  13.698  16.556  0.00  0.00    +0.000 OA
ENDBRANCH  25  27
ENDBRANCH   1  25
TORSDOF 3
ENDMDL
MODEL 5
REMARK VINA RESULT:      -5.8      2.008      3.281
REMARK  Name = 
REMARK  6 active torsions:
REMARK  status: ('A' for Active; 'I' for Inactive)
REMARK    1  A    between atoms: C_1  and  C_2
REMARK    2  A    between atoms: C_2  and  O_4
REMARK    3  A    between atoms: O_4  and  C_5
REMARK    4  A    between atoms: C_14  and  N_15
REMARK    5  A    between atoms: C_26  and  C_27
REMARK    6  A    between atoms: C_26  and  C_28
REMARK                            x       y       z     vdW  Elec       q    Type
REMARK                         _______ _______ _______ _____ _____    ______ ____
ROOT
ATOM      1  C   UNL     1       1.661  11.665  19.798  0.00  0.00    +0.000 C 
ATOM      2  C   UNL     1       2.329  12.934  19.253  0.00  0.00    +0.000 C 
ATOM      3  C   UNL     1       1.299  13.808  18.558  0.00  0.00    +0.000 C 
ATOM      4  C   UNL     1       0.113  14.128  19.467  0.00  0.00    +0.000 C 
ATOM      5  N   UNL     1      -0.429  12.953  20.149  0.00  0.00    +0.000 NA
ATOM      6  C   UNL     1       0.571  12.109  20.819  0.00  0.00    +0.000 C 
ATOM      7  C   UNL     1      -0.027  10.889  21.502  0.00  0.00    +0.000 C 
ATOM      8  C   UNL     1      -1.049  11.397  22.475  0.00  0.00    +0.000 C 
ATOM      9  O   UNL     1      -0.966  11.135  23.673  0.00  0.00    +0.000 OA
ATOM     10  C   UNL     1      -2.225  12.149  21.861  0.00  0.00    +0.000 C 
ATOM     11  C   UNL     1      -1.858  12.918  20.514  0.00  0.00    +0.000 C 
ATOM     12  C   UNL     1      -2.507  12.126  19.345  0.00  0.00    +0.000 C 
ATOM     13  C   UNL     1      -2.510  14.333  20.469  0.00  0.00    +0.000 C 
ENDROOT
BRANCH  10  14
ATOM     14  N   UNL     1      -2.921  12.974  22.861  0.00  0.00    +0.000 N 
ATOM     15  C   UNL     1      -2.222  13.905  23.595  0.00  0.00    +0.000 A 
ATOM     16  N   UNL     1      -2.742  14.930  24.184  0.00  0.00    +0.000 NA
ATOM     17  C   UNL     1      -4.119  15.140  24.023  0.00  0.00    +0.000 A 
ATOM     18  C   UNL     1      -4.676  16.338  24.474  0.00  0.00    +0.000 A 
ATOM     19  C   UNL     1      -6.031  16.616  24.267  0.00  0.00    +0.000 A 
ATOM     20  C   UNL     1      -6.846  15.688  23.617  0.00  0.00    +0.000 A 
ATOM     21  C   UNL     1      -6.303  14.487  23.167  0.00  0.00    +0.000 A 
ATOM     22  C   UNL     1      -4.943  14.224  23.370  0.00  0.00    +0.000 A 
ATOM     23  C   UNL     1      -4.308  13.043  22.760  0.00  0.00    +0.000 A 
ATOM     24  O   UNL     1      -4.987  12.258  22.104  0.00  0.00    +0.000 OA
ENDBRANCH  10  14
BRANCH   1  25
ATOM     25  O   UNL     1       0.982  10.889  18.770  0.00  0.00    +0.000 OA
BRANCH  25  27
ATOM     26  C   UNL     1       1.467   8.666  19.320  0.00  0.00    +0.000 C 
ATOM     27  C   UNL     1       1.569   9.759  18.297  0.00  0.00    +0.000 C 
ATOM     28  O   UNL     1       2.104   9.640  17.205  0.00  0.00    +0.000 OA
ENDBRANCH  25  27
ENDBRANCH   1  25
TORSDOF 3
ENDMDL
MODEL 6
REMARK VINA RESULT:      -5.8      4.521      6.705
REMARK  Name = 
REMARK  6 active torsions:
REMARK  status: ('A' for Active; 'I' for Inactive)
REMARK    1  A    between atoms: C_1  and  C_2
REMARK    2  A    between atoms: C_2  and  O_4
REMARK    3  A    between atoms: O_4  and  C_5
REMARK    4  A    between atoms: C_14  and  N_15
REMARK    5  A    between atoms: C_26  and  C_27
REMARK    6  A    between atoms: C_26  and  C_28
REMARK                            x       y       z     vdW  Elec       q    Type
REMARK                         _______ _______ _______ _____ _____    ______ ____
ROOT
ATOM      1  C   UNL     1       2.663   5.838  19.547  0.00  0.00    +0.000 C 
ATOM      2  C   UNL     1       4.029   5.881  18.851  0.00  0.00    +0.000 C 
ATOM      3  C   UNL     1       3.952   6.740  17.601  0.00  0.00    +0.000 C 
ATOM      4  C   UNL     1       3.416   8.140  17.900  0.00  0.00    +0.000 C 
ATOM      5  N   UNL     1       2.209   8.134  18.725  0.00  0.00    +0.000 NA
ATOM      6  C   UNL     1       2.286   7.300  19.934  0.00  0.00    +0.000 C 
ATOM      7  C   UNL     1       1.008   7.306  20.757  0.00  0.00    +0.000 C 
ATOM      8  C   UNL     1       0.723   8.738  21.101  0.00  0.00    +0.000 C 
ATOM      9  O   UNL     1       0.628   9.099  22.272  0.00  0.00    +0.000 OA
ATOM     10  C   UNL     1       0.460   9.660  19.916  0.00  0.00    +0.000 C 
ATOM     11  C   UNL     1       1.228   9.228  18.588  0.00  0.00    +0.000 C 
ATOM     12  C   UNL     1       0.166   8.639  17.618  0.00  0.00    +0.000 C 
ATOM     13  C   UNL     1       1.826  10.463  17.848  0.00  0.00    +0.000 C 
ENDROOT
BRANCH  10  14
ATOM     14  N   UNL     1       0.630  11.075  20.283  0.00  0.00    +0.000 N 
ATOM     15  C   UNL     1       1.819  11.509  20.825  0.00  0.00    +0.000 A 
ATOM     16  N   UNL     1       2.237  12.731  20.816  0.00  0.00    +0.000 NA
ATOM     17  C   UNL     1       1.443  13.683  20.161  0.00  0.00    +0.000 A 
ATOM     18  C   UNL     1       1.955  14.966  19.958  0.00  0.00    +0.000 A 
ATOM     19  C   UNL     1       1.223  15.921  19.246  0.00  0.00    +0.000 A 
ATOM     20  C   UNL     1      -0.038  15.604  18.740  0.00  0.00    +0.000 A 
ATOM     21  C   UNL     1      -0.564  14.329  18.941  0.00  0.00    +0.000 A 
ATOM     22  C   UNL     1       0.183  13.378  19.646  0.00  0.00    +0.000 A 
ATOM     23  C   UNL     1      -0.271  11.978  19.728  0.00  0.00    +0.000 A 
ATOM     24  O   UNL     1      -1.337  11.653  19.210  0.00  0.00    +0.000 OA
ENDBRANCH  10  14
BRANCH   1  25
ATOM     25  O   UNL     1       1.598   5.345  18.686  0.00  0.00    +0.000 OA
BRANCH  25  27
ATOM     26  C   UNL     1       1.084   3.354  19.804  0.00  0.00    +0.000 C 
ATOM     27  C   UNL     1       1.458   4.006  18.506  0.00  0.00    +0.000 C 
ATOM     28  O   UNL     1       1.613   3.411  17.450  0.00  0.00    +0.000 OA
ENDBRANCH  25  27
ENDBRANCH   1  25
TORSDOF 3
ENDMDL
MODEL 7
REMARK VINA RESULT:      -5.8      3.263      6.383
REMARK  Name = 
REMARK  6 active torsions:
REMARK  status: ('A' for Active; 'I' for Inactive)
REMARK    1  A    between atoms: C_1  and  C_2
REMARK    2  A    between atoms: C_2  and  O_4
REMARK    3  A    between atoms: O_4  and  C_5
REMARK    4  A    between atoms: C_14  and  N_15
REMARK    5  A    between atoms: C_26  and  C_27
REMARK    6  A    between atoms: C_26  and  C_28
REMARK                            x       y       z     vdW  Elec       q    Type
REMARK                         _______ _______ _______ _____ _____    ______ ____
ROOT
ATOM      1  C   UNL     1      -0.111  16.367  23.061  0.00  0.00    +0.000 C 
ATOM      2  C   UNL     1      -0.367  17.675  22.302  0.00  0.00    +0.000 C 
ATOM      3  C   UNL     1       0.165  17.569  20.883  0.00  0.00    +0.000 C 
ATOM      4  C   UNL     1      -0.406  16.358  20.147  0.00  0.00    +0.000 C 
ATOM      5  N   UNL     1      -0.343  15.122  20.928  0.00  0.00    +0.000 NA
ATOM      6  C   UNL     1      -0.857  15.229  22.301  0.00  0.00    +0.000 C 
ATOM      7  C   UNL     1      -0.761  13.931  23.087  0.00  0.00    +0.000 C 
ATOM      8  C   UNL     1      -1.513  12.896  22.303  0.00  0.00    +0.000 C 
ATOM      9  O   UNL     1      -2.458  12.290  22.802  0.00  0.00    +0.000 OA
ATOM     10  C   UNL     1      -0.957  12.587  20.918  0.00  0.00    +0.000 C 
ATOM     11  C   UNL     1      -0.226  13.826  20.231  0.00  0.00    +0.000 C 
ATOM     12  C   UNL     1       1.300  13.535  20.270  0.00  0.00    +0.000 C 
ATOM     13  C   UNL     1      -0.589  13.938  18.720  0.00  0.00    +0.000 C 
ENDROOT
BRANCH  10  14
ATOM     14  N   UNL     1      -1.960  11.927  20.067  0.00  0.00    +0.000 N 
ATOM     15  C   UNL     1      -3.208  12.486  19.910  0.00  0.00    +0.000 A 
ATOM     16  N   UNL     1      -4.009  12.251  18.925  0.00  0.00    +0.000 NA
ATOM     17  C   UNL     1      -3.554  11.398  17.909  0.00  0.00    +0.000 A 
ATOM     18  C   UNL     1      -4.306  11.280  16.739  0.00  0.00    +0.000 A 
ATOM     19  C   UNL     1      -3.849  10.496  15.675  0.00  0.00    +0.000 A 
ATOM     20  C   UNL     1      -2.639   9.810  15.778  0.00  0.00    +0.000 A 
ATOM     21  C   UNL     1      -1.881   9.914  16.942  0.00  0.00    +0.000 A 
ATOM     22  C   UNL     1      -2.343  10.711  17.997  0.00  0.00    +0.000 A 
ATOM     23  C   UNL     1      -1.489  10.974  19.168  0.00  0.00    +0.000 A 
ATOM     24  O   UNL     1      -0.378  10.454  19.240  0.00  0.00    +0.000 OA
ENDBRANCH  10  14
BRANCH   1  25
ATOM     25  O   UNL     1       1.296  15.993  23.098  0.00  0.00    +0.000 OA
BRANCH  25  27
ATOM     26  C   UNL     1       3.298  17.192  22.927  0.00  0.00    +0.000 C 
ATOM     27  C   UNL     1       2.165  16.757  23.809  0.00  0.00    +0.000 C 
ATOM     28  O   UNL     1       2.052  17.051  24.989  0.00  0.00    +0.000 OA
ENDBRANCH  25  27
ENDBRANCH   1  25
TORSDOF 3
ENDMDL
MODEL 8
REMARK VINA RESULT:      -5.8      2.750      7.592
REMARK  Name = 
REMARK  6 active torsions:
REMARK  status: ('A' for Active; 'I' for Inactive)
REMARK    1  A    between atoms: C_1  and  C_2
REMARK    2  A    between atoms: C_2  and  O_4
REMARK    3  A    between atoms: O_4  and  C_5
REMARK    4  A    between atoms: C_14  and  N_15
REMARK    5  A    between atoms: C_26  and  C_27
REMARK    6  A    between atoms: C_26  and  C_28
REMARK                            x       y       z     vdW  Elec       q    Type
REMARK                         _______ _______ _______ _____ _____    ______ ____
ROOT
ATOM      1  C   UNL     1      -5.681  12.679  22.712  0.00  0.00    +0.000 C 
ATOM      2  C   UNL     1      -6.470  12.768  21.399  0.00  0.00    +0.000 C 
ATOM      3  C   UNL     1      -6.062  14.011  20.628  0.00  0.00    +0.000 C 
ATOM      4  C   UNL     1      -4.553  14.072  20.396  0.00  0.00    +0.000 C 
ATOM      5  N   UNL     1      -3.770  13.804  21.602  0.00  0.00    +0.000 NA
ATOM      6  C   UNL     1      -4.168  12.600  22.347  0.00  0.00    +0.000 C 
ATOM      7  C   UNL     1      -3.343  12.364  23.602  0.00  0.00    +0.000 C 
ATOM      8  C   UNL     1      -1.910  12.285  23.167  0.00  0.00    +0.000 C 
ATOM      9  O   UNL     1      -1.233  11.286  23.401  0.00  0.00    +0.000 OA
ATOM     10  C   UNL     1      -1.345  13.549  22.529  0.00  0.00    +0.000 C 
ATOM     11  C   UNL     1      -2.435  14.416  21.754  0.00  0.00    +0.000 C 
ATOM     12  C   UNL     1      -2.715  15.677  22.618  0.00  0.00    +0.000 C 
ATOM     13  C   UNL     1      -1.879  14.954  20.401  0.00  0.00    +0.000 C 
ENDROOT
BRANCH  10  14
ATOM     14  N   UNL     1      -0.129  13.265  21.750  0.00  0.00    +0.000 N 
ATOM     15  C   UNL     1      -0.153  12.314  20.755  0.00  0.00    +0.000 A 
ATOM     16  N   UNL     1       0.678  12.250  19.769  0.00  0.00    +0.000 NA
ATOM     17  C   UNL     1       1.650  13.256  19.674  0.00  0.00    +0.000 A 
ATOM     18  C   UNL     1       2.432  13.333  18.520  0.00  0.00    +0.000 A 
ATOM     19  C   UNL     1       3.362  14.364  18.357  0.00  0.00    +0.000 A 
ATOM     20  C   UNL     1       3.528  15.323  19.356  0.00  0.00    +0.000 A 
ATOM     21  C   UNL     1       2.759  15.255  20.515  0.00  0.00    +0.000 A 
ATOM     22  C   UNL     1       1.823  14.224  20.663  0.00  0.00    +0.000 A 
ATOM     23  C   UNL     1       0.881  14.222  21.797  0.00  0.00    +0.000 A 
ATOM     24  O   UNL     1       0.947  15.109  22.643  0.00  0.00    +0.000 OA
ENDBRANCH  10  14
BRANCH   1  25
ATOM     25  O   UNL     1      -5.847  13.850  23.560  0.00  0.00    +0.000 OA
BRANCH  25  27
ATOM     26  C   UNL     1      -7.390  15.607  23.669  0.00  0.00    +0.000 C 
ATOM     27  C   UNL     1      -7.089  14.176  24.003  0.00  0.00    +0.000 C 
ATOM     28  O   UNL     1      -7.855  13.424  24.588  0.00  0.00    +0.000 OA
ENDBRANCH  25  27
ENDBRANCH   1  25
TORSDOF 3
ENDMDL
MODEL 9
REMARK VINA RESULT:      -5.7      3.001      4.375
REMARK  Name = 
REMARK  6 active torsions:
REMARK  status: ('A' for Active; 'I' for Inactive)
REMARK    1  A    between atoms: C_1  and  C_2
REMARK    2  A    between atoms: C_2  and  O_4
REMARK    3  A    between atoms: O_4  and  C_5
REMARK    4  A    between atoms: C_14  and  N_15
REMARK    5  A    between atoms: C_26  and  C_27
REMARK    6  A    between atoms: C_26  and  C_28
REMARK                            x       y       z     vdW  Elec       q    Type
REMARK                         _______ _______ _______ _____ _____    ______ ____
ROOT
ATOM      1  C   UNL     1       3.726  14.524  20.371  0.00  0.00    +0.000 C 
ATOM      2  C   UNL     1       4.218  15.393  21.535  0.00  0.00    +0.000 C 
ATOM      3  C   UNL     1       3.176  16.442  21.881  0.00  0.00    +0.000 C 
ATOM      4  C   UNL     1       1.810  15.820  22.166  0.00  0.00    +0.000 C 
ATOM      5  N   UNL     1       1.396  14.842  21.160  0.00  0.00    +0.000 NA
ATOM      6  C   UNL     1       2.408  13.829  20.827  0.00  0.00    +0.000 C 
ATOM      7  C   UNL     1       1.949  12.841  19.767  0.00  0.00    +0.000 C 
ATOM      8  C   UNL     1       0.693  12.205  20.284  0.00  0.00    +0.000 C 
ATOM      9  O   UNL     1       0.614  10.987  20.428  0.00  0.00    +0.000 OA
ATOM     10  C   UNL     1      -0.480  13.153  20.507  0.00  0.00    +0.000 C 
ATOM     11  C   UNL     1      -0.041  14.635  20.894  0.00  0.00    +0.000 C 
ATOM     12  C   UNL     1      -0.308  15.530  19.652  0.00  0.00    +0.000 C 
ATOM     13  C   UNL     1      -0.937  15.219  22.027  0.00  0.00    +0.000 C 
ENDROOT
BRANCH  10  14
ATOM     14  N   UNL     1      -1.488  12.565  21.404  0.00  0.00    +0.000 N 
ATOM     15  C   UNL     1      -1.156  12.247  22.702  0.00  0.00    +0.000 A 
ATOM     16  N   UNL     1      -1.997  12.113  23.672  0.00  0.00    +0.000 NA
ATOM     17  C   UNL     1      -3.349  12.359  23.397  0.00  0.00    +0.000 A 
ATOM     18  C   UNL     1      -4.255  12.421  24.458  0.00  0.00    +0.000 A 
ATOM     19  C   UNL     1      -5.598  12.735  24.231  0.00  0.00    +0.000 A 
ATOM     20  C   UNL     1      -6.052  12.979  22.934  0.00  0.00    +0.000 A 
ATOM     21  C   UNL     1      -5.160  12.915  21.866  0.00  0.00    +0.000 A 
ATOM     22  C   UNL     1      -3.815  12.609  22.106  0.00  0.00    +0.000 A 
ATOM     23  C   UNL     1      -2.820  12.700  21.023  0.00  0.00    +0.000 A 
ATOM     24  O   UNL     1      -3.182  13.003  19.889  0.00  0.00    +0.000 OA
ENDBRANCH  10  14
BRANCH   1  25
ATOM     25  O   UNL     1       3.401  15.295  19.179  0.00  0.00    +0.000 OA
BRANCH  25  27
ATOM     26  C   UNL     1       5.276  14.855  17.848  0.00  0.00    +0.000 C 
ATOM     27  C   UNL     1       4.403  15.896  18.486  0.00  0.00    +0.000 C 
ATOM     28  O   UNL     1       4.578  17.101  18.390  0.00  0.00    +0.000 OA
ENDBRANCH  25  27
ENDBRANCH   1  25
TORSDOF 3
ENDMDL
