MODEL 1
REMARK VINA RESULT:      -8.5      0.000      0.000
REMARK  Name = 
REMARK  3 active torsions:
REMARK  status: ('A' for Active; 'I' for Inactive)
REMARK    1  A    between atoms: C_1  and  C_2
REMARK    2  A    between atoms: C_5  and  C_6
REMARK    3  A    between atoms: C_8  and  C_9
REMARK                            x       y       z     vdW  Elec       q    Type
REMARK                         _______ _______ _______ _____ _____    ______ ____
ROOT
ATOM      1  C   UNL     1       2.232   6.740  19.198  0.00  0.00    +0.000 A 
ATOM      2  C   UNL     1       2.925   6.167  18.146  0.00  0.00    +0.000 A 
ATOM      3  C   UNL     1       3.270   4.824  18.191  0.00  0.00    +0.000 A 
ATOM      4  C   UNL     1       3.046   4.090  19.394  0.00  0.00    +0.000 A 
ATOM      5  C   UNL     1       3.509   2.775  19.686  0.00  0.00    +0.000 A 
ATOM      6  C   UNL     1       3.214   2.141  20.892  0.00  0.00    +0.000 A 
ATOM      7  C   UNL     1       2.434   2.790  21.835  0.00  0.00    +0.000 A 
ATOM      8  C   UNL     1       1.998   4.090  21.579  0.00  0.00    +0.000 A 
ATOM      9  C   UNL     1       2.305   4.749  20.397  0.00  0.00    +0.000 A 
ATOM     10  N   UNL     1       1.885   6.020  20.286  0.00  0.00    +0.000 NA
ENDROOT
BRANCH   3  11
ATOM     11  C   UNL     1       3.958   4.230  16.998  0.00  0.00    +0.000 C 
ATOM     12  O   UNL     1       3.323   3.417  16.324  0.00  0.00    +0.000 OA
ATOM     13  N   UNL     1       5.278   4.571  16.660  0.00  0.00    +0.000 N 
ATOM     14  C   UNL     1       6.228   5.437  17.381  0.00  0.00    +0.000 C 
ATOM     15  C   UNL     1       7.144   6.244  16.448  0.00  0.00    +0.000 C 
ATOM     16  O   UNL     1       7.711   5.452  15.400  0.00  0.00    +0.000 OA
ATOM     17  C   UNL     1       6.675   4.801  14.648  0.00  0.00    +0.000 C 
ATOM     18  C   UNL     1       5.906   3.838  15.551  0.00  0.00    +0.000 C 
ENDBRANCH   3  11
BRANCH   1  23
ATOM     19  C   UNL     1       0.579  12.311  19.187  0.00  0.00    +0.000 C 
ATOM     20  C   UNL     1       1.046  10.887  19.191  0.00  0.00    +0.000 A 
ATOM     21  C   UNL     1       1.685  10.331  18.081  0.00  0.00    +0.000 A 
ATOM     22  C   UNL     1       2.081   8.989  18.092  0.00  0.00    +0.000 A 
ATOM     23  C   UNL     1       1.845   8.165  19.206  0.00  0.00    +0.000 A 
ATOM     24  C   UNL     1       1.208   8.750  20.315  0.00  0.00    +0.000 A 
ATOM     25  C   UNL     1       0.819  10.090  20.312  0.00  0.00    +0.000 A 
ENDBRANCH   1  23
TORSDOF 2
ENDMDL
MODEL 2
REMARK VINA RESULT:      -8.2      1.642      1.997
REMARK  Name = 
REMARK  3 active torsions:
REMARK  status: ('A' for Active; 'I' for Inactive)
REMARK    1  A    between atoms: C_1  and  C_2
REMARK    2  A    between atoms: C_5  and  C_6
REMARK    3  A    between atoms: C_8  and  C_9
REMARK                            x       y       z     vdW  Elec       q    Type
REMARK                         _______ _______ _______ _____ _____    ______ ____
ROOT
ATOM      1  C   UNL     1       2.143   6.743  19.964  0.00  0.00    +0.000 A 
ATOM      2  C   UNL     1       3.479   6.626  19.621  0.00  0.00    +0.000 A 
ATOM      3  C   UNL     1       3.988   5.399  19.222  0.00  0.00    +0.000 A 
ATOM      4  C   UNL     1       3.163   4.239  19.324  0.00  0.00    +0.000 A 
ATOM      5  C   UNL     1       3.573   2.887  19.147  0.00  0.00    +0.000 A 
ATOM      6  C   UNL     1       2.675   1.825  19.250  0.00  0.00    +0.000 A 
ATOM      7  C   UNL     1       1.339   2.080  19.513  0.00  0.00    +0.000 A 
ATOM      8  C   UNL     1       0.925   3.396  19.719  0.00  0.00    +0.000 A 
ATOM      9  C   UNL     1       1.809   4.464  19.650  0.00  0.00    +0.000 A 
ATOM     10  N   UNL     1       1.312   5.680  19.926  0.00  0.00    +0.000 NA
ENDROOT
BRANCH   3  11
ATOM     11  C   UNL     1       5.423   5.334  18.793  0.00  0.00    +0.000 C 
ATOM     12  O   UNL     1       6.265   5.096  19.662  0.00  0.00    +0.000 OA
ATOM     13  N   UNL     1       5.807   5.547  17.458  0.00  0.00    +0.000 N 
ATOM     14  C   UNL     1       4.977   5.933  16.303  0.00  0.00    +0.000 C 
ATOM     15  C   UNL     1       5.433   5.293  14.984  0.00  0.00    +0.000 C 
ATOM     16  O   UNL     1       6.847   5.381  14.780  0.00  0.00    +0.000 OA
ATOM     17  C   UNL     1       7.551   4.804  15.890  0.00  0.00    +0.000 C 
ATOM     18  C   UNL     1       7.246   5.591  17.164  0.00  0.00    +0.000 C 
ENDBRANCH   3  11
BRANCH   1  23
ATOM     19  C   UNL     1      -0.320  11.722  21.671  0.00  0.00    +0.000 C 
ATOM     20  C   UNL     1       0.352  10.459  21.225  0.00  0.00    +0.000 A 
ATOM     21  C   UNL     1       0.746  10.277  19.898  0.00  0.00    +0.000 A 
ATOM     22  C   UNL     1       1.339   9.075  19.495  0.00  0.00    +0.000 A 
ATOM     23  C   UNL     1       1.550   8.023  20.402  0.00  0.00    +0.000 A 
ATOM     24  C   UNL     1       1.153   8.233  21.735  0.00  0.00    +0.000 A 
ATOM     25  C   UNL     1       0.568   9.433  22.143  0.00  0.00    +0.000 A 
ENDBRANCH   1  23
TORSDOF 2
ENDMDL
MODEL 3
REMARK VINA RESULT:      -8.0      1.382      1.891
REMARK  Name = 
REMARK  3 active torsions:
REMARK  status: ('A' for Active; 'I' for Inactive)
REMARK    1  A    between atoms: C_1  and  C_2
REMARK    2  A    between atoms: C_5  and  C_6
REMARK    3  A    between atoms: C_8  and  C_9
REMARK                            x       y       z     vdW  Elec       q    Type
REMARK                         _______ _______ _______ _____ _____    ______ ____
ROOT
ATOM      1  C   UNL     1       2.215   7.022  19.742  0.00  0.00    +0.000 A 
ATOM      2  C   UNL     1       3.527   6.815  19.353  0.00  0.00    +0.000 A 
ATOM      3  C   UNL     1       4.062   5.535  19.365  0.00  0.00    +0.000 A 
ATOM      4  C   UNL     1       3.299   4.470  19.932  0.00  0.00    +0.000 A 
ATOM      5  C   UNL     1       3.757   3.149  20.204  0.00  0.00    +0.000 A 
ATOM      6  C   UNL     1       2.917   2.175  20.744  0.00  0.00    +0.000 A 
ATOM      7  C   UNL     1       1.593   2.483  21.011  0.00  0.00    +0.000 A 
ATOM      8  C   UNL     1       1.136   3.780  20.779  0.00  0.00    +0.000 A 
ATOM      9  C   UNL     1       1.964   4.771  20.270  0.00  0.00    +0.000 A 
ATOM     10  N   UNL     1       1.432   5.998  20.146  0.00  0.00    +0.000 NA
ENDROOT
BRANCH   3  11
ATOM     11  C   UNL     1       5.464   5.349  18.868  0.00  0.00    +0.000 C 
ATOM     12  O   UNL     1       6.343   5.155  19.711  0.00  0.00    +0.000 OA
ATOM     13  N   UNL     1       5.778   5.404  17.500  0.00  0.00    +0.000 N 
ATOM     14  C   UNL     1       4.901   5.715  16.357  0.00  0.00    +0.000 C 
ATOM     15  C   UNL     1       5.247   4.920  15.089  0.00  0.00    +0.000 C 
ATOM     16  O   UNL     1       6.649   4.910  14.802  0.00  0.00    +0.000 OA
ATOM     17  C   UNL     1       7.388   4.411  15.927  0.00  0.00    +0.000 C 
ATOM     18  C   UNL     1       7.198   5.339  17.126  0.00  0.00    +0.000 C 
ENDBRANCH   3  11
BRANCH   1  23
ATOM     19  C   UNL     1      -0.087  12.357  19.813  0.00  0.00    +0.000 C 
ATOM     20  C   UNL     1       0.468  10.965  19.800  0.00  0.00    +0.000 A 
ATOM     21  C   UNL     1       0.491  10.183  20.957  0.00  0.00    +0.000 A 
ATOM     22  C   UNL     1       1.046   8.899  20.931  0.00  0.00    +0.000 A 
ATOM     23  C   UNL     1       1.598   8.363  19.755  0.00  0.00    +0.000 A 
ATOM     24  C   UNL     1       1.555   9.165  18.600  0.00  0.00    +0.000 A 
ATOM     25  C   UNL     1       0.995  10.444  18.619  0.00  0.00    +0.000 A 
ENDBRANCH   1  23
TORSDOF 2
ENDMDL
MODEL 4
REMARK VINA RESULT:      -7.5      3.877      7.821
REMARK  Name = 
REMARK  3 active torsions:
REMARK  status: ('A' for Active; 'I' for Inactive)
REMARK    1  A    between atoms: C_1  and  C_2
REMARK    2  A    between atoms: C_5  and  C_6
REMARK    3  A    between atoms: C_8  and  C_9
REMARK                            x       y       z     vdW  Elec       q    Type
REMARK                         _______ _______ _______ _____ _____    ______ ____
ROOT
ATOM      1  C   UNL     1       1.786   8.381  19.237  0.00  0.00    +0.000 A 
ATOM      2  C   UNL     1       1.208   9.475  18.616  0.00  0.00    +0.000 A 
ATOM      3  C   UNL     1       0.501  10.405  19.364  0.00  0.00    +0.000 A 
ATOM      4  C   UNL     1       0.243  10.136  20.742  0.00  0.00    +0.000 A 
ATOM      5  C   UNL     1      -0.619  10.871  21.604  0.00  0.00    +0.000 A 
ATOM      6  C   UNL     1      -0.783  10.531  22.947  0.00  0.00    +0.000 A 
ATOM      7  C   UNL     1      -0.079   9.461  23.474  0.00  0.00    +0.000 A 
ATOM      8  C   UNL     1       0.747   8.711  22.637  0.00  0.00    +0.000 A 
ATOM      9  C   UNL     1       0.901   9.016  21.291  0.00  0.00    +0.000 A 
ATOM     10  N   UNL     1       1.673   8.188  20.568  0.00  0.00    +0.000 NA
ENDROOT
BRANCH   3  11
ATOM     11  C   UNL     1      -0.047  11.610  18.660  0.00  0.00    +0.000 C 
ATOM     12  O   UNL     1      -1.022  11.443  17.924  0.00  0.00    +0.000 OA
ATOM     13  N   UNL     1       0.526  12.883  18.817  0.00  0.00    +0.000 N 
ATOM     14  C   UNL     1       1.735  13.272  19.566  0.00  0.00    +0.000 C 
ATOM     15  C   UNL     1       1.624  14.655  20.225  0.00  0.00    +0.000 C 
ATOM     16  O   UNL     1       1.100  15.653  19.344  0.00  0.00    +0.000 OA
ATOM     17  C   UNL     1      -0.171  15.242  18.819  0.00  0.00    +0.000 C 
ATOM     18  C   UNL     1      -0.002  13.973  17.985  0.00  0.00    +0.000 C 
ENDBRANCH   3  11
BRANCH   1  23
ATOM     19  C   UNL     1       4.845   4.331  16.408  0.00  0.00    +0.000 C 
ATOM     20  C   UNL     1       4.041   5.389  17.099  0.00  0.00    +0.000 A 
ATOM     21  C   UNL     1       4.368   6.742  16.982  0.00  0.00    +0.000 A 
ATOM     22  C   UNL     1       3.627   7.710  17.667  0.00  0.00    +0.000 A 
ATOM     23  C   UNL     1       2.543   7.358  18.489  0.00  0.00    +0.000 A 
ATOM     24  C   UNL     1       2.226   5.990  18.584  0.00  0.00    +0.000 A 
ATOM     25  C   UNL     1       2.959   5.021  17.897  0.00  0.00    +0.000 A 
ENDBRANCH   1  23
TORSDOF 2
ENDMDL
MODEL 5
REMARK VINA RESULT:      -7.5      1.853      2.438
REMARK  Name = 
REMARK  3 active torsions:
REMARK  status: ('A' for Active; 'I' for Inactive)
REMARK    1  A    between atoms: C_1  and  C_2
REMARK    2  A    between atoms: C_5  and  C_6
REMARK    3  A    between atoms: C_8  and  C_9
REMARK                            x       y       z     vdW  Elec       q    Type
REMARK                         _______ _______ _______ _____ _____    ______ ____
ROOT
ATOM      1  C   UNL     1       1.445   7.308  20.413  0.00  0.00    +0.000 A 
ATOM      2  C   UNL     1       2.467   7.413  19.485  0.00  0.00    +0.000 A 
ATOM      3  C   UNL     1       3.017   6.269  18.925  0.00  0.00    +0.000 A 
ATOM      4  C   UNL     1       2.630   4.993  19.434  0.00  0.00    +0.000 A 
ATOM      5  C   UNL     1       3.226   3.738  19.120  0.00  0.00    +0.000 A 
ATOM      6  C   UNL     1       2.753   2.543  19.662  0.00  0.00    +0.000 A 
ATOM      7  C   UNL     1       1.663   2.560  20.516  0.00  0.00    +0.000 A 
ATOM      8  C   UNL     1       1.086   3.783  20.857  0.00  0.00    +0.000 A 
ATOM      9  C   UNL     1       1.560   4.986  20.352  0.00  0.00    +0.000 A 
ATOM     10  N   UNL     1       0.967   6.106  20.799  0.00  0.00    +0.000 NA
ENDROOT
BRANCH   3  11
ATOM     11  C   UNL     1       4.072   6.434  17.873  0.00  0.00    +0.000 C 
ATOM     12  O   UNL     1       3.729   6.931  16.798  0.00  0.00    +0.000 OA
ATOM     13  N   UNL     1       5.401   6.030  18.088  0.00  0.00    +0.000 N 
ATOM     14  C   UNL     1       5.984   5.338  19.252  0.00  0.00    +0.000 C 
ATOM     15  C   UNL     1       7.423   5.779  19.563  0.00  0.00    +0.000 C 
ATOM     16  O   UNL     1       8.255   5.833  18.400  0.00  0.00    +0.000 OA
ATOM     17  C   UNL     1       7.671   6.687  17.405  0.00  0.00    +0.000 C 
ATOM     18  C   UNL     1       6.329   6.114  16.952  0.00  0.00    +0.000 C 
ENDBRANCH   3  11
BRANCH   1  23
ATOM     19  C   UNL     1      -1.110  11.902  22.889  0.00  0.00    +0.000 C 
ATOM     20  C   UNL     1      -0.417  10.741  22.244  0.00  0.00    +0.000 A 
ATOM     21  C   UNL     1      -0.148  10.727  20.874  0.00  0.00    +0.000 A 
ATOM     22  C   UNL     1       0.467   9.617  20.285  0.00  0.00    +0.000 A 
ATOM     23  C   UNL     1       0.827   8.491  21.045  0.00  0.00    +0.000 A 
ATOM     24  C   UNL     1       0.556   8.532  22.425  0.00  0.00    +0.000 A 
ATOM     25  C   UNL     1      -0.052   9.640  23.017  0.00  0.00    +0.000 A 
ENDBRANCH   1  23
TORSDOF 2
ENDMDL
MODEL 6
REMARK VINA RESULT:      -7.3      2.137      4.750
REMARK  Name = 
REMARK  3 active torsions:
REMARK  status: ('A' for Active; 'I' for Inactive)
REMARK    1  A    between atoms: C_1  and  C_2
REMARK    2  A    between atoms: C_5  and  C_6
REMARK    3  A    between atoms: C_8  and  C_9
REMARK                            x       y       z     vdW  Elec       q    Type
REMARK                         _______ _______ _______ _____ _____    ______ ____
ROOT
ATOM      1  C   UNL     1       2.543   8.138  17.902  0.00  0.00    +0.000 A 
ATOM      2  C   UNL     1       1.856   6.956  18.114  0.00  0.00    +0.000 A 
ATOM      3  C   UNL     1       2.497   5.738  17.935  0.00  0.00    +0.000 A 
ATOM      4  C   UNL     1       3.811   5.721  17.378  0.00  0.00    +0.000 A 
ATOM      5  C   UNL     1       4.535   4.574  16.946  0.00  0.00    +0.000 A 
ATOM      6  C   UNL     1       5.829   4.670  16.432  0.00  0.00    +0.000 A 
ATOM      7  C   UNL     1       6.444   5.908  16.351  0.00  0.00    +0.000 A 
ATOM      8  C   UNL     1       5.738   7.046  16.740  0.00  0.00    +0.000 A 
ATOM      9  C   UNL     1       4.439   6.975  17.226  0.00  0.00    +0.000 A 
ATOM     10  N   UNL     1       3.835   8.140  17.512  0.00  0.00    +0.000 NA
ENDROOT
BRANCH   3  11
ATOM     11  C   UNL     1       1.734   4.485  18.245  0.00  0.00    +0.000 C 
ATOM     12  O   UNL     1       1.239   3.873  17.296  0.00  0.00    +0.000 OA
ATOM     13  N   UNL     1       1.575   4.022  19.561  0.00  0.00    +0.000 N 
ATOM     14  C   UNL     1       2.001   4.651  20.825  0.00  0.00    +0.000 C 
ATOM     15  C   UNL     1       2.446   3.636  21.889  0.00  0.00    +0.000 C 
ATOM     16  O   UNL     1       1.539   2.537  22.026  0.00  0.00    +0.000 OA
ATOM     17  C   UNL     1       1.345   1.887  20.761  0.00  0.00    +0.000 C 
ATOM     18  C   UNL     1       0.702   2.858  19.771  0.00  0.00    +0.000 C 
ENDBRANCH   3  11
BRANCH   1  23
ATOM     19  C   UNL     1       0.088  13.344  18.706  0.00  0.00    +0.000 C 
ATOM     20  C   UNL     1       0.699  11.997  18.462  0.00  0.00    +0.000 A 
ATOM     21  C   UNL     1      -0.058  10.828  18.564  0.00  0.00    +0.000 A 
ATOM     22  C   UNL     1       0.540   9.579  18.368  0.00  0.00    +0.000 A 
ATOM     23  C   UNL     1       1.909   9.461  18.072  0.00  0.00    +0.000 A 
ATOM     24  C   UNL     1       2.649  10.653  17.966  0.00  0.00    +0.000 A 
ATOM     25  C   UNL     1       2.055  11.902  18.153  0.00  0.00    +0.000 A 
ENDBRANCH   1  23
TORSDOF 2
ENDMDL
MODEL 7
REMARK VINA RESULT:      -7.3      3.802      7.728
REMARK  Name = 
REMARK  3 active torsions:
REMARK  status: ('A' for Active; 'I' for Inactive)
REMARK    1  A    between atoms: C_1  and  C_2
REMARK    2  A    between atoms: C_5  and  C_6
REMARK    3  A    between atoms: C_8  and  C_9
REMARK                            x       y       z     vdW  Elec       q    Type
REMARK                         _______ _______ _______ _____ _____    ______ ____
ROOT
ATOM      1  C   UNL     1       1.848   8.136  19.225  0.00  0.00    +0.000 A 
ATOM      2  C   UNL     1       1.120   9.081  18.523  0.00  0.00    +0.000 A 
ATOM      3  C   UNL     1       0.358  10.018  19.206  0.00  0.00    +0.000 A 
ATOM      4  C   UNL     1       0.209   9.894  20.620  0.00  0.00    +0.000 A 
ATOM      5  C   UNL     1      -0.680  10.637  21.448  0.00  0.00    +0.000 A 
ATOM      6  C   UNL     1      -0.730  10.448  22.829  0.00  0.00    +0.000 A 
ATOM      7  C   UNL     1       0.115   9.528  23.427  0.00  0.00    +0.000 A 
ATOM      8  C   UNL     1       0.970   8.770  22.627  0.00  0.00    +0.000 A 
ATOM      9  C   UNL     1       1.015   8.922  21.248  0.00  0.00    +0.000 A 
ATOM     10  N   UNL     1       1.831   8.096  20.574  0.00  0.00    +0.000 NA
ENDROOT
BRANCH   3  11
ATOM     11  C   UNL     1      -0.357  11.066  18.407  0.00  0.00    +0.000 C 
ATOM     12  O   UNL     1       0.186  12.168  18.300  0.00  0.00    +0.000 OA
ATOM     13  N   UNL     1      -1.604  10.817  17.808  0.00  0.00    +0.000 N 
ATOM     14  C   UNL     1      -2.453   9.615  17.895  0.00  0.00    +0.000 C 
ATOM     15  C   UNL     1      -3.212   9.311  16.595  0.00  0.00    +0.000 C 
ATOM     16  O   UNL     1      -3.840  10.467  16.031  0.00  0.00    +0.000 OA
ATOM     17  C   UNL     1      -2.875  11.508  15.819  0.00  0.00    +0.000 C 
ATOM     18  C   UNL     1      -2.282  11.947  17.157  0.00  0.00    +0.000 C 
ENDBRANCH   3  11
BRANCH   1  23
ATOM     19  C   UNL     1       4.994   4.110  16.457  0.00  0.00    +0.000 C 
ATOM     20  C   UNL     1       4.203   5.138  17.207  0.00  0.00    +0.000 A 
ATOM     21  C   UNL     1       3.221   4.766  18.128  0.00  0.00    +0.000 A 
ATOM     22  C   UNL     1       2.468   5.742  18.790  0.00  0.00    +0.000 A 
ATOM     23  C   UNL     1       2.670   7.112  18.550  0.00  0.00    +0.000 A 
ATOM     24  C   UNL     1       3.671   7.462  17.625  0.00  0.00    +0.000 A 
ATOM     25  C   UNL     1       4.429   6.492  16.967  0.00  0.00    +0.000 A 
ENDBRANCH   1  23
TORSDOF 2
ENDMDL
MODEL 8
REMARK VINA RESULT:      -7.3      4.382      9.068
REMARK  Name = 
REMARK  3 active torsions:
REMARK  status: ('A' for Active; 'I' for Inactive)
REMARK    1  A    between atoms: C_1  and  C_2
REMARK    2  A    between atoms: C_5  and  C_6
REMARK    3  A    between atoms: C_8  and  C_9
REMARK                            x       y       z     vdW  Elec       q    Type
REMARK                         _______ _______ _______ _____ _____    ______ ____
ROOT
ATOM      1  C   UNL     1       1.494   9.879  18.662  0.00  0.00    +0.000 A 
ATOM      2  C   UNL     1       0.137  10.084  18.842  0.00  0.00    +0.000 A 
ATOM      3  C   UNL     1      -0.385  11.367  18.780  0.00  0.00    +0.000 A 
ATOM      4  C   UNL     1       0.508  12.477  18.691  0.00  0.00    +0.000 A 
ATOM      5  C   UNL     1       0.167  13.854  18.812  0.00  0.00    +0.000 A 
ATOM      6  C   UNL     1       1.122  14.863  18.687  0.00  0.00    +0.000 A 
ATOM      7  C   UNL     1       2.439  14.531  18.419  0.00  0.00    +0.000 A 
ATOM      8  C   UNL     1       2.797  13.186  18.327  0.00  0.00    +0.000 A 
ATOM      9  C   UNL     1       1.867  12.166  18.478  0.00  0.00    +0.000 A 
ATOM     10  N   UNL     1       2.336  10.908  18.431  0.00  0.00    +0.000 NA
ENDROOT
BRANCH   3  11
ATOM     11  C   UNL     1      -1.870  11.534  18.912  0.00  0.00    +0.000 C 
ATOM     12  O   UNL     1      -2.296  12.016  19.963  0.00  0.00    +0.000 OA
ATOM     13  N   UNL     1      -2.751  11.149  17.888  0.00  0.00    +0.000 N 
ATOM     14  C   UNL     1      -2.454  10.476  16.611  0.00  0.00    +0.000 C 
ATOM     15  C   UNL     1      -3.355  10.937  15.455  0.00  0.00    +0.000 C 
ATOM     16  O   UNL     1      -4.739  10.989  15.814  0.00  0.00    +0.000 OA
ATOM     17  C   UNL     1      -4.928  11.826  16.964  0.00  0.00    +0.000 C 
ATOM     18  C   UNL     1      -4.192  11.233  18.164  0.00  0.00    +0.000 C 
ENDBRANCH   3  11
BRANCH   1  23
ATOM     19  C   UNL     1       3.787   4.542  18.831  0.00  0.00    +0.000 C 
ATOM     20  C   UNL     1       3.222   5.930  18.819  0.00  0.00    +0.000 A 
ATOM     21  C   UNL     1       2.435   6.401  19.872  0.00  0.00    +0.000 A 
ATOM     22  C   UNL     1       1.887   7.688  19.824  0.00  0.00    +0.000 A 
ATOM     23  C   UNL     1       2.104   8.535  18.724  0.00  0.00    +0.000 A 
ATOM     24  C   UNL     1       2.907   8.042  17.680  0.00  0.00    +0.000 A 
ATOM     25  C   UNL     1       3.462   6.762  17.727  0.00  0.00    +0.000 A 
ENDBRANCH   1  23
TORSDOF 2
ENDMDL
MODEL 9
REMARK VINA RESULT:      -7.2      3.992      7.963
REMARK  Name = 
REMARK  3 active torsions:
REMARK  status: ('A' for Active; 'I' for Inactive)
REMARK    1  A    between atoms: C_1  and  C_2
REMARK    2  A    between atoms: C_5  and  C_6
REMARK    3  A    between atoms: C_8  and  C_9
REMARK                            x       y       z     vdW  Elec       q    Type
REMARK                         _______ _______ _______ _____ _____    ______ ____
ROOT
ATOM      1  C   UNL     1       1.724   8.633  19.539  0.00  0.00    +0.000 A 
ATOM      2  C   UNL     1       1.486   9.850  18.924  0.00  0.00    +0.000 A 
ATOM      3  C   UNL     1       0.819  10.856  19.609  0.00  0.00    +0.000 A 
ATOM      4  C   UNL     1       0.245  10.565  20.882  0.00  0.00    +0.000 A 
ATOM      5  C   UNL     1      -0.630  11.403  21.631  0.00  0.00    +0.000 A 
ATOM      6  C   UNL     1      -1.120  11.026  22.881  0.00  0.00    +0.000 A 
ATOM      7  C   UNL     1      -0.738   9.814  23.431  0.00  0.00    +0.000 A 
ATOM      8  C   UNL     1       0.094   8.967  22.698  0.00  0.00    +0.000 A 
ATOM      9  C   UNL     1       0.568   9.311  21.440  0.00  0.00    +0.000 A 
ATOM     10  N   UNL     1       1.311   8.392  20.802  0.00  0.00    +0.000 NA
ENDROOT
BRANCH   3  11
ATOM     11  C   UNL     1       0.647  12.181  18.928  0.00  0.00    +0.000 C 
ATOM     12  O   UNL     1      -0.196  12.253  18.031  0.00  0.00    +0.000 OA
ATOM     13  N   UNL     1       1.418  13.300  19.282  0.00  0.00    +0.000 N 
ATOM     14  C   UNL     1       2.528  13.396  20.248  0.00  0.00    +0.000 C 
ATOM     15  C   UNL     1       2.571  14.738  20.995  0.00  0.00    +0.000 C 
ATOM     16  O   UNL     1       2.414  15.865  20.127  0.00  0.00    +0.000 OA
ATOM     17  C   UNL     1       1.200  15.749  19.369  0.00  0.00    +0.000 C 
ATOM     18  C   UNL     1       1.265  14.516  18.470  0.00  0.00    +0.000 C 
ENDBRANCH   3  11
BRANCH   1  23
ATOM     19  C   UNL     1       4.376   4.280  16.749  0.00  0.00    +0.000 C 
ATOM     20  C   UNL     1       3.715   5.394  17.503  0.00  0.00    +0.000 A 
ATOM     21  C   UNL     1       2.835   5.135  18.556  0.00  0.00    +0.000 A 
ATOM     22  C   UNL     1       2.201   6.189  19.223  0.00  0.00    +0.000 A 
ATOM     23  C   UNL     1       2.423   7.527  18.856  0.00  0.00    +0.000 A 
ATOM     24  C   UNL     1       3.321   7.763  17.799  0.00  0.00    +0.000 A 
ATOM     25  C   UNL     1       3.961   6.715  17.135  0.00  0.00    +0.000 A 
ENDBRANCH   1  23
TORSDOF 2
ENDMDL
