MODEL 1
REMARK VINA RESULT:      -5.4      0.000      0.000
REMARK  Name = 
REMARK  18 active torsions:
REMARK  status: ('A' for Active; 'I' for Inactive)
REMARK    1  A    between atoms: C_1  and  C_2
REMARK    2  A    between atoms: C_2  and  C_3
REMARK    3  A    between atoms: C_3  and  C_4
REMARK    4  A    between atoms: C_4  and  C_5
REMARK    5  A    between atoms: C_5  and  C_6
REMARK    6  A    between atoms: C_6  and  C_7
REMARK    7  A    between atoms: C_7  and  C_8
REMARK    8  A    between atoms: C_8  and  C_9
REMARK    9  A    between atoms: C_9  and  C_10
REMARK   10  A    between atoms: C_10  and  C_11
REMARK   11  A    between atoms: C_11  and  C_12
REMARK   12  A    between atoms: C_12  and  O_13
REMARK   13  A    between atoms: O_13  and  C_14
REMARK   14  A    between atoms: C_14  and  C_16
REMARK   15  A    between atoms: C_16  and  N_17
REMARK   16  A    between atoms: N_17  and  C_18
REMARK   17  A    between atoms: N_17  and  C_19
REMARK   18  A    between atoms: N_17  and  C_20
REMARK                            x       y       z     vdW  Elec       q    Type
REMARK                         _______ _______ _______ _____ _____    ______ ____
ROOT
ATOM      1  C   UNL     1       5.520   6.239  15.647  0.00  0.00    +0.000 C 
ENDROOT
BRANCH   1   2
ATOM      2  C   UNL     1       6.566   5.317  16.247  0.00  0.00    +0.000 C 
BRANCH   2   3
ATOM      3  C   UNL     1       6.573   3.986  15.516  0.00  0.00    +0.000 C 
BRANCH   3   4
ATOM      4  C   UNL     1       5.831   4.117  14.198  0.00  0.00    +0.000 C 
BRANCH   4   5
ATOM      5  C   UNL     1       6.796   3.954  13.039  0.00  0.00    +0.000 C 
BRANCH   5   6
ATOM      6  C   UNL     1       6.073   3.368  11.838  0.00  0.00    +0.000 C 
BRANCH   6   7
ATOM      7  C   UNL     1       4.658   2.971  12.222  0.00  0.00    +0.000 C 
BRANCH   7   8
ATOM      8  C   UNL     1       3.778   2.904  10.984  0.00  0.00    +0.000 C 
BRANCH   8  10
ATOM      9  C   UNL     1       2.871   4.252   9.090  0.00  0.00    +0.000 C 
ATOM     10  C   UNL     1       3.433   4.305  10.497  0.00  0.00    +0.000 C 
ENDBRANCH   8  10
ENDBRANCH   7   8
ENDBRANCH   6   7
ENDBRANCH   5   6
ENDBRANCH   4   5
ENDBRANCH   3   4
ENDBRANCH   2   3
ENDBRANCH   1   2
BRANCH   1  11
ATOM     11  C   UNL     1       4.713   6.887  16.752  0.00  0.00    +0.000 C 
BRANCH  11  12
ATOM     12  C   UNL     1       4.258   5.840  17.752  0.00  0.00    +0.000 C 
BRANCH  12  13
ATOM     13  O   UNL     1       2.829   5.860  17.838  0.00  0.00    +0.000 OA
BRANCH  13  14
ATOM     14  C   UNL     1       2.315   4.606  17.680  0.00  0.00    +0.000 C 
ATOM     15  O   UNL     1       1.178   4.380  17.314  0.00  0.00    +0.000 OA
BRANCH  14  16
ATOM     16  C   UNL     1       3.328   3.512  18.020  0.00  0.00    +0.000 C 
BRANCH  16  17
ATOM     17  N   UNL     1       3.045   2.803  19.400  0.00  0.00    +0.000 N 
ATOM     18  C   UNL     1       4.286   2.020  19.831  0.00  0.00    +0.000 C 
ATOM     19  C   UNL     1       2.680   3.857  20.446  0.00  0.00    +0.000 C 
ATOM     20  C   UNL     1       1.885   1.830  19.276  0.00  0.00    +0.000 C 
ENDBRANCH  16  17
ENDBRANCH  14  16
ENDBRANCH  13  14
ENDBRANCH  12  13
ENDBRANCH  11  12
ENDBRANCH   1  11
TORSDOF 14
ENDMDL
MODEL 2
REMARK VINA RESULT:      -5.3      4.780      7.464
REMARK  Name = 
REMARK  18 active torsions:
REMARK  status: ('A' for Active; 'I' for Inactive)
REMARK    1  A    between atoms: C_1  and  C_2
REMARK    2  A    between atoms: C_2  and  C_3
REMARK    3  A    between atoms: C_3  and  C_4
REMARK    4  A    between atoms: C_4  and  C_5
REMARK    5  A    between atoms: C_5  and  C_6
REMARK    6  A    between atoms: C_6  and  C_7
REMARK    7  A    between atoms: C_7  and  C_8
REMARK    8  A    between atoms: C_8  and  C_9
REMARK    9  A    between atoms: C_9  and  C_10
REMARK   10  A    between atoms: C_10  and  C_11
REMARK   11  A    between atoms: C_11  and  C_12
REMARK   12  A    between atoms: C_12  and  O_13
REMARK   13  A    between atoms: O_13  and  C_14
REMARK   14  A    between atoms: C_14  and  C_16
REMARK   15  A    between atoms: C_16  and  N_17
REMARK   16  A    between atoms: N_17  and  C_18
REMARK   17  A    between atoms: N_17  and  C_19
REMARK   18  A    between atoms: N_17  and  C_20
REMARK                            x       y       z     vdW  Elec       q    Type
REMARK                         _______ _______ _______ _____ _____    ______ ____
ROOT
ATOM      1  C   UNL     1       5.932   7.231  17.128  0.00  0.00    +0.000 C 
ENDROOT
BRANCH   1   2
ATOM      2  C   UNL     1       7.363   6.741  17.260  0.00  0.00    +0.000 C 
BRANCH   2   3
ATOM      3  C   UNL     1       8.092   7.536  18.328  0.00  0.00    +0.000 C 
BRANCH   3   4
ATOM      4  C   UNL     1       8.238   8.982  17.887  0.00  0.00    +0.000 C 
BRANCH   4   5
ATOM      5  C   UNL     1       9.050   9.758  18.908  0.00  0.00    +0.000 C 
BRANCH   5   6
ATOM      6  C   UNL     1       9.168  11.212  18.484  0.00  0.00    +0.000 C 
BRANCH   6   7
ATOM      7  C   UNL     1      10.471  11.434  17.736  0.00  0.00    +0.000 C 
BRANCH   7   8
ATOM      8  C   UNL     1      11.649  11.320  18.690  0.00  0.00    +0.000 C 
BRANCH   8  10
ATOM      9  C   UNL     1      12.032  13.690  18.009  0.00  0.00    +0.000 C 
ATOM     10  C   UNL     1      12.097  12.699  19.155  0.00  0.00    +0.000 C 
ENDBRANCH   8  10
ENDBRANCH   7   8
ENDBRANCH   6   7
ENDBRANCH   5   6
ENDBRANCH   4   5
ENDBRANCH   3   4
ENDBRANCH   2   3
ENDBRANCH   1   2
BRANCH   1  11
ATOM     11  C   UNL     1       5.091   6.178  16.438  0.00  0.00    +0.000 C 
BRANCH  11  12
ATOM     12  C   UNL     1       3.991   5.696  17.364  0.00  0.00    +0.000 C 
BRANCH  12  13
ATOM     13  O   UNL     1       4.156   4.294  17.603  0.00  0.00    +0.000 OA
BRANCH  13  14
ATOM     14  C   UNL     1       4.413   4.052  18.921  0.00  0.00    +0.000 C 
ATOM     15  O   UNL     1       5.443   3.552  19.331  0.00  0.00    +0.000 OA
BRANCH  14  16
ATOM     16  C   UNL     1       3.259   4.477  19.829  0.00  0.00    +0.000 C 
BRANCH  16  17
ATOM     17  N   UNL     1       2.269   3.299  20.178  0.00  0.00    +0.000 N 
ATOM     18  C   UNL     1       2.467   2.158  19.179  0.00  0.00    +0.000 C 
ATOM     19  C   UNL     1       2.534   2.820  21.606  0.00  0.00    +0.000 C 
ATOM     20  C   UNL     1       0.826   3.766  20.090  0.00  0.00    +0.000 C 
ENDBRANCH  16  17
ENDBRANCH  14  16
ENDBRANCH  13  14
ENDBRANCH  12  13
ENDBRANCH  11  12
ENDBRANCH   1  11
TORSDOF 14
ENDMDL
MODEL 3
REMARK VINA RESULT:      -5.2      1.313      1.795
REMARK  Name = 
REMARK  18 active torsions:
REMARK  status: ('A' for Active; 'I' for Inactive)
REMARK    1  A    between atoms: C_1  and  C_2
REMARK    2  A    between atoms: C_2  and  C_3
REMARK    3  A    between atoms: C_3  and  C_4
REMARK    4  A    between atoms: C_4  and  C_5
REMARK    5  A    between atoms: C_5  and  C_6
REMARK    6  A    between atoms: C_6  and  C_7
REMARK    7  A    between atoms: C_7  and  C_8
REMARK    8  A    between atoms: C_8  and  C_9
REMARK    9  A    between atoms: C_9  and  C_10
REMARK   10  A    between atoms: C_10  and  C_11
REMARK   11  A    between atoms: C_11  and  C_12
REMARK   12  A    between atoms: C_12  and  O_13
REMARK   13  A    between atoms: O_13  and  C_14
REMARK   14  A    between atoms: C_14  and  C_16
REMARK   15  A    between atoms: C_16  and  N_17
REMARK   16  A    between atoms: N_17  and  C_18
REMARK   17  A    between atoms: N_17  and  C_19
REMARK   18  A    between atoms: N_17  and  C_20
REMARK                            x       y       z     vdW  Elec       q    Type
REMARK                         _______ _______ _______ _____ _____    ______ ____
ROOT
ATOM      1  C   UNL     1       4.513   4.178  16.603  0.00  0.00    +0.000 C 
ENDROOT
BRANCH   1   2
ATOM      2  C   UNL     1       5.502   3.594  15.610  0.00  0.00    +0.000 C 
BRANCH   2   3
ATOM      3  C   UNL     1       6.681   4.533  15.431  0.00  0.00    +0.000 C 
BRANCH   3   4
ATOM      4  C   UNL     1       6.841   4.887  13.963  0.00  0.00    +0.000 C 
BRANCH   4   5
ATOM      5  C   UNL     1       6.771   3.630  13.115  0.00  0.00    +0.000 C 
BRANCH   5   6
ATOM      6  C   UNL     1       5.982   3.902  11.845  0.00  0.00    +0.000 C 
BRANCH   6   7
ATOM      7  C   UNL     1       4.937   2.820  11.637  0.00  0.00    +0.000 C 
BRANCH   7   8
ATOM      8  C   UNL     1       3.586   3.447  11.332  0.00  0.00    +0.000 C 
BRANCH   8  10
ATOM      9  C   UNL     1       2.724   4.567   9.276  0.00  0.00    +0.000 C 
ATOM     10  C   UNL     1       3.231   3.264   9.863  0.00  0.00    +0.000 C 
ENDBRANCH   8  10
ENDBRANCH   7   8
ENDBRANCH   6   7
ENDBRANCH   5   6
ENDBRANCH   4   5
ENDBRANCH   3   4
ENDBRANCH   2   3
ENDBRANCH   1   2
BRANCH   1  11
ATOM     11  C   UNL     1       4.699   5.678  16.690  0.00  0.00    +0.000 C 
BRANCH  11  12
ATOM     12  C   UNL     1       4.596   6.137  18.132  0.00  0.00    +0.000 C 
BRANCH  12  13
ATOM     13  O   UNL     1       3.283   6.656  18.369  0.00  0.00    +0.000 OA
BRANCH  13  14
ATOM     14  C   UNL     1       2.793   6.214  19.563  0.00  0.00    +0.000 C 
ATOM     15  O   UNL     1       1.961   6.813  20.219  0.00  0.00    +0.000 OA
BRANCH  14  16
ATOM     16  C   UNL     1       3.409   4.882  19.991  0.00  0.00    +0.000 C 
BRANCH  16  17
ATOM     17  N   UNL     1       2.416   3.663  19.863  0.00  0.00    +0.000 N 
ATOM     18  C   UNL     1       1.662   3.483  21.181  0.00  0.00    +0.000 C 
ATOM     19  C   UNL     1       1.442   3.921  18.713  0.00  0.00    +0.000 C 
ATOM     20  C   UNL     1       3.176   2.381  19.568  0.00  0.00    +0.000 C 
ENDBRANCH  16  17
ENDBRANCH  14  16
ENDBRANCH  13  14
ENDBRANCH  12  13
ENDBRANCH  11  12
ENDBRANCH   1  11
TORSDOF 14
ENDMDL
MODEL 4
REMARK VINA RESULT:      -5.0      3.570      6.706
REMARK  Name = 
REMARK  18 active torsions:
REMARK  status: ('A' for Active; 'I' for Inactive)
REMARK    1  A    between atoms: C_1  and  C_2
REMARK    2  A    between atoms: C_2  and  C_3
REMARK    3  A    between atoms: C_3  and  C_4
REMARK    4  A    between atoms: C_4  and  C_5
REMARK    5  A    between atoms: C_5  and  C_6
REMARK    6  A    between atoms: C_6  and  C_7
REMARK    7  A    between atoms: C_7  and  C_8
REMARK    8  A    between atoms: C_8  and  C_9
REMARK    9  A    between atoms: C_9  and  C_10
REMARK   10  A    between atoms: C_10  and  C_11
REMARK   11  A    between atoms: C_11  and  C_12
REMARK   12  A    between atoms: C_12  and  O_13
REMARK   13  A    between atoms: O_13  and  C_14
REMARK   14  A    between atoms: C_14  and  C_16
REMARK   15  A    between atoms: C_16  and  N_17
REMARK   16  A    between atoms: N_17  and  C_18
REMARK   17  A    between atoms: N_17  and  C_19
REMARK   18  A    between atoms: N_17  and  C_20
REMARK                            x       y       z     vdW  Elec       q    Type
REMARK                         _______ _______ _______ _____ _____    ______ ____
ROOT
ATOM      1  C   UNL     1       4.241   2.642  17.700  0.00  0.00    +0.000 C 
ENDROOT
BRANCH   1   2
ATOM      2  C   UNL     1       3.183   1.976  18.560  0.00  0.00    +0.000 C 
BRANCH   2   3
ATOM      3  C   UNL     1       3.437   2.271  20.027  0.00  0.00    +0.000 C 
BRANCH   3   4
ATOM      4  C   UNL     1       2.132   2.629  20.715  0.00  0.00    +0.000 C 
BRANCH   4   5
ATOM      5  C   UNL     1       1.202   3.324  19.738  0.00  0.00    +0.000 C 
BRANCH   5   6
ATOM      6  C   UNL     1       0.911   4.738  20.212  0.00  0.00    +0.000 C 
BRANCH   6   7
ATOM      7  C   UNL     1       2.189   5.401  20.695  0.00  0.00    +0.000 C 
BRANCH   7   8
ATOM      8  C   UNL     1       2.371   6.749  20.015  0.00  0.00    +0.000 C 
BRANCH   8  10
ATOM      9  C   UNL     1       2.556   7.934  17.827  0.00  0.00    +0.000 C 
ATOM     10  C   UNL     1       2.375   6.588  18.501  0.00  0.00    +0.000 C 
ENDBRANCH   8  10
ENDBRANCH   7   8
ENDBRANCH   6   7
ENDBRANCH   5   6
ENDBRANCH   4   5
ENDBRANCH   3   4
ENDBRANCH   2   3
ENDBRANCH   1   2
BRANCH   1  11
ATOM     11  C   UNL     1       3.587   3.619  16.746  0.00  0.00    +0.000 C 
BRANCH  11  12
ATOM     12  C   UNL     1       4.643   4.439  16.029  0.00  0.00    +0.000 C 
BRANCH  12  13
ATOM     13  O   UNL     1       5.870   3.702  15.995  0.00  0.00    +0.000 OA
BRANCH  13  14
ATOM     14  C   UNL     1       6.944   4.541  16.049  0.00  0.00    +0.000 C 
ATOM     15  O   UNL     1       7.360   5.174  15.097  0.00  0.00    +0.000 OA
BRANCH  14  16
ATOM     16  C   UNL     1       7.572   4.598  17.442  0.00  0.00    +0.000 C 
BRANCH  16  17
ATOM     17  N   UNL     1       7.046   5.799  18.319  0.00  0.00    +0.000 N 
ATOM     18  C   UNL     1       8.149   6.249  19.277  0.00  0.00    +0.000 C 
ATOM     19  C   UNL     1       6.622   6.948  17.403  0.00  0.00    +0.000 C 
ATOM     20  C   UNL     1       5.841   5.375  19.142  0.00  0.00    +0.000 C 
ENDBRANCH  16  17
ENDBRANCH  14  16
ENDBRANCH  13  14
ENDBRANCH  12  13
ENDBRANCH  11  12
ENDBRANCH   1  11
TORSDOF 14
ENDMDL
MODEL 5
REMARK VINA RESULT:      -5.0      4.565      7.427
REMARK  Name = 
REMARK  18 active torsions:
REMARK  status: ('A' for Active; 'I' for Inactive)
REMARK    1  A    between atoms: C_1  and  C_2
REMARK    2  A    between atoms: C_2  and  C_3
REMARK    3  A    between atoms: C_3  and  C_4
REMARK    4  A    between atoms: C_4  and  C_5
REMARK    5  A    between atoms: C_5  and  C_6
REMARK    6  A    between atoms: C_6  and  C_7
REMARK    7  A    between atoms: C_7  and  C_8
REMARK    8  A    between atoms: C_8  and  C_9
REMARK    9  A    between atoms: C_9  and  C_10
REMARK   10  A    between atoms: C_10  and  C_11
REMARK   11  A    between atoms: C_11  and  C_12
REMARK   12  A    between atoms: C_12  and  O_13
REMARK   13  A    between atoms: O_13  and  C_14
REMARK   14  A    between atoms: C_14  and  C_16
REMARK   15  A    between atoms: C_16  and  N_17
REMARK   16  A    between atoms: N_17  and  C_18
REMARK   17  A    between atoms: N_17  and  C_19
REMARK   18  A    between atoms: N_17  and  C_20
REMARK                            x       y       z     vdW  Elec       q    Type
REMARK                         _______ _______ _______ _____ _____    ______ ____
ROOT
ATOM      1  C   UNL     1       3.957   6.688  17.284  0.00  0.00    +0.000 C 
ENDROOT
BRANCH   1   2
ATOM      2  C   UNL     1       4.861   5.806  18.127  0.00  0.00    +0.000 C 
BRANCH   2   3
ATOM      3  C   UNL     1       5.111   4.486  17.421  0.00  0.00    +0.000 C 
BRANCH   3   4
ATOM      4  C   UNL     1       3.790   3.870  16.995  0.00  0.00    +0.000 C 
BRANCH   4   5
ATOM      5  C   UNL     1       3.558   2.569  17.740  0.00  0.00    +0.000 C 
BRANCH   5   6
ATOM      6  C   UNL     1       2.087   2.424  18.091  0.00  0.00    +0.000 C 
BRANCH   6   7
ATOM      7  C   UNL     1       1.454   3.794  18.263  0.00  0.00    +0.000 C 
BRANCH   7   8
ATOM      8  C   UNL     1       1.162   4.058  19.731  0.00  0.00    +0.000 C 
BRANCH   8  10
ATOM      9  C   UNL     1       2.087   2.956  21.770  0.00  0.00    +0.000 C 
ATOM     10  C   UNL     1       1.234   2.765  20.531  0.00  0.00    +0.000 C 
ENDBRANCH   8  10
ENDBRANCH   7   8
ENDBRANCH   6   7
ENDBRANCH   5   6
ENDBRANCH   4   5
ENDBRANCH   3   4
ENDBRANCH   2   3
ENDBRANCH   1   2
BRANCH   1  11
ATOM     11  C   UNL     1       2.864   7.279  18.151  0.00  0.00    +0.000 C 
BRANCH  11  12
ATOM     12  C   UNL     1       2.664   8.745  17.816  0.00  0.00    +0.000 C 
BRANCH  12  13
ATOM     13  O   UNL     1       1.271   9.061  17.896  0.00  0.00    +0.000 OA
BRANCH  13  14
ATOM     14  C   UNL     1       0.984   9.702  19.066  0.00  0.00    +0.000 C 
ATOM     15  O   UNL     1       0.841   9.136  20.133  0.00  0.00    +0.000 OA
BRANCH  14  16
ATOM     16  C   UNL     1       0.856  11.214  18.887  0.00  0.00    +0.000 C 
BRANCH  16  17
ATOM     17  N   UNL     1      -0.637  11.723  18.895  0.00  0.00    +0.000 N 
ATOM     18  C   UNL     1      -0.691  13.145  18.336  0.00  0.00    +0.000 C 
ATOM     19  C   UNL     1      -1.499  10.779  18.057  0.00  0.00    +0.000 C 
ATOM     20  C   UNL     1      -1.189  11.745  20.310  0.00  0.00    +0.000 C 
ENDBRANCH  16  17
ENDBRANCH  14  16
ENDBRANCH  13  14
ENDBRANCH  12  13
ENDBRANCH  11  12
ENDBRANCH   1  11
TORSDOF 14
ENDMDL
MODEL 6
REMARK VINA RESULT:      -5.0      4.163      6.986
REMARK  Name = 
REMARK  18 active torsions:
REMARK  status: ('A' for Active; 'I' for Inactive)
REMARK    1  A    between atoms: C_1  and  C_2
REMARK    2  A    between atoms: C_2  and  C_3
REMARK    3  A    between atoms: C_3  and  C_4
REMARK    4  A    between atoms: C_4  and  C_5
REMARK    5  A    between atoms: C_5  and  C_6
REMARK    6  A    between atoms: C_6  and  C_7
REMARK    7  A    between atoms: C_7  and  C_8
REMARK    8  A    between atoms: C_8  and  C_9
REMARK    9  A    between atoms: C_9  and  C_10
REMARK   10  A    between atoms: C_10  and  C_11
REMARK   11  A    between atoms: C_11  and  C_12
REMARK   12  A    between atoms: C_12  and  O_13
REMARK   13  A    between atoms: O_13  and  C_14
REMARK   14  A    between atoms: C_14  and  C_16
REMARK   15  A    between atoms: C_16  and  N_17
REMARK   16  A    between atoms: N_17  and  C_18
REMARK   17  A    between atoms: N_17  and  C_19
REMARK   18  A    between atoms: N_17  and  C_20
REMARK                            x       y       z     vdW  Elec       q    Type
REMARK                         _______ _______ _______ _____ _____    ______ ____
ROOT
ATOM      1  C   UNL     1       6.368   6.086  17.641  0.00  0.00    +0.000 C 
ENDROOT
BRANCH   1   2
ATOM      2  C   UNL     1       7.729   6.014  18.308  0.00  0.00    +0.000 C 
BRANCH   2   3
ATOM      3  C   UNL     1       8.205   7.407  18.680  0.00  0.00    +0.000 C 
BRANCH   3   4
ATOM      4  C   UNL     1       7.915   8.372  17.545  0.00  0.00    +0.000 C 
BRANCH   4   5
ATOM      5  C   UNL     1       8.198   9.796  17.987  0.00  0.00    +0.000 C 
BRANCH   5   6
ATOM      6  C   UNL     1       9.097   9.792  19.212  0.00  0.00    +0.000 C 
BRANCH   6   7
ATOM      7  C   UNL     1      10.188  10.838  19.062  0.00  0.00    +0.000 C 
BRANCH   7   8
ATOM      8  C   UNL     1      10.006  11.605  17.762  0.00  0.00    +0.000 C 
BRANCH   8  10
ATOM      9  C   UNL     1       8.738  13.575  18.620  0.00  0.00    +0.000 C 
ATOM     10  C   UNL     1      10.047  13.105  18.016  0.00  0.00    +0.000 C 
ENDBRANCH   8  10
ENDBRANCH   7   8
ENDBRANCH   6   7
ENDBRANCH   5   6
ENDBRANCH   4   5
ENDBRANCH   3   4
ENDBRANCH   2   3
ENDBRANCH   1   2
BRANCH   1  11
ATOM     11  C   UNL     1       6.257   5.008  16.583  0.00  0.00    +0.000 C 
BRANCH  11  12
ATOM     12  C   UNL     1       4.809   4.592  16.407  0.00  0.00    +0.000 C 
BRANCH  12  13
ATOM     13  O   UNL     1       4.400   3.818  17.540  0.00  0.00    +0.000 OA
BRANCH  13  14
ATOM     14  C   UNL     1       3.351   4.410  18.181  0.00  0.00    +0.000 C 
ATOM     15  O   UNL     1       2.484   5.049  17.616  0.00  0.00    +0.000 OA
BRANCH  14  16
ATOM     16  C   UNL     1       3.387   4.184  19.692  0.00  0.00    +0.000 C 
BRANCH  16  17
ATOM     17  N   UNL     1       2.205   3.282  20.220  0.00  0.00    +0.000 N 
ATOM     18  C   UNL     1       0.935   4.126  20.333  0.00  0.00    +0.000 C 
ATOM     19  C   UNL     1       1.994   2.111  19.259  0.00  0.00    +0.000 C 
ATOM     20  C   UNL     1       2.530   2.721  21.594  0.00  0.00    +0.000 C 
ENDBRANCH  16  17
ENDBRANCH  14  16
ENDBRANCH  13  14
ENDBRANCH  12  13
ENDBRANCH  11  12
ENDBRANCH   1  11
TORSDOF 14
ENDMDL
MODEL 7
REMARK VINA RESULT:      -5.0      3.952      6.749
REMARK  Name = 
REMARK  18 active torsions:
REMARK  status: ('A' for Active; 'I' for Inactive)
REMARK    1  A    between atoms: C_1  and  C_2
REMARK    2  A    between atoms: C_2  and  C_3
REMARK    3  A    between atoms: C_3  and  C_4
REMARK    4  A    between atoms: C_4  and  C_5
REMARK    5  A    between atoms: C_5  and  C_6
REMARK    6  A    between atoms: C_6  and  C_7
REMARK    7  A    between atoms: C_7  and  C_8
REMARK    8  A    between atoms: C_8  and  C_9
REMARK    9  A    between atoms: C_9  and  C_10
REMARK   10  A    between atoms: C_10  and  C_11
REMARK   11  A    between atoms: C_11  and  C_12
REMARK   12  A    between atoms: C_12  and  O_13
REMARK   13  A    between atoms: O_13  and  C_14
REMARK   14  A    between atoms: C_14  and  C_16
REMARK   15  A    between atoms: C_16  and  N_17
REMARK   16  A    between atoms: N_17  and  C_18
REMARK   17  A    between atoms: N_17  and  C_19
REMARK   18  A    between atoms: N_17  and  C_20
REMARK                            x       y       z     vdW  Elec       q    Type
REMARK                         _______ _______ _______ _____ _____    ______ ____
ROOT
ATOM      1  C   UNL     1       5.641   5.667  18.235  0.00  0.00    +0.000 C 
ENDROOT
BRANCH   1   2
ATOM      2  C   UNL     1       6.960   5.712  18.985  0.00  0.00    +0.000 C 
BRANCH   2   3
ATOM      3  C   UNL     1       7.947   6.606  18.257  0.00  0.00    +0.000 C 
BRANCH   3   4
ATOM      4  C   UNL     1       7.206   7.733  17.560  0.00  0.00    +0.000 C 
BRANCH   4   5
ATOM      5  C   UNL     1       8.013   9.016  17.642  0.00  0.00    +0.000 C 
BRANCH   5   6
ATOM      6  C   UNL     1       8.836   9.033  18.919  0.00  0.00    +0.000 C 
BRANCH   6   7
ATOM      7  C   UNL     1       9.370  10.431  19.178  0.00  0.00    +0.000 C 
BRANCH   7   8
ATOM      8  C   UNL     1       9.055  11.340  18.001  0.00  0.00    +0.000 C 
BRANCH   8  10
ATOM      9  C   UNL     1       9.592  13.755  18.323  0.00  0.00    +0.000 C 
ATOM     10  C   UNL     1      10.123  12.415  17.855  0.00  0.00    +0.000 C 
ENDBRANCH   8  10
ENDBRANCH   7   8
ENDBRANCH   6   7
ENDBRANCH   5   6
ENDBRANCH   4   5
ENDBRANCH   3   4
ENDBRANCH   2   3
ENDBRANCH   1   2
BRANCH   1  11
ATOM     11  C   UNL     1       5.203   4.229  18.053  0.00  0.00    +0.000 C 
BRANCH  11  12
ATOM     12  C   UNL     1       4.179   4.130  16.938  0.00  0.00    +0.000 C 
BRANCH  12  13
ATOM     13  O   UNL     1       2.866   4.272  17.490  0.00  0.00    +0.000 OA
BRANCH  13  14
ATOM     14  C   UNL     1       2.402   3.077  17.957  0.00  0.00    +0.000 C 
ATOM     15  O   UNL     1       2.735   1.997  17.507  0.00  0.00    +0.000 OA
BRANCH  14  16
ATOM     16  C   UNL     1       1.413   3.245  19.111  0.00  0.00    +0.000 C 
BRANCH  16  17
ATOM     17  N   UNL     1       2.111   3.400  20.517  0.00  0.00    +0.000 N 
ATOM     18  C   UNL     1       2.339   4.884  20.810  0.00  0.00    +0.000 C 
ATOM     19  C   UNL     1       1.229   2.765  21.593  0.00  0.00    +0.000 C 
ATOM     20  C   UNL     1       3.459   2.698  20.528  0.00  0.00    +0.000 C 
ENDBRANCH  16  17
ENDBRANCH  14  16
ENDBRANCH  13  14
ENDBRANCH  12  13
ENDBRANCH  11  12
ENDBRANCH   1  11
TORSDOF 14
ENDMDL
MODEL 8
REMARK VINA RESULT:      -5.0      2.294      3.022
REMARK  Name = 
REMARK  18 active torsions:
REMARK  status: ('A' for Active; 'I' for Inactive)
REMARK    1  A    between atoms: C_1  and  C_2
REMARK    2  A    between atoms: C_2  and  C_3
REMARK    3  A    between atoms: C_3  and  C_4
REMARK    4  A    between atoms: C_4  and  C_5
REMARK    5  A    between atoms: C_5  and  C_6
REMARK    6  A    between atoms: C_6  and  C_7
REMARK    7  A    between atoms: C_7  and  C_8
REMARK    8  A    between atoms: C_8  and  C_9
REMARK    9  A    between atoms: C_9  and  C_10
REMARK   10  A    between atoms: C_10  and  C_11
REMARK   11  A    between atoms: C_11  and  C_12
REMARK   12  A    between atoms: C_12  and  O_13
REMARK   13  A    between atoms: O_13  and  C_14
REMARK   14  A    between atoms: C_14  and  C_16
REMARK   15  A    between atoms: C_16  and  N_17
REMARK   16  A    between atoms: N_17  and  C_18
REMARK   17  A    between atoms: N_17  and  C_19
REMARK   18  A    between atoms: N_17  and  C_20
REMARK                            x       y       z     vdW  Elec       q    Type
REMARK                         _______ _______ _______ _____ _____    ______ ____
ROOT
ATOM      1  C   UNL     1       7.527   4.663  17.941  0.00  0.00    +0.000 C 
ENDROOT
BRANCH   1   2
ATOM      2  C   UNL     1       7.347   4.645  16.434  0.00  0.00    +0.000 C 
BRANCH   2   3
ATOM      3  C   UNL     1       6.396   5.748  16.007  0.00  0.00    +0.000 C 
BRANCH   3   4
ATOM      4  C   UNL     1       5.502   5.253  14.884  0.00  0.00    +0.000 C 
BRANCH   4   5
ATOM      5  C   UNL     1       6.224   4.192  14.073  0.00  0.00    +0.000 C 
BRANCH   5   6
ATOM      6  C   UNL     1       7.093   4.847  13.014  0.00  0.00    +0.000 C 
BRANCH   6   7
ATOM      7  C   UNL     1       7.109   3.999  11.753  0.00  0.00    +0.000 C 
BRANCH   7   8
ATOM      8  C   UNL     1       6.405   2.675  12.002  0.00  0.00    +0.000 C 
BRANCH   8  10
ATOM      9  C   UNL     1       6.097   0.347  11.160  0.00  0.00    +0.000 C 
ATOM     10  C   UNL     1       6.949   1.598  11.073  0.00  0.00    +0.000 C 
ENDBRANCH   8  10
ENDBRANCH   7   8
ENDBRANCH   6   7
ENDBRANCH   5   6
ENDBRANCH   4   5
ENDBRANCH   3   4
ENDBRANCH   2   3
ENDBRANCH   1   2
BRANCH   1  11
ATOM     11  C   UNL     1       6.523   5.608  18.567  0.00  0.00    +0.000 C 
BRANCH  11  12
ATOM     12  C   UNL     1       5.511   4.831  19.387  0.00  0.00    +0.000 C 
BRANCH  12  13
ATOM     13  O   UNL     1       5.236   3.584  18.739  0.00  0.00    +0.000 OA
BRANCH  13  14
ATOM     14  C   UNL     1       4.536   2.752  19.562  0.00  0.00    +0.000 C 
ATOM     15  O   UNL     1       4.894   2.448  20.684  0.00  0.00    +0.000 OA
BRANCH  14  16
ATOM     16  C   UNL     1       3.250   2.238  18.917  0.00  0.00    +0.000 C 
BRANCH  16  17
ATOM     17  N   UNL     1       1.948   2.933  19.474  0.00  0.00    +0.000 N 
ATOM     18  C   UNL     1       2.063   4.447  19.292  0.00  0.00    +0.000 C 
ATOM     19  C   UNL     1       0.726   2.390  18.731  0.00  0.00    +0.000 C 
ATOM     20  C   UNL     1       1.776   2.641  20.955  0.00  0.00    +0.000 C 
ENDBRANCH  16  17
ENDBRANCH  14  16
ENDBRANCH  13  14
ENDBRANCH  12  13
ENDBRANCH  11  12
ENDBRANCH   1  11
TORSDOF 14
ENDMDL
MODEL 9
REMARK VINA RESULT:      -5.0      4.676      7.382
REMARK  Name = 
REMARK  18 active torsions:
REMARK  status: ('A' for Active; 'I' for Inactive)
REMARK    1  A    between atoms: C_1  and  C_2
REMARK    2  A    between atoms: C_2  and  C_3
REMARK    3  A    between atoms: C_3  and  C_4
REMARK    4  A    between atoms: C_4  and  C_5
REMARK    5  A    between atoms: C_5  and  C_6
REMARK    6  A    between atoms: C_6  and  C_7
REMARK    7  A    between atoms: C_7  and  C_8
REMARK    8  A    between atoms: C_8  and  C_9
REMARK    9  A    between atoms: C_9  and  C_10
REMARK   10  A    between atoms: C_10  and  C_11
REMARK   11  A    between atoms: C_11  and  C_12
REMARK   12  A    between atoms: C_12  and  O_13
REMARK   13  A    between atoms: O_13  and  C_14
REMARK   14  A    between atoms: C_14  and  C_16
REMARK   15  A    between atoms: C_16  and  N_17
REMARK   16  A    between atoms: N_17  and  C_18
REMARK   17  A    between atoms: N_17  and  C_19
REMARK   18  A    between atoms: N_17  and  C_20
REMARK                            x       y       z     vdW  Elec       q    Type
REMARK                         _______ _______ _______ _____ _____    ______ ____
ROOT
ATOM      1  C   UNL     1       6.112   7.154  17.326  0.00  0.00    +0.000 C 
ENDROOT
BRANCH   1   2
ATOM      2  C   UNL     1       7.392   6.608  17.932  0.00  0.00    +0.000 C 
BRANCH   2   3
ATOM      3  C   UNL     1       8.316   7.748  18.322  0.00  0.00    +0.000 C 
BRANCH   3   4
ATOM      4  C   UNL     1       7.797   9.053  17.745  0.00  0.00    +0.000 C 
BRANCH   4   5
ATOM      5  C   UNL     1       8.828  10.151  17.931  0.00  0.00    +0.000 C 
BRANCH   5   6
ATOM      6  C   UNL     1       9.225  10.250  19.394  0.00  0.00    +0.000 C 
BRANCH   6   7
ATOM      7  C   UNL     1      10.393  11.208  19.555  0.00  0.00    +0.000 C 
BRANCH   7   8
ATOM      8  C   UNL     1      10.610  11.992  18.271  0.00  0.00    +0.000 C 
BRANCH   8  10
ATOM      9  C   UNL     1      12.244  13.326  16.939  0.00  0.00    +0.000 C 
ATOM     10  C   UNL     1      11.987  12.642  18.266  0.00  0.00    +0.000 C 
ENDBRANCH   8  10
ENDBRANCH   7   8
ENDBRANCH   6   7
ENDBRANCH   5   6
ENDBRANCH   4   5
ENDBRANCH   3   4
ENDBRANCH   2   3
ENDBRANCH   1   2
BRANCH   1  11
ATOM     11  C   UNL     1       5.173   6.013  16.997  0.00  0.00    +0.000 C 
BRANCH  11  12
ATOM     12  C   UNL     1       3.911   6.114  17.833  0.00  0.00    +0.000 C 
BRANCH  12  13
ATOM     13  O   UNL     1       4.212   5.753  19.185  0.00  0.00    +0.000 OA
BRANCH  13  14
ATOM     14  C   UNL     1       4.295   4.398  19.320  0.00  0.00    +0.000 C 
ATOM     15  O   UNL     1       5.328   3.766  19.205  0.00  0.00    +0.000 OA
BRANCH  14  16
ATOM     16  C   UNL     1       2.942   3.758  19.631  0.00  0.00    +0.000 C 
BRANCH  16  17
ATOM     17  N   UNL     1       2.481   2.710  18.546  0.00  0.00    +0.000 N 
ATOM     18  C   UNL     1       1.040   2.285  18.832  0.00  0.00    +0.000 C 
ATOM     19  C   UNL     1       2.594   3.336  17.156  0.00  0.00    +0.000 C 
ATOM     20  C   UNL     1       3.361   1.472  18.586  0.00  0.00    +0.000 C 
ENDBRANCH  16  17
ENDBRANCH  14  16
ENDBRANCH  13  14
ENDBRANCH  12  13
ENDBRANCH  11  12
ENDBRANCH   1  11
TORSDOF 14
ENDMDL
