MODEL 1
REMARK VINA RESULT:      -8.5      0.000      0.000
REMARK  Name = 
REMARK  10 active torsions:
REMARK  status: ('A' for Active; 'I' for Inactive)
REMARK    1  A    between atoms: C_1  and  N_2
REMARK    2  A    between atoms: N_2  and  C_3
REMARK    3  A    between atoms: N_2  and  C_20
REMARK    4  A    between atoms: C_3  and  C_4
REMARK    5  A    between atoms: C_4  and  C_5
REMARK    6  A    between atoms: C_20  and  C_21
REMARK    7  A    between atoms: C_21  and  O_22
REMARK    8  A    between atoms: C_21  and  C_23
REMARK    9  A    between atoms: C_23  and  O_24
REMARK   10  A    between atoms: O_24  and  C_25
REMARK                            x       y       z     vdW  Elec       q    Type
REMARK                         _______ _______ _______ _____ _____    ______ ____
ROOT
ATOM      1  C   UNL     1       4.180   5.759  16.960  0.00  0.00    +0.000 C 
ENDROOT
BRANCH   1   2
ATOM      2  C   UNL     1       3.597   5.677  18.437  0.00  0.00    +0.000 C 
ATOM      3  C   UNL     1       2.787   6.993  18.686  0.00  0.00    +0.000 A 
ATOM      4  C   UNL     1       2.692   8.035  17.737  0.00  0.00    +0.000 A 
ATOM      5  C   UNL     1       1.921   9.181  17.957  0.00  0.00    +0.000 A 
ATOM      6  C   UNL     1       1.219   9.325  19.142  0.00  0.00    +0.000 A 
ATOM      7  C   UNL     1       1.320   8.340  20.114  0.00  0.00    +0.000 A 
ATOM      8  C   UNL     1       2.116   7.196  19.904  0.00  0.00    +0.000 A 
ATOM      9  C   UNL     1       2.094   6.105  20.924  0.00  0.00    +0.000 C 
ATOM     10  O   UNL     1       1.161   5.153  20.433  0.00  0.00    +0.000 OA
ATOM     11  C   UNL     1       1.685   4.226  19.573  0.00  0.00    +0.000 A 
ATOM     12  C   UNL     1       0.942   3.028  19.603  0.00  0.00    +0.000 A 
ATOM     13  C   UNL     1       1.389   1.887  18.955  0.00  0.00    +0.000 A 
ATOM     14  C   UNL     1       2.649   1.910  18.397  0.00  0.00    +0.000 A 
ATOM     15  C   UNL     1       3.385   3.101  18.406  0.00  0.00    +0.000 A 
ATOM     16  C   UNL     1       2.852   4.346  18.798  0.00  0.00    +0.000 A 
ENDBRANCH   1   2
BRANCH   1  17
ATOM     17  C   UNL     1       5.228   6.826  16.688  0.00  0.00    +0.000 C 
BRANCH  17  19
ATOM     18  C   UNL     1       6.357   5.220  15.281  0.00  0.00    +0.000 C 
ATOM     19  N   UNL     1       6.506   6.472  16.040  0.00  0.00    +0.000 NA
BRANCH  19  20
ATOM     20  C   UNL     1       7.536   6.269  17.110  0.00  0.00    +0.000 C 
BRANCH  20  21
ATOM     21  C   UNL     1       7.690   7.412  18.157  0.00  0.00    +0.000 C 
BRANCH  21  22
ATOM     22  O   UNL     1       8.498   7.016  19.279  0.00  0.00    +0.000 OA
ATOM     23  H   UNL     1       8.558   7.754  19.904  0.00  0.00    +0.000 HD
ENDBRANCH  21  22
BRANCH  21  24
ATOM     24  C   UNL     1       8.355   8.640  17.519  0.00  0.00    +0.000 C 
BRANCH  24  25
ATOM     25  O   UNL     1       8.058   9.768  18.352  0.00  0.00    +0.000 OA
BRANCH  25  26
ATOM     26  C   UNL     1       9.128  10.496  18.784  0.00  0.00    +0.000 A 
ATOM     27  C   UNL     1       9.423  10.758  20.123  0.00  0.00    +0.000 A 
ATOM     28  C   UNL     1      10.569  11.474  20.455  0.00  0.00    +0.000 A 
ATOM     29  C   UNL     1      11.429  11.927  19.453  0.00  0.00    +0.000 A 
ATOM     30  C   UNL     1      11.138  11.663  18.115  0.00  0.00    +0.000 A 
ATOM     31  C   UNL     1       9.990  10.949  17.784  0.00  0.00    +0.000 A 
ENDBRANCH  25  26
ENDBRANCH  24  25
ENDBRANCH  21  24
ENDBRANCH  20  21
ENDBRANCH  19  20
ENDBRANCH  17  19
ENDBRANCH   1  17
TORSDOF 9
ENDMDL
MODEL 2
REMARK VINA RESULT:      -8.5      3.815      7.959
REMARK  Name = 
REMARK  10 active torsions:
REMARK  status: ('A' for Active; 'I' for Inactive)
REMARK    1  A    between atoms: C_1  and  N_2
REMARK    2  A    between atoms: N_2  and  C_3
REMARK    3  A    between atoms: N_2  and  C_20
REMARK    4  A    between atoms: C_3  and  C_4
REMARK    5  A    between atoms: C_4  and  C_5
REMARK    6  A    between atoms: C_20  and  C_21
REMARK    7  A    between atoms: C_21  and  O_22
REMARK    8  A    between atoms: C_21  and  C_23
REMARK    9  A    between atoms: C_23  and  O_24
REMARK   10  A    between atoms: O_24  and  C_25
REMARK                            x       y       z     vdW  Elec       q    Type
REMARK                         _______ _______ _______ _____ _____    ______ ____
ROOT
ATOM      1  C   UNL     1       2.647   7.253  18.610  0.00  0.00    +0.000 C 
ENDROOT
BRANCH   1   2
ATOM      2  C   UNL     1       2.859   5.796  18.010  0.00  0.00    +0.000 C 
ATOM      3  C   UNL     1       4.310   5.747  17.425  0.00  0.00    +0.000 A 
ATOM      4  C   UNL     1       5.183   6.858  17.422  0.00  0.00    +0.000 A 
ATOM      5  C   UNL     1       6.494   6.780  16.942  0.00  0.00    +0.000 A 
ATOM      6  C   UNL     1       6.977   5.583  16.441  0.00  0.00    +0.000 A 
ATOM      7  C   UNL     1       6.136   4.479  16.392  0.00  0.00    +0.000 A 
ATOM      8  C   UNL     1       4.807   4.563  16.853  0.00  0.00    +0.000 A 
ATOM      9  C   UNL     1       3.980   3.321  16.897  0.00  0.00    +0.000 C 
ATOM     10  O   UNL     1       4.076   2.854  18.235  0.00  0.00    +0.000 OA
ATOM     11  C   UNL     1       3.162   3.393  19.099  0.00  0.00    +0.000 A 
ATOM     12  C   UNL     1       2.899   2.518  20.172  0.00  0.00    +0.000 A 
ATOM     13  C   UNL     1       1.874   2.769  21.072  0.00  0.00    +0.000 A 
ATOM     14  C   UNL     1       1.027   3.824  20.811  0.00  0.00    +0.000 A 
ATOM     15  C   UNL     1       1.287   4.664  19.721  0.00  0.00    +0.000 A 
ATOM     16  C   UNL     1       2.472   4.610  18.959  0.00  0.00    +0.000 A 
ENDBRANCH   1   2
BRANCH   1  17
ATOM     17  C   UNL     1       2.051   8.303  17.686  0.00  0.00    +0.000 C 
BRANCH  17  19
ATOM     18  C   UNL     1       2.224  10.687  18.032  0.00  0.00    +0.000 C 
ATOM     19  N   UNL     1       1.384   9.497  18.241  0.00  0.00    +0.000 NA
BRANCH  19  20
ATOM     20  C   UNL     1       1.197   9.290  19.714  0.00  0.00    +0.000 C 
BRANCH  20  21
ATOM     21  C   UNL     1       0.214  10.258  20.436  0.00  0.00    +0.000 C 
BRANCH  21  22
ATOM     22  O   UNL     1       0.904  11.303  21.147  0.00  0.00    +0.000 OA
ATOM     23  H   UNL     1       0.394  11.541  21.935  0.00  0.00    +0.000 HD
ENDBRANCH  21  22
BRANCH  21  24
ATOM     24  C   UNL     1      -0.722  10.930  19.422  0.00  0.00    +0.000 C 
BRANCH  24  25
ATOM     25  O   UNL     1      -1.697   9.957  19.029  0.00  0.00    +0.000 OA
BRANCH  25  26
ATOM     26  C   UNL     1      -2.473  10.281  17.955  0.00  0.00    +0.000 A 
ATOM     27  C   UNL     1      -3.621  11.074  18.014  0.00  0.00    +0.000 A 
ATOM     28  C   UNL     1      -4.314  11.382  16.847  0.00  0.00    +0.000 A 
ATOM     29  C   UNL     1      -3.861  10.904  15.616  0.00  0.00    +0.000 A 
ATOM     30  C   UNL     1      -2.714  10.115  15.555  0.00  0.00    +0.000 A 
ATOM     31  C   UNL     1      -2.023   9.805  16.723  0.00  0.00    +0.000 A 
ENDBRANCH  25  26
ENDBRANCH  24  25
ENDBRANCH  21  24
ENDBRANCH  20  21
ENDBRANCH  19  20
ENDBRANCH  17  19
ENDBRANCH   1  17
TORSDOF 9
ENDMDL
MODEL 3
REMARK VINA RESULT:      -8.5      0.687      1.113
REMARK  Name = 
REMARK  10 active torsions:
REMARK  status: ('A' for Active; 'I' for Inactive)
REMARK    1  A    between atoms: C_1  and  N_2
REMARK    2  A    between atoms: N_2  and  C_3
REMARK    3  A    between atoms: N_2  and  C_20
REMARK    4  A    between atoms: C_3  and  C_4
REMARK    5  A    between atoms: C_4  and  C_5
REMARK    6  A    between atoms: C_20  and  C_21
REMARK    7  A    between atoms: C_21  and  O_22
REMARK    8  A    between atoms: C_21  and  C_23
REMARK    9  A    between atoms: C_23  and  O_24
REMARK   10  A    between atoms: O_24  and  C_25
REMARK                            x       y       z     vdW  Elec       q    Type
REMARK                         _______ _______ _______ _____ _____    ______ ____
ROOT
ATOM      1  C   UNL     1       4.017   5.925  17.007  0.00  0.00    +0.000 C 
ENDROOT
BRANCH   1   2
ATOM      2  C   UNL     1       3.478   5.890  18.503  0.00  0.00    +0.000 C 
ATOM      3  C   UNL     1       2.663   7.207  18.729  0.00  0.00    +0.000 A 
ATOM      4  C   UNL     1       2.530   8.214  17.748  0.00  0.00    +0.000 A 
ATOM      5  C   UNL     1       1.755   9.361  17.951  0.00  0.00    +0.000 A 
ATOM      6  C   UNL     1       1.086   9.540  19.150  0.00  0.00    +0.000 A 
ATOM      7  C   UNL     1       1.225   8.589  20.153  0.00  0.00    +0.000 A 
ATOM      8  C   UNL     1       2.025   7.446  19.959  0.00  0.00    +0.000 A 
ATOM      9  C   UNL     1       2.044   6.392  21.016  0.00  0.00    +0.000 C 
ATOM     10  O   UNL     1       1.106   5.415  20.586  0.00  0.00    +0.000 OA
ATOM     11  C   UNL     1       1.614   4.463  19.744  0.00  0.00    +0.000 A 
ATOM     12  C   UNL     1       0.884   3.261  19.836  0.00  0.00    +0.000 A 
ATOM     13  C   UNL     1       1.323   2.101  19.215  0.00  0.00    +0.000 A 
ATOM     14  C   UNL     1       2.565   2.116  18.621  0.00  0.00    +0.000 A 
ATOM     15  C   UNL     1       3.290   3.313  18.567  0.00  0.00    +0.000 A 
ATOM     16  C   UNL     1       2.756   4.566  18.931  0.00  0.00    +0.000 A 
ENDBRANCH   1   2
BRANCH   1  17
ATOM     17  C   UNL     1       5.273   6.741  16.743  0.00  0.00    +0.000 C 
BRANCH  17  19
ATOM     18  C   UNL     1       6.245   4.702  15.889  0.00  0.00    +0.000 C 
ATOM     19  N   UNL     1       6.392   6.164  15.972  0.00  0.00    +0.000 NA
BRANCH  19  20
ATOM     20  C   UNL     1       7.670   6.482  16.688  0.00  0.00    +0.000 C 
BRANCH  20  21
ATOM     21  C   UNL     1       7.544   7.266  18.028  0.00  0.00    +0.000 C 
BRANCH  21  22
ATOM     22  O   UNL     1       8.359   6.698  19.068  0.00  0.00    +0.000 OA
ATOM     23  H   UNL     1       8.430   5.742  18.930  0.00  0.00    +0.000 HD
ENDBRANCH  21  22
BRANCH  21  24
ATOM     24  C   UNL     1       7.983   8.724  17.841  0.00  0.00    +0.000 C 
BRANCH  24  25
ATOM     25  O   UNL     1       8.981   9.000  18.831  0.00  0.00    +0.000 OA
BRANCH  25  26
ATOM     26  C   UNL     1       9.242  10.318  19.074  0.00  0.00    +0.000 A 
ATOM     27  C   UNL     1       9.464  11.279  18.087  0.00  0.00    +0.000 A 
ATOM     28  C   UNL     1       9.674  12.607  18.444  0.00  0.00    +0.000 A 
ATOM     29  C   UNL     1       9.659  12.983  19.789  0.00  0.00    +0.000 A 
ATOM     30  C   UNL     1       9.434  12.024  20.776  0.00  0.00    +0.000 A 
ATOM     31  C   UNL     1       9.226  10.696  20.417  0.00  0.00    +0.000 A 
ENDBRANCH  25  26
ENDBRANCH  24  25
ENDBRANCH  21  24
ENDBRANCH  20  21
ENDBRANCH  19  20
ENDBRANCH  17  19
ENDBRANCH   1  17
TORSDOF 9
ENDMDL
MODEL 4
REMARK VINA RESULT:      -8.4      3.182      7.140
REMARK  Name = 
REMARK  10 active torsions:
REMARK  status: ('A' for Active; 'I' for Inactive)
REMARK    1  A    between atoms: C_1  and  N_2
REMARK    2  A    between atoms: N_2  and  C_3
REMARK    3  A    between atoms: N_2  and  C_20
REMARK    4  A    between atoms: C_3  and  C_4
REMARK    5  A    between atoms: C_4  and  C_5
REMARK    6  A    between atoms: C_20  and  C_21
REMARK    7  A    between atoms: C_21  and  O_22
REMARK    8  A    between atoms: C_21  and  C_23
REMARK    9  A    between atoms: C_23  and  O_24
REMARK   10  A    between atoms: O_24  and  C_25
REMARK                            x       y       z     vdW  Elec       q    Type
REMARK                         _______ _______ _______ _____ _____    ______ ____
ROOT
ATOM      1  C   UNL     1       4.246   3.207  16.790  0.00  0.00    +0.000 C 
ENDROOT
BRANCH   1   2
ATOM      2  C   UNL     1       4.950   4.531  16.263  0.00  0.00    +0.000 C 
ATOM      3  C   UNL     1       5.895   5.036  17.404  0.00  0.00    +0.000 A 
ATOM      4  C   UNL     1       5.998   4.402  18.662  0.00  0.00    +0.000 A 
ATOM      5  C   UNL     1       6.886   4.837  19.651  0.00  0.00    +0.000 A 
ATOM      6  C   UNL     1       7.703   5.930  19.414  0.00  0.00    +0.000 A 
ATOM      7  C   UNL     1       7.601   6.603  18.204  0.00  0.00    +0.000 A 
ATOM      8  C   UNL     1       6.689   6.181  17.216  0.00  0.00    +0.000 A 
ATOM      9  C   UNL     1       6.704   6.857  15.885  0.00  0.00    +0.000 C 
ATOM     10  O   UNL     1       7.499   6.024  15.052  0.00  0.00    +0.000 OA
ATOM     11  C   UNL     1       6.818   5.009  14.436  0.00  0.00    +0.000 A 
ATOM     12  C   UNL     1       7.449   4.629  13.235  0.00  0.00    +0.000 A 
ATOM     13  C   UNL     1       6.844   3.749  12.350  0.00  0.00    +0.000 A 
ATOM     14  C   UNL     1       5.547   3.363  12.606  0.00  0.00    +0.000 A 
ATOM     15  C   UNL     1       4.925   3.778  13.790  0.00  0.00    +0.000 A 
ATOM     16  C   UNL     1       5.602   4.431  14.840  0.00  0.00    +0.000 A 
ENDBRANCH   1   2
BRANCH   1  17
ATOM     17  C   UNL     1       2.874   3.359  17.427  0.00  0.00    +0.000 C 
BRANCH  17  19
ATOM     18  C   UNL     1       0.984   2.415  18.597  0.00  0.00    +0.000 C 
ATOM     19  N   UNL     1       2.452   2.461  18.520  0.00  0.00    +0.000 NA
BRANCH  19  20
ATOM     20  C   UNL     1       2.988   3.005  19.810  0.00  0.00    +0.000 C 
BRANCH  20  21
ATOM     21  C   UNL     1       1.938   3.399  20.891  0.00  0.00    +0.000 C 
BRANCH  21  22
ATOM     22  O   UNL     1       2.412   3.147  22.225  0.00  0.00    +0.000 OA
ATOM     23  H   UNL     1       1.944   2.381  22.589  0.00  0.00    +0.000 HD
ENDBRANCH  21  22
BRANCH  21  24
ATOM     24  C   UNL     1       1.602   4.894  20.795  0.00  0.00    +0.000 C 
BRANCH  24  25
ATOM     25  O   UNL     1       2.735   5.551  20.213  0.00  0.00    +0.000 OA
BRANCH  25  26
ATOM     26  C   UNL     1       2.482   6.723  19.561  0.00  0.00    +0.000 A 
ATOM     27  C   UNL     1       2.839   6.990  18.238  0.00  0.00    +0.000 A 
ATOM     28  C   UNL     1       2.490   8.204  17.656  0.00  0.00    +0.000 A 
ATOM     29  C   UNL     1       1.780   9.156  18.389  0.00  0.00    +0.000 A 
ATOM     30  C   UNL     1       1.420   8.890  19.709  0.00  0.00    +0.000 A 
ATOM     31  C   UNL     1       1.772   7.675  20.292  0.00  0.00    +0.000 A 
ENDBRANCH  25  26
ENDBRANCH  24  25
ENDBRANCH  21  24
ENDBRANCH  20  21
ENDBRANCH  19  20
ENDBRANCH  17  19
ENDBRANCH   1  17
TORSDOF 9
ENDMDL
MODEL 5
REMARK VINA RESULT:      -8.4      2.577      5.015
REMARK  Name = 
REMARK  10 active torsions:
REMARK  status: ('A' for Active; 'I' for Inactive)
REMARK    1  A    between atoms: C_1  and  N_2
REMARK    2  A    between atoms: N_2  and  C_3
REMARK    3  A    between atoms: N_2  and  C_20
REMARK    4  A    between atoms: C_3  and  C_4
REMARK    5  A    between atoms: C_4  and  C_5
REMARK    6  A    between atoms: C_20  and  C_21
REMARK    7  A    between atoms: C_21  and  O_22
REMARK    8  A    between atoms: C_21  and  C_23
REMARK    9  A    between atoms: C_23  and  O_24
REMARK   10  A    between atoms: O_24  and  C_25
REMARK                            x       y       z     vdW  Elec       q    Type
REMARK                         _______ _______ _______ _____ _____    ______ ____
ROOT
ATOM      1  C   UNL     1       4.045   6.213  17.097  0.00  0.00    +0.000 C 
ENDROOT
BRANCH   1   2
ATOM      2  C   UNL     1       3.462   5.950  18.553  0.00  0.00    +0.000 C 
ATOM      3  C   UNL     1       2.597   7.198  18.934  0.00  0.00    +0.000 A 
ATOM      4  C   UNL     1       2.461   8.330  18.100  0.00  0.00    +0.000 A 
ATOM      5  C   UNL     1       1.642   9.413  18.435  0.00  0.00    +0.000 A 
ATOM      6  C   UNL     1       0.931   9.401  19.624  0.00  0.00    +0.000 A 
ATOM      7  C   UNL     1       1.070   8.323  20.487  0.00  0.00    +0.000 A 
ATOM      8  C   UNL     1       1.914   7.242  20.162  0.00  0.00    +0.000 A 
ATOM      9  C   UNL     1       1.936   6.049  21.060  0.00  0.00    +0.000 C 
ATOM     10  O   UNL     1       1.045   5.116  20.464  0.00  0.00    +0.000 OA
ATOM     11  C   UNL     1       1.610   4.308  19.515  0.00  0.00    +0.000 A 
ATOM     12  C   UNL     1       0.917   3.085  19.412  0.00  0.00    +0.000 A 
ATOM     13  C   UNL     1       1.413   2.038  18.650  0.00  0.00    +0.000 A 
ATOM     14  C   UNL     1       2.672   2.173  18.107  0.00  0.00    +0.000 A 
ATOM     15  C   UNL     1       3.358   3.386  18.247  0.00  0.00    +0.000 A 
ATOM     16  C   UNL     1       2.772   4.559  18.765  0.00  0.00    +0.000 A 
ENDBRANCH   1   2
BRANCH   1  17
ATOM     17  C   UNL     1       5.265   7.115  16.992  0.00  0.00    +0.000 C 
BRANCH  17  19
ATOM     18  C   UNL     1       7.527   7.746  17.552  0.00  0.00    +0.000 C 
ATOM     19  N   UNL     1       6.301   7.097  18.043  0.00  0.00    +0.000 NA
BRANCH  19  20
ATOM     20  C   UNL     1       6.610   5.669  18.376  0.00  0.00    +0.000 C 
BRANCH  20  21
ATOM     21  C   UNL     1       7.716   4.976  17.527  0.00  0.00    +0.000 C 
BRANCH  21  22
ATOM     22  O   UNL     1       8.390   3.936  18.256  0.00  0.00    +0.000 OA
ATOM     23  H   UNL     1       9.313   3.889  17.965  0.00  0.00    +0.000 HD
ENDBRANCH  21  22
BRANCH  21  24
ATOM     24  C   UNL     1       7.110   4.340  16.269  0.00  0.00    +0.000 C 
BRANCH  24  25
ATOM     25  O   UNL     1       7.459   5.174  15.157  0.00  0.00    +0.000 OA
BRANCH  25  26
ATOM     26  C   UNL     1       7.087   4.721  13.924  0.00  0.00    +0.000 A 
ATOM     27  C   UNL     1       7.744   5.030  12.732  0.00  0.00    +0.000 A 
ATOM     28  C   UNL     1       7.308   4.475  11.533  0.00  0.00    +0.000 A 
ATOM     29  C   UNL     1       6.216   3.605  11.519  0.00  0.00    +0.000 A 
ATOM     30  C   UNL     1       5.560   3.293  12.709  0.00  0.00    +0.000 A 
ATOM     31  C   UNL     1       5.996   3.851  13.908  0.00  0.00    +0.000 A 
ENDBRANCH  25  26
ENDBRANCH  24  25
ENDBRANCH  21  24
ENDBRANCH  20  21
ENDBRANCH  19  20
ENDBRANCH  17  19
ENDBRANCH   1  17
TORSDOF 9
ENDMDL
MODEL 6
REMARK VINA RESULT:      -8.2      3.735      8.128
REMARK  Name = 
REMARK  10 active torsions:
REMARK  status: ('A' for Active; 'I' for Inactive)
REMARK    1  A    between atoms: C_1  and  N_2
REMARK    2  A    between atoms: N_2  and  C_3
REMARK    3  A    between atoms: N_2  and  C_20
REMARK    4  A    between atoms: C_3  and  C_4
REMARK    5  A    between atoms: C_4  and  C_5
REMARK    6  A    between atoms: C_20  and  C_21
REMARK    7  A    between atoms: C_21  and  O_22
REMARK    8  A    between atoms: C_21  and  C_23
REMARK    9  A    between atoms: C_23  and  O_24
REMARK   10  A    between atoms: O_24  and  C_25
REMARK                            x       y       z     vdW  Elec       q    Type
REMARK                         _______ _______ _______ _____ _____    ______ ____
ROOT
ATOM      1  C   UNL     1       2.343   7.010  18.373  0.00  0.00    +0.000 C 
ENDROOT
BRANCH   1   2
ATOM      2  C   UNL     1       2.821   5.546  17.978  0.00  0.00    +0.000 C 
ATOM      3  C   UNL     1       4.311   5.660  17.509  0.00  0.00    +0.000 A 
ATOM      4  C   UNL     1       5.006   6.887  17.429  0.00  0.00    +0.000 A 
ATOM      5  C   UNL     1       6.352   6.962  17.058  0.00  0.00    +0.000 A 
ATOM      6  C   UNL     1       7.050   5.807  16.748  0.00  0.00    +0.000 A 
ATOM      7  C   UNL     1       6.389   4.586  16.777  0.00  0.00    +0.000 A 
ATOM      8  C   UNL     1       5.026   4.511  17.128  0.00  0.00    +0.000 A 
ATOM      9  C   UNL     1       4.391   3.167  17.268  0.00  0.00    +0.000 C 
ATOM     10  O   UNL     1       4.434   2.876  18.658  0.00  0.00    +0.000 OA
ATOM     11  C   UNL     1       3.376   3.360  19.379  0.00  0.00    +0.000 A 
ATOM     12  C   UNL     1       3.149   2.581  20.532  0.00  0.00    +0.000 A 
ATOM     13  C   UNL     1       2.022   2.768  21.317  0.00  0.00    +0.000 A 
ATOM     14  C   UNL     1       1.055   3.640  20.865  0.00  0.00    +0.000 A 
ATOM     15  C   UNL     1       1.285   4.382  19.700  0.00  0.00    +0.000 A 
ATOM     16  C   UNL     1       2.529   4.429  19.038  0.00  0.00    +0.000 A 
ENDBRANCH   1   2
BRANCH   1  17
ATOM     17  C   UNL     1       2.197   7.314  19.856  0.00  0.00    +0.000 C 
BRANCH  17  19
ATOM     18  C   UNL     1       0.800   8.520  21.413  0.00  0.00    +0.000 C 
ATOM     19  N   UNL     1       1.760   8.650  20.306  0.00  0.00    +0.000 NA
BRANCH  19  20
ATOM     20  C   UNL     1       1.085   9.337  19.158  0.00  0.00    +0.000 C 
BRANCH  20  21
ATOM     21  C   UNL     1       0.938  10.884  19.257  0.00  0.00    +0.000 C 
BRANCH  21  22
ATOM     22  O   UNL     1       1.587  11.563  18.167  0.00  0.00    +0.000 OA
ATOM     23  H   UNL     1       1.458  12.517  18.265  0.00  0.00    +0.000 HD
ENDBRANCH  21  22
BRANCH  21  24
ATOM     24  C   UNL     1      -0.542  11.287  19.236  0.00  0.00    +0.000 C 
BRANCH  24  25
ATOM     25  O   UNL     1      -0.936  11.400  17.863  0.00  0.00    +0.000 OA
BRANCH  25  26
ATOM     26  C   UNL     1      -2.278  11.409  17.619  0.00  0.00    +0.000 A 
ATOM     27  C   UNL     1      -2.869  11.039  16.410  0.00  0.00    +0.000 A 
ATOM     28  C   UNL     1      -4.255  11.039  16.284  0.00  0.00    +0.000 A 
ATOM     29  C   UNL     1      -5.057  11.404  17.367  0.00  0.00    +0.000 A 
ATOM     30  C   UNL     1      -4.469  11.771  18.576  0.00  0.00    +0.000 A 
ATOM     31  C   UNL     1      -3.083  11.773  18.700  0.00  0.00    +0.000 A 
ENDBRANCH  25  26
ENDBRANCH  24  25
ENDBRANCH  21  24
ENDBRANCH  20  21
ENDBRANCH  19  20
ENDBRANCH  17  19
ENDBRANCH   1  17
TORSDOF 9
ENDMDL
MODEL 7
REMARK VINA RESULT:      -8.2      4.109      8.133
REMARK  Name = 
REMARK  10 active torsions:
REMARK  status: ('A' for Active; 'I' for Inactive)
REMARK    1  A    between atoms: C_1  and  N_2
REMARK    2  A    between atoms: N_2  and  C_3
REMARK    3  A    between atoms: N_2  and  C_20
REMARK    4  A    between atoms: C_3  and  C_4
REMARK    5  A    between atoms: C_4  and  C_5
REMARK    6  A    between atoms: C_20  and  C_21
REMARK    7  A    between atoms: C_21  and  O_22
REMARK    8  A    between atoms: C_21  and  C_23
REMARK    9  A    between atoms: C_23  and  O_24
REMARK   10  A    between atoms: O_24  and  C_25
REMARK                            x       y       z     vdW  Elec       q    Type
REMARK                         _______ _______ _______ _____ _____    ______ ____
ROOT
ATOM      1  C   UNL     1       3.265   7.147  18.586  0.00  0.00    +0.000 C 
ENDROOT
BRANCH   1   2
ATOM      2  C   UNL     1       3.132   5.652  18.061  0.00  0.00    +0.000 C 
ATOM      3  C   UNL     1       4.400   5.354  17.192  0.00  0.00    +0.000 A 
ATOM      4  C   UNL     1       5.401   6.315  16.929  0.00  0.00    +0.000 A 
ATOM      5  C   UNL     1       6.552   6.015  16.194  0.00  0.00    +0.000 A 
ATOM      6  C   UNL     1       6.739   4.738  15.692  0.00  0.00    +0.000 A 
ATOM      7  C   UNL     1       5.758   3.778  15.897  0.00  0.00    +0.000 A 
ATOM      8  C   UNL     1       4.586   4.085  16.617  0.00  0.00    +0.000 A 
ATOM      9  C   UNL     1       3.618   2.989  16.921  0.00  0.00    +0.000 C 
ATOM     10  O   UNL     1       3.934   2.567  18.240  0.00  0.00    +0.000 OA
ATOM     11  C   UNL     1       3.315   3.276  19.234  0.00  0.00    +0.000 A 
ATOM     12  C   UNL     1       3.167   2.496  20.399  0.00  0.00    +0.000 A 
ATOM     13  C   UNL     1       2.408   2.939  21.471  0.00  0.00    +0.000 A 
ATOM     14  C   UNL     1       1.685   4.102  21.316  0.00  0.00    +0.000 A 
ATOM     15  C   UNL     1       1.821   4.847  20.138  0.00  0.00    +0.000 A 
ATOM     16  C   UNL     1       2.793   4.579  19.153  0.00  0.00    +0.000 A 
ENDBRANCH   1   2
BRANCH   1  17
ATOM     17  C   UNL     1       2.054   8.050  18.418  0.00  0.00    +0.000 C 
BRANCH  17  19
ATOM     18  C   UNL     1       1.171   8.616  20.593  0.00  0.00    +0.000 C 
ATOM     19  N   UNL     1       1.800   9.147  19.374  0.00  0.00    +0.000 NA
BRANCH  19  20
ATOM     20  C   UNL     1       0.862  10.124  18.731  0.00  0.00    +0.000 C 
BRANCH  20  21
ATOM     21  C   UNL     1       0.508  11.397  19.555  0.00  0.00    +0.000 C 
BRANCH  21  22
ATOM     22  O   UNL     1       1.538  12.399  19.476  0.00  0.00    +0.000 OA
ATOM     23  H   UNL     1       1.305  13.041  18.789  0.00  0.00    +0.000 HD
ENDBRANCH  21  22
BRANCH  21  24
ATOM     24  C   UNL     1      -0.791  12.029  19.038  0.00  0.00    +0.000 C 
BRANCH  24  25
ATOM     25  O   UNL     1      -1.798  11.009  19.053  0.00  0.00    +0.000 OA
BRANCH  25  26
ATOM     26  C   UNL     1      -2.575  10.912  17.935  0.00  0.00    +0.000 A 
ATOM     27  C   UNL     1      -3.795  11.566  17.756  0.00  0.00    +0.000 A 
ATOM     28  C   UNL     1      -4.484  11.434  16.554  0.00  0.00    +0.000 A 
ATOM     29  C   UNL     1      -3.956  10.653  15.524  0.00  0.00    +0.000 A 
ATOM     30  C   UNL     1      -2.736  10.002  15.701  0.00  0.00    +0.000 A 
ATOM     31  C   UNL     1      -2.049  10.133  16.904  0.00  0.00    +0.000 A 
ENDBRANCH  25  26
ENDBRANCH  24  25
ENDBRANCH  21  24
ENDBRANCH  20  21
ENDBRANCH  19  20
ENDBRANCH  17  19
ENDBRANCH   1  17
TORSDOF 9
ENDMDL
MODEL 8
REMARK VINA RESULT:      -8.2      4.368      9.074
REMARK  Name = 
REMARK  10 active torsions:
REMARK  status: ('A' for Active; 'I' for Inactive)
REMARK    1  A    between atoms: C_1  and  N_2
REMARK    2  A    between atoms: N_2  and  C_3
REMARK    3  A    between atoms: N_2  and  C_20
REMARK    4  A    between atoms: C_3  and  C_4
REMARK    5  A    between atoms: C_4  and  C_5
REMARK    6  A    between atoms: C_20  and  C_21
REMARK    7  A    between atoms: C_21  and  O_22
REMARK    8  A    between atoms: C_21  and  C_23
REMARK    9  A    between atoms: C_23  and  O_24
REMARK   10  A    between atoms: O_24  and  C_25
REMARK                            x       y       z     vdW  Elec       q    Type
REMARK                         _______ _______ _______ _____ _____    ______ ____
ROOT
ATOM      1  C   UNL     1       2.187   7.126  18.106  0.00  0.00    +0.000 C 
ENDROOT
BRANCH   1   2
ATOM      2  C   UNL     1       3.368   6.148  18.529  0.00  0.00    +0.000 C 
ATOM      3  C   UNL     1       2.729   4.994  19.372  0.00  0.00    +0.000 A 
ATOM      4  C   UNL     1       1.355   4.941  19.698  0.00  0.00    +0.000 A 
ATOM      5  C   UNL     1       0.794   3.875  20.409  0.00  0.00    +0.000 A 
ATOM      6  C   UNL     1       1.594   2.823  20.823  0.00  0.00    +0.000 A 
ATOM      7  C   UNL     1       2.956   2.859  20.555  0.00  0.00    +0.000 A 
ATOM      8  C   UNL     1       3.527   3.944  19.860  0.00  0.00    +0.000 A 
ATOM      9  C   UNL     1       4.971   3.881  19.485  0.00  0.00    +0.000 C 
ATOM     10  O   UNL     1       4.988   3.425  18.140  0.00  0.00    +0.000 OA
ATOM     11  C   UNL     1       4.872   4.411  17.198  0.00  0.00    +0.000 A 
ATOM     12  C   UNL     1       5.476   4.027  15.983  0.00  0.00    +0.000 A 
ATOM     13  C   UNL     1       5.644   4.931  14.945  0.00  0.00    +0.000 A 
ATOM     14  C   UNL     1       5.333   6.252  15.180  0.00  0.00    +0.000 A 
ATOM     15  C   UNL     1       4.763   6.620  16.405  0.00  0.00    +0.000 A 
ATOM     16  C   UNL     1       4.317   5.692  17.368  0.00  0.00    +0.000 A 
ENDBRANCH   1   2
BRANCH   1  17
ATOM     17  C   UNL     1       2.463   8.619  18.186  0.00  0.00    +0.000 C 
BRANCH  17  19
ATOM     18  C   UNL     1       1.083   8.868  20.153  0.00  0.00    +0.000 C 
ATOM     19  N   UNL     1       1.537   9.513  18.910  0.00  0.00    +0.000 NA
BRANCH  19  20
ATOM     20  C   UNL     1       0.348   9.768  18.035  0.00  0.00    +0.000 C 
BRANCH  20  21
ATOM     21  C   UNL     1      -0.689  10.809  18.552  0.00  0.00    +0.000 C 
BRANCH  21  22
ATOM     22  O   UNL     1      -0.436  12.129  18.041  0.00  0.00    +0.000 OA
ATOM     23  H   UNL     1      -1.043  12.755  18.462  0.00  0.00    +0.000 HD
ENDBRANCH  21  22
BRANCH  21  24
ATOM     24  C   UNL     1      -2.109  10.412  18.123  0.00  0.00    +0.000 C 
BRANCH  24  25
ATOM     25  O   UNL     1      -2.854  11.622  17.941  0.00  0.00    +0.000 OA
BRANCH  25  26
ATOM     26  C   UNL     1      -4.137  11.616  18.407  0.00  0.00    +0.000 A 
ATOM     27  C   UNL     1      -5.188  10.896  17.835  0.00  0.00    +0.000 A 
ATOM     28  C   UNL     1      -6.449  10.924  18.421  0.00  0.00    +0.000 A 
ATOM     29  C   UNL     1      -6.667  11.666  19.583  0.00  0.00    +0.000 A 
ATOM     30  C   UNL     1      -5.619  12.382  20.157  0.00  0.00    +0.000 A 
ATOM     31  C   UNL     1      -4.357  12.356  19.569  0.00  0.00    +0.000 A 
ENDBRANCH  25  26
ENDBRANCH  24  25
ENDBRANCH  21  24
ENDBRANCH  20  21
ENDBRANCH  19  20
ENDBRANCH  17  19
ENDBRANCH   1  17
TORSDOF 9
ENDMDL
MODEL 9
REMARK VINA RESULT:      -8.1      3.815      7.755
REMARK  Name = 
REMARK  10 active torsions:
REMARK  status: ('A' for Active; 'I' for Inactive)
REMARK    1  A    between atoms: C_1  and  N_2
REMARK    2  A    between atoms: N_2  and  C_3
REMARK    3  A    between atoms: N_2  and  C_20
REMARK    4  A    between atoms: C_3  and  C_4
REMARK    5  A    between atoms: C_4  and  C_5
REMARK    6  A    between atoms: C_20  and  C_21
REMARK    7  A    between atoms: C_21  and  O_22
REMARK    8  A    between atoms: C_21  and  C_23
REMARK    9  A    between atoms: C_23  and  O_24
REMARK   10  A    between atoms: O_24  and  C_25
REMARK                            x       y       z     vdW  Elec       q    Type
REMARK                         _______ _______ _______ _____ _____    ______ ____
ROOT
ATOM      1  C   UNL     1       2.570   7.230  18.715  0.00  0.00    +0.000 C 
ENDROOT
BRANCH   1   2
ATOM      2  C   UNL     1       2.856   5.763  18.174  0.00  0.00    +0.000 C 
ATOM      3  C   UNL     1       4.283   5.779  17.530  0.00  0.00    +0.000 A 
ATOM      4  C   UNL     1       5.078   6.944  17.439  0.00  0.00    +0.000 A 
ATOM      5  C   UNL     1       6.371   6.928  16.907  0.00  0.00    +0.000 A 
ATOM      6  C   UNL     1       6.913   5.742  16.442  0.00  0.00    +0.000 A 
ATOM      7  C   UNL     1       6.146   4.585  16.479  0.00  0.00    +0.000 A 
ATOM      8  C   UNL     1       4.834   4.604  16.992  0.00  0.00    +0.000 A 
ATOM      9  C   UNL     1       4.095   3.314  17.128  0.00  0.00    +0.000 C 
ATOM     10  O   UNL     1       4.275   2.920  18.482  0.00  0.00    +0.000 OA
ATOM     11  C   UNL     1       3.362   3.440  19.358  0.00  0.00    +0.000 A 
ATOM     12  C   UNL     1       3.201   2.603  20.481  0.00  0.00    +0.000 A 
ATOM     13  C   UNL     1       2.199   2.831  21.411  0.00  0.00    +0.000 A 
ATOM     14  C   UNL     1       1.273   3.814  21.138  0.00  0.00    +0.000 A 
ATOM     15  C   UNL     1       1.432   4.615  20.001  0.00  0.00    +0.000 A 
ATOM     16  C   UNL     1       2.587   4.601  19.192  0.00  0.00    +0.000 A 
ENDBRANCH   1   2
BRANCH   1  17
ATOM     17  C   UNL     1       1.943   8.217  17.743  0.00  0.00    +0.000 C 
BRANCH  17  19
ATOM     18  C   UNL     1       2.195  10.602  18.029  0.00  0.00    +0.000 C 
ATOM     19  N   UNL     1       1.302   9.451  18.239  0.00  0.00    +0.000 NA
BRANCH  19  20
ATOM     20  C   UNL     1       1.052   9.294  19.708  0.00  0.00    +0.000 C 
BRANCH  20  21
ATOM     21  C   UNL     1       0.101  10.335  20.370  0.00  0.00    +0.000 C 
BRANCH  21  22
ATOM     22  O   UNL     1      -1.163  10.426  19.689  0.00  0.00    +0.000 OA
ATOM     23  H   UNL     1      -1.704  11.108  20.114  0.00  0.00    +0.000 HD
ENDBRANCH  21  22
BRANCH  21  24
ATOM     24  C   UNL     1      -0.187   9.950  21.828  0.00  0.00    +0.000 C 
BRANCH  24  25
ATOM     25  O   UNL     1       0.081  11.103  22.636  0.00  0.00    +0.000 OA
BRANCH  25  26
ATOM     26  C   UNL     1      -0.966  11.955  22.836  0.00  0.00    +0.000 A 
ATOM     27  C   UNL     1      -2.237  11.566  23.261  0.00  0.00    +0.000 A 
ATOM     28  C   UNL     1      -3.221  12.526  23.480  0.00  0.00    +0.000 A 
ATOM     29  C   UNL     1      -2.938  13.878  23.281  0.00  0.00    +0.000 A 
ATOM     30  C   UNL     1      -1.668  14.269  22.859  0.00  0.00    +0.000 A 
ATOM     31  C   UNL     1      -0.686  13.308  22.638  0.00  0.00    +0.000 A 
ENDBRANCH  25  26
ENDBRANCH  24  25
ENDBRANCH  21  24
ENDBRANCH  20  21
ENDBRANCH  19  20
ENDBRANCH  17  19
ENDBRANCH   1  17
TORSDOF 9
ENDMDL
