MODEL 1
REMARK VINA RESULT:      -7.4      0.000      0.000
REMARK  Name = 
REMARK  9 active torsions:
REMARK  status: ('A' for Active; 'I' for Inactive)
REMARK    1  A    between atoms: C_1  and  C_2
REMARK    2  A    between atoms: C_2  and  C_3
REMARK    3  A    between atoms: C_3  and  N_4
REMARK    4  A    between atoms: C_9  and  C_10
REMARK    5  A    between atoms: N_18  and  C_19
REMARK    6  A    between atoms: C_19  and  C_20
REMARK    7  A    between atoms: C_20  and  S_21
REMARK    8  A    between atoms: S_21  and  C_22
REMARK    9  A    between atoms: C_22  and  C_23
REMARK                            x       y       z     vdW  Elec       q    Type
REMARK                         _______ _______ _______ _____ _____    ______ ____
ROOT
ATOM      1  N   UNL     1       3.215   3.898  19.566  0.00  0.00    +0.000 N 
ATOM      2  C   UNL     1       3.861   3.084  18.633  0.00  0.00    +0.000 A 
ATOM      3  O   UNL     1       3.997   1.868  18.726  0.00  0.00    +0.000 OA
ATOM      4  C   UNL     1       4.375   3.814  17.534  0.00  0.00    +0.000 A 
ATOM      5  N   UNL     1       5.072   3.391  16.446  0.00  0.00    +0.000 N 
ATOM      6  C   UNL     1       5.332   4.495  15.662  0.00  0.00    +0.000 A 
ATOM      7  N   UNL     1       4.857   5.589  16.244  0.00  0.00    +0.000 NA
ATOM      8  C   UNL     1       4.250   5.154  17.385  0.00  0.00    +0.000 A 
ATOM      9  N   UNL     1       3.600   5.920  18.323  0.00  0.00    +0.000 N 
ATOM     10  C   UNL     1       3.126   5.307  19.489  0.00  0.00    +0.000 A 
ATOM     11  O   UNL     1       2.659   5.969  20.421  0.00  0.00    +0.000 OA
ATOM     12  H   UNL     1       5.365   2.441  16.261  0.00  0.00    +0.000 HD
ENDROOT
BRANCH   6  13
ATOM     13  C   UNL     1       6.069   4.417  14.397  0.00  0.00    +0.000 A 
ATOM     14  C   UNL     1       7.212   5.200  14.171  0.00  0.00    +0.000 A 
ATOM     15  C   UNL     1       7.888   5.139  12.950  0.00  0.00    +0.000 A 
ATOM     16  C   UNL     1       7.433   4.293  11.944  0.00  0.00    +0.000 A 
ATOM     17  C   UNL     1       6.308   3.498  12.159  0.00  0.00    +0.000 A 
ATOM     18  C   UNL     1       5.634   3.555  13.383  0.00  0.00    +0.000 A 
ENDBRANCH   6  13
BRANCH   1  19
ATOM     19  C   UNL     1       2.666   3.251  20.756  0.00  0.00    +0.000 C 
BRANCH  19  21
ATOM     20  C   UNL     1       0.625   2.663  19.343  0.00  0.00    +0.000 C 
ATOM     21  C   UNL     1       1.144   3.065  20.714  0.00  0.00    +0.000 C 
ENDBRANCH  19  21
ENDBRANCH   1  19
BRANCH   9  22
ATOM     22  C   UNL     1       3.440   7.361  18.134  0.00  0.00    +0.000 C 
BRANCH  22  23
ATOM     23  C   UNL     1       2.035   7.799  17.692  0.00  0.00    +0.000 C 
BRANCH  23  24
ATOM     24  S   UNL     1       1.565   9.508  18.158  0.00  0.00    +0.000 S 
BRANCH  24  25
ATOM     25  C   UNL     1       1.067   9.233  19.886  0.00  0.00    +0.000 C 
ATOM     26  C   UNL     1       0.774  10.563  20.556  0.00  0.00    +0.000 C 
ENDBRANCH  24  25
ENDBRANCH  23  24
ENDBRANCH  22  23
ENDBRANCH   9  22
TORSDOF 7
ENDMDL
MODEL 2
REMARK VINA RESULT:      -7.3      2.233      7.135
REMARK  Name = 
REMARK  9 active torsions:
REMARK  status: ('A' for Active; 'I' for Inactive)
REMARK    1  A    between atoms: C_1  and  C_2
REMARK    2  A    between atoms: C_2  and  C_3
REMARK    3  A    between atoms: C_3  and  N_4
REMARK    4  A    between atoms: C_9  and  C_10
REMARK    5  A    between atoms: N_18  and  C_19
REMARK    6  A    between atoms: C_19  and  C_20
REMARK    7  A    between atoms: C_20  and  S_21
REMARK    8  A    between atoms: S_21  and  C_22
REMARK    9  A    between atoms: C_22  and  C_23
REMARK                            x       y       z     vdW  Elec       q    Type
REMARK                         _______ _______ _______ _____ _____    ______ ____
ROOT
ATOM      1  N   UNL     1       5.347   5.387  17.346  0.00  0.00    +0.000 N 
ATOM      2  C   UNL     1       4.750   6.567  16.895  0.00  0.00    +0.000 A 
ATOM      3  O   UNL     1       5.063   7.176  15.876  0.00  0.00    +0.000 OA
ATOM      4  C   UNL     1       3.722   7.023  17.755  0.00  0.00    +0.000 A 
ATOM      5  N   UNL     1       2.931   8.125  17.672  0.00  0.00    +0.000 N 
ATOM      6  C   UNL     1       2.078   8.110  18.756  0.00  0.00    +0.000 A 
ATOM      7  N   UNL     1       2.341   7.062  19.527  0.00  0.00    +0.000 NA
ATOM      8  C   UNL     1       3.340   6.388  18.888  0.00  0.00    +0.000 A 
ATOM      9  N   UNL     1       3.947   5.224  19.295  0.00  0.00    +0.000 N 
ATOM     10  C   UNL     1       5.031   4.732  18.559  0.00  0.00    +0.000 A 
ATOM     11  O   UNL     1       5.698   3.771  18.956  0.00  0.00    +0.000 OA
ATOM     12  H   UNL     1       2.977   8.838  16.955  0.00  0.00    +0.000 HD
ENDROOT
BRANCH   6  13
ATOM     13  C   UNL     1       1.075   9.152  18.994  0.00  0.00    +0.000 A 
ATOM     14  C   UNL     1       0.857   9.672  20.280  0.00  0.00    +0.000 A 
ATOM     15  C   UNL     1      -0.123  10.644  20.499  0.00  0.00    +0.000 A 
ATOM     16  C   UNL     1      -0.893  11.108  19.436  0.00  0.00    +0.000 A 
ATOM     17  C   UNL     1      -0.677  10.612  18.152  0.00  0.00    +0.000 A 
ATOM     18  C   UNL     1       0.307   9.644  17.931  0.00  0.00    +0.000 A 
ENDBRANCH   6  13
BRANCH   1  19
ATOM     19  C   UNL     1       6.440   4.839  16.546  0.00  0.00    +0.000 C 
BRANCH  19  21
ATOM     20  C   UNL     1       6.260   4.186  14.087  0.00  0.00    +0.000 C 
ATOM     21  C   UNL     1       5.993   3.782  15.528  0.00  0.00    +0.000 C 
ENDBRANCH  19  21
ENDBRANCH   1  19
BRANCH   9  22
ATOM     22  C   UNL     1       3.503   4.528  20.501  0.00  0.00    +0.000 C 
BRANCH  22  23
ATOM     23  C   UNL     1       2.685   3.254  20.243  0.00  0.00    +0.000 C 
BRANCH  23  24
ATOM     24  S   UNL     1       1.534   3.336  18.819  0.00  0.00    +0.000 S 
BRANCH  24  25
ATOM     25  C   UNL     1       2.438   2.300  17.628  0.00  0.00    +0.000 C 
ATOM     26  C   UNL     1       3.422   1.408  18.364  0.00  0.00    +0.000 C 
ENDBRANCH  24  25
ENDBRANCH  23  24
ENDBRANCH  22  23
ENDBRANCH   9  22
TORSDOF 7
ENDMDL
MODEL 3
REMARK VINA RESULT:      -7.3      2.291      6.942
REMARK  Name = 
REMARK  9 active torsions:
REMARK  status: ('A' for Active; 'I' for Inactive)
REMARK    1  A    between atoms: C_1  and  C_2
REMARK    2  A    between atoms: C_2  and  C_3
REMARK    3  A    between atoms: C_3  and  N_4
REMARK    4  A    between atoms: C_9  and  C_10
REMARK    5  A    between atoms: N_18  and  C_19
REMARK    6  A    between atoms: C_19  and  C_20
REMARK    7  A    between atoms: C_20  and  S_21
REMARK    8  A    between atoms: S_21  and  C_22
REMARK    9  A    between atoms: C_22  and  C_23
REMARK                            x       y       z     vdW  Elec       q    Type
REMARK                         _______ _______ _______ _____ _____    ______ ____
ROOT
ATOM      1  N   UNL     1       5.736   4.977  16.343  0.00  0.00    +0.000 N 
ATOM      2  C   UNL     1       5.568   6.322  16.681  0.00  0.00    +0.000 A 
ATOM      3  O   UNL     1       6.386   7.213  16.472  0.00  0.00    +0.000 OA
ATOM      4  C   UNL     1       4.332   6.574  17.322  0.00  0.00    +0.000 A 
ATOM      5  N   UNL     1       3.815   7.733  17.811  0.00  0.00    +0.000 N 
ATOM      6  C   UNL     1       2.570   7.448  18.331  0.00  0.00    +0.000 A 
ATOM      7  N   UNL     1       2.314   6.151  18.216  0.00  0.00    +0.000 NA
ATOM      8  C   UNL     1       3.397   5.627  17.574  0.00  0.00    +0.000 A 
ATOM      9  N   UNL     1       3.596   4.314  17.218  0.00  0.00    +0.000 N 
ATOM     10  C   UNL     1       4.822   3.943  16.653  0.00  0.00    +0.000 A 
ATOM     11  O   UNL     1       5.104   2.759  16.444  0.00  0.00    +0.000 OA
ATOM     12  H   UNL     1       4.274   8.634  17.812  0.00  0.00    +0.000 HD
ENDROOT
BRANCH   6  13
ATOM     13  C   UNL     1       1.713   8.466  18.946  0.00  0.00    +0.000 A 
ATOM     14  C   UNL     1       1.168   9.514  18.188  0.00  0.00    +0.000 A 
ATOM     15  C   UNL     1       0.378  10.495  18.792  0.00  0.00    +0.000 A 
ATOM     16  C   UNL     1       0.121  10.437  20.159  0.00  0.00    +0.000 A 
ATOM     17  C   UNL     1       0.642   9.394  20.922  0.00  0.00    +0.000 A 
ATOM     18  C   UNL     1       1.429   8.410  20.317  0.00  0.00    +0.000 A 
ENDBRANCH   6  13
BRANCH   1  19
ATOM     19  C   UNL     1       6.992   4.598  15.698  0.00  0.00    +0.000 C 
BRANCH  19  21
ATOM     20  C   UNL     1       6.277   3.799  13.383  0.00  0.00    +0.000 C 
ATOM     21  C   UNL     1       7.015   4.858  14.186  0.00  0.00    +0.000 C 
ENDBRANCH  19  21
ENDBRANCH   1  19
BRANCH   9  22
ATOM     22  C   UNL     1       2.567   3.307  17.463  0.00  0.00    +0.000 C 
BRANCH  22  23
ATOM     23  C   UNL     1       2.640   2.636  18.844  0.00  0.00    +0.000 C 
BRANCH  23  24
ATOM     24  S   UNL     1       1.029   2.394  19.684  0.00  0.00    +0.000 S 
BRANCH  24  25
ATOM     25  C   UNL     1       1.463   2.960  21.357  0.00  0.00    +0.000 C 
ATOM     26  C   UNL     1       2.236   4.264  21.275  0.00  0.00    +0.000 C 
ENDBRANCH  24  25
ENDBRANCH  23  24
ENDBRANCH  22  23
ENDBRANCH   9  22
TORSDOF 7
ENDMDL
MODEL 4
REMARK VINA RESULT:      -7.2      0.671      1.195
REMARK  Name = 
REMARK  9 active torsions:
REMARK  status: ('A' for Active; 'I' for Inactive)
REMARK    1  A    between atoms: C_1  and  C_2
REMARK    2  A    between atoms: C_2  and  C_3
REMARK    3  A    between atoms: C_3  and  N_4
REMARK    4  A    between atoms: C_9  and  C_10
REMARK    5  A    between atoms: N_18  and  C_19
REMARK    6  A    between atoms: C_19  and  C_20
REMARK    7  A    between atoms: C_20  and  S_21
REMARK    8  A    between atoms: S_21  and  C_22
REMARK    9  A    between atoms: C_22  and  C_23
REMARK                            x       y       z     vdW  Elec       q    Type
REMARK                         _______ _______ _______ _____ _____    ______ ____
ROOT
ATOM      1  N   UNL     1       3.214   4.034  19.660  0.00  0.00    +0.000 N 
ATOM      2  C   UNL     1       3.832   3.193  18.732  0.00  0.00    +0.000 A 
ATOM      3  O   UNL     1       3.961   1.979  18.851  0.00  0.00    +0.000 OA
ATOM      4  C   UNL     1       4.327   3.893  17.605  0.00  0.00    +0.000 A 
ATOM      5  N   UNL     1       4.995   3.439  16.512  0.00  0.00    +0.000 N 
ATOM      6  C   UNL     1       5.247   4.523  15.696  0.00  0.00    +0.000 A 
ATOM      7  N   UNL     1       4.793   5.634  16.263  0.00  0.00    +0.000 NA
ATOM      8  C   UNL     1       4.210   5.231  17.428  0.00  0.00    +0.000 A 
ATOM      9  N   UNL     1       3.587   6.024  18.362  0.00  0.00    +0.000 N 
ATOM     10  C   UNL     1       3.135   5.442  19.552  0.00  0.00    +0.000 A 
ATOM     11  O   UNL     1       2.695   6.129  20.479  0.00  0.00    +0.000 OA
ATOM     12  H   UNL     1       5.277   2.483  16.342  0.00  0.00    +0.000 HD
ENDROOT
BRANCH   6  13
ATOM     13  C   UNL     1       5.954   4.408  14.417  0.00  0.00    +0.000 A 
ATOM     14  C   UNL     1       5.482   3.567  13.398  0.00  0.00    +0.000 A 
ATOM     15  C   UNL     1       6.182   3.443  12.195  0.00  0.00    +0.000 A 
ATOM     16  C   UNL     1       7.357   4.162  11.996  0.00  0.00    +0.000 A 
ATOM     17  C   UNL     1       7.829   5.013  12.993  0.00  0.00    +0.000 A 
ATOM     18  C   UNL     1       7.127   5.141  14.195  0.00  0.00    +0.000 A 
ENDBRANCH   6  13
BRANCH   1  19
ATOM     19  C   UNL     1       2.688   3.420  20.877  0.00  0.00    +0.000 C 
BRANCH  19  21
ATOM     20  C   UNL     1       0.631   3.202  19.384  0.00  0.00    +0.000 C 
ATOM     21  C   UNL     1       1.257   2.885  20.732  0.00  0.00    +0.000 C 
ENDBRANCH  19  21
ENDBRANCH   1  19
BRANCH   9  22
ATOM     22  C   UNL     1       3.435   7.461  18.143  0.00  0.00    +0.000 C 
BRANCH  22  23
ATOM     23  C   UNL     1       1.985   7.932  17.955  0.00  0.00    +0.000 C 
BRANCH  23  24
ATOM     24  S   UNL     1       1.743   9.749  17.970  0.00  0.00    +0.000 S 
BRANCH  24  25
ATOM     25  C   UNL     1       0.214   9.850  18.951  0.00  0.00    +0.000 C 
ATOM     26  C   UNL     1      -0.965  10.141  18.040  0.00  0.00    +0.000 C 
ENDBRANCH  24  25
ENDBRANCH  23  24
ENDBRANCH  22  23
ENDBRANCH   9  22
TORSDOF 7
ENDMDL
MODEL 5
REMARK VINA RESULT:      -7.1      2.517      6.964
REMARK  Name = 
REMARK  9 active torsions:
REMARK  status: ('A' for Active; 'I' for Inactive)
REMARK    1  A    between atoms: C_1  and  C_2
REMARK    2  A    between atoms: C_2  and  C_3
REMARK    3  A    between atoms: C_3  and  N_4
REMARK    4  A    between atoms: C_9  and  C_10
REMARK    5  A    between atoms: N_18  and  C_19
REMARK    6  A    between atoms: C_19  and  C_20
REMARK    7  A    between atoms: C_20  and  S_21
REMARK    8  A    between atoms: S_21  and  C_22
REMARK    9  A    between atoms: C_22  and  C_23
REMARK                            x       y       z     vdW  Elec       q    Type
REMARK                         _______ _______ _______ _____ _____    ______ ____
ROOT
ATOM      1  N   UNL     1       5.130   5.471  17.497  0.00  0.00    +0.000 N 
ATOM      2  C   UNL     1       4.674   6.637  16.877  0.00  0.00    +0.000 A 
ATOM      3  O   UNL     1       5.121   7.108  15.836  0.00  0.00    +0.000 OA
ATOM      4  C   UNL     1       3.622   7.260  17.592  0.00  0.00    +0.000 A 
ATOM      5  N   UNL     1       2.936   8.403  17.328  0.00  0.00    +0.000 N 
ATOM      6  C   UNL     1       2.000   8.569  18.327  0.00  0.00    +0.000 A 
ATOM      7  N   UNL     1       2.108   7.592  19.218  0.00  0.00    +0.000 NA
ATOM      8  C   UNL     1       3.095   6.780  18.743  0.00  0.00    +0.000 A 
ATOM      9  N   UNL     1       3.566   5.623  19.317  0.00  0.00    +0.000 N 
ATOM     10  C   UNL     1       4.661   4.974  18.735  0.00  0.00    +0.000 A 
ATOM     11  O   UNL     1       5.208   4.013  19.285  0.00  0.00    +0.000 OA
ATOM     12  H   UNL     1       3.102   9.030  16.551  0.00  0.00    +0.000 HD
ENDROOT
BRANCH   6  13
ATOM     13  C   UNL     1       1.073   9.704  18.368  0.00  0.00    +0.000 A 
ATOM     14  C   UNL     1       1.493  10.971  18.802  0.00  0.00    +0.000 A 
ATOM     15  C   UNL     1       0.592  12.037  18.865  0.00  0.00    +0.000 A 
ATOM     16  C   UNL     1      -0.736  11.850  18.492  0.00  0.00    +0.000 A 
ATOM     17  C   UNL     1      -1.163  10.601  18.045  0.00  0.00    +0.000 A 
ATOM     18  C   UNL     1      -0.261   9.536  17.977  0.00  0.00    +0.000 A 
ENDBRANCH   6  13
BRANCH   1  19
ATOM     19  C   UNL     1       6.234   4.759  16.858  0.00  0.00    +0.000 C 
BRANCH  19  21
ATOM     20  C   UNL     1       6.090   4.134  14.389  0.00  0.00    +0.000 C 
ATOM     21  C   UNL     1       5.785   3.722  15.820  0.00  0.00    +0.000 C 
ENDBRANCH  19  21
ENDBRANCH   1  19
BRANCH   9  22
ATOM     22  C   UNL     1       2.967   5.096  20.542  0.00  0.00    +0.000 C 
BRANCH  22  23
ATOM     23  C   UNL     1       1.545   4.538  20.372  0.00  0.00    +0.000 C 
BRANCH  23  24
ATOM     24  S   UNL     1       1.358   2.749  20.726  0.00  0.00    +0.000 S 
BRANCH  24  25
ATOM     25  C   UNL     1       2.313   2.057  19.342  0.00  0.00    +0.000 C 
ATOM     26  C   UNL     1       1.827   2.651  18.032  0.00  0.00    +0.000 C 
ENDBRANCH  24  25
ENDBRANCH  23  24
ENDBRANCH  22  23
ENDBRANCH   9  22
TORSDOF 7
ENDMDL
MODEL 6
REMARK VINA RESULT:      -7.1      2.957      7.072
REMARK  Name = 
REMARK  9 active torsions:
REMARK  status: ('A' for Active; 'I' for Inactive)
REMARK    1  A    between atoms: C_1  and  C_2
REMARK    2  A    between atoms: C_2  and  C_3
REMARK    3  A    between atoms: C_3  and  N_4
REMARK    4  A    between atoms: C_9  and  C_10
REMARK    5  A    between atoms: N_18  and  C_19
REMARK    6  A    between atoms: C_19  and  C_20
REMARK    7  A    between atoms: C_20  and  S_21
REMARK    8  A    between atoms: S_21  and  C_22
REMARK    9  A    between atoms: C_22  and  C_23
REMARK                            x       y       z     vdW  Elec       q    Type
REMARK                         _______ _______ _______ _____ _____    ______ ____
ROOT
ATOM      1  N   UNL     1       4.764   5.415  17.818  0.00  0.00    +0.000 N 
ATOM      2  C   UNL     1       4.405   6.593  17.158  0.00  0.00    +0.000 A 
ATOM      3  O   UNL     1       4.914   7.009  16.122  0.00  0.00    +0.000 OA
ATOM      4  C   UNL     1       3.373   7.298  17.822  0.00  0.00    +0.000 A 
ATOM      5  N   UNL     1       2.771   8.476  17.510  0.00  0.00    +0.000 N 
ATOM      6  C   UNL     1       1.816   8.726  18.473  0.00  0.00    +0.000 A 
ATOM      7  N   UNL     1       1.832   7.766  19.389  0.00  0.00    +0.000 NA
ATOM      8  C   UNL     1       2.779   6.881  18.966  0.00  0.00    +0.000 A 
ATOM      9  N   UNL     1       3.156   5.711  19.581  0.00  0.00    +0.000 N 
ATOM     10  C   UNL     1       4.225   4.980  19.051  0.00  0.00    +0.000 A 
ATOM     11  O   UNL     1       4.692   4.000  19.640  0.00  0.00    +0.000 OA
ATOM     12  H   UNL     1       3.001   9.072  16.725  0.00  0.00    +0.000 HD
ENDROOT
BRANCH   6  13
ATOM     13  C   UNL     1       0.963   9.918  18.457  0.00  0.00    +0.000 A 
ATOM     14  C   UNL     1       1.478  11.186  18.769  0.00  0.00    +0.000 A 
ATOM     15  C   UNL     1       0.648  12.309  18.780  0.00  0.00    +0.000 A 
ATOM     16  C   UNL     1      -0.704  12.180  18.477  0.00  0.00    +0.000 A 
ATOM     17  C   UNL     1      -1.226  10.930  18.150  0.00  0.00    +0.000 A 
ATOM     18  C   UNL     1      -0.395   9.806  18.134  0.00  0.00    +0.000 A 
ENDBRANCH   6  13
BRANCH   1  19
ATOM     19  C   UNL     1       5.841   4.619  17.233  0.00  0.00    +0.000 C 
BRANCH  19  21
ATOM     20  C   UNL     1       7.664   5.603  18.721  0.00  0.00    +0.000 C 
ATOM     21  C   UNL     1       7.218   5.292  17.302  0.00  0.00    +0.000 C 
ENDBRANCH  19  21
ENDBRANCH   1  19
BRANCH   9  22
ATOM     22  C   UNL     1       2.485   5.253  20.796  0.00  0.00    +0.000 C 
BRANCH  22  23
ATOM     23  C   UNL     1       1.207   4.435  20.554  0.00  0.00    +0.000 C 
BRANCH  23  24
ATOM     24  S   UNL     1       1.451   2.623  20.423  0.00  0.00    +0.000 S 
BRANCH  24  25
ATOM     25  C   UNL     1       1.022   2.379  18.672  0.00  0.00    +0.000 C 
ATOM     26  C   UNL     1       2.287   2.216  17.849  0.00  0.00    +0.000 C 
ENDBRANCH  24  25
ENDBRANCH  23  24
ENDBRANCH  22  23
ENDBRANCH   9  22
TORSDOF 7
ENDMDL
MODEL 7
REMARK VINA RESULT:      -7.1      2.304      7.102
REMARK  Name = 
REMARK  9 active torsions:
REMARK  status: ('A' for Active; 'I' for Inactive)
REMARK    1  A    between atoms: C_1  and  C_2
REMARK    2  A    between atoms: C_2  and  C_3
REMARK    3  A    between atoms: C_3  and  N_4
REMARK    4  A    between atoms: C_9  and  C_10
REMARK    5  A    between atoms: N_18  and  C_19
REMARK    6  A    between atoms: C_19  and  C_20
REMARK    7  A    between atoms: C_20  and  S_21
REMARK    8  A    between atoms: S_21  and  C_22
REMARK    9  A    between atoms: C_22  and  C_23
REMARK                            x       y       z     vdW  Elec       q    Type
REMARK                         _______ _______ _______ _____ _____    ______ ____
ROOT
ATOM      1  N   UNL     1       5.260   5.294  17.391  0.00  0.00    +0.000 N 
ATOM      2  C   UNL     1       4.677   6.482  16.943  0.00  0.00    +0.000 A 
ATOM      3  O   UNL     1       4.980   7.076  15.913  0.00  0.00    +0.000 OA
ATOM      4  C   UNL     1       3.678   6.965  17.822  0.00  0.00    +0.000 A 
ATOM      5  N   UNL     1       2.907   8.082  17.747  0.00  0.00    +0.000 N 
ATOM      6  C   UNL     1       2.079   8.092  18.851  0.00  0.00    +0.000 A 
ATOM      7  N   UNL     1       2.337   7.045  19.623  0.00  0.00    +0.000 NA
ATOM      8  C   UNL     1       3.308   6.346  18.968  0.00  0.00    +0.000 A 
ATOM      9  N   UNL     1       3.901   5.173  19.371  0.00  0.00    +0.000 N 
ATOM     10  C   UNL     1       4.958   4.654  18.615  0.00  0.00    +0.000 A 
ATOM     11  O   UNL     1       5.614   3.683  19.005  0.00  0.00    +0.000 OA
ATOM     12  H   UNL     1       2.951   8.788  17.024  0.00  0.00    +0.000 HD
ENDROOT
BRANCH   6  13
ATOM     13  C   UNL     1       1.102   9.156  19.102  0.00  0.00    +0.000 A 
ATOM     14  C   UNL     1       0.459   9.819  18.045  0.00  0.00    +0.000 A 
ATOM     15  C   UNL     1      -0.447  10.851  18.296  0.00  0.00    +0.000 A 
ATOM     16  C   UNL     1      -0.724  11.230  19.606  0.00  0.00    +0.000 A 
ATOM     17  C   UNL     1      -0.106  10.571  20.667  0.00  0.00    +0.000 A 
ATOM     18  C   UNL     1       0.798   9.534  20.416  0.00  0.00    +0.000 A 
ENDBRANCH   6  13
BRANCH   1  19
ATOM     19  C   UNL     1       6.324   4.718  16.571  0.00  0.00    +0.000 C 
BRANCH  19  21
ATOM     20  C   UNL     1       6.137   4.140  14.094  0.00  0.00    +0.000 C 
ATOM     21  C   UNL     1       5.825   3.718  15.521  0.00  0.00    +0.000 C 
ENDBRANCH  19  21
ENDBRANCH   1  19
BRANCH   9  22
ATOM     22  C   UNL     1       3.470   4.495  20.592  0.00  0.00    +0.000 C 
BRANCH  22  23
ATOM     23  C   UNL     1       1.951   4.293  20.712  0.00  0.00    +0.000 C 
BRANCH  23  24
ATOM     24  S   UNL     1       1.339   2.641  20.206  0.00  0.00    +0.000 S 
BRANCH  24  25
ATOM     25  C   UNL     1       1.248   2.881  18.405  0.00  0.00    +0.000 C 
ATOM     26  C   UNL     1       2.448   2.236  17.737  0.00  0.00    +0.000 C 
ENDBRANCH  24  25
ENDBRANCH  23  24
ENDBRANCH  22  23
ENDBRANCH   9  22
TORSDOF 7
ENDMDL
MODEL 8
REMARK VINA RESULT:      -7.1      2.319      6.990
REMARK  Name = 
REMARK  9 active torsions:
REMARK  status: ('A' for Active; 'I' for Inactive)
REMARK    1  A    between atoms: C_1  and  C_2
REMARK    2  A    between atoms: C_2  and  C_3
REMARK    3  A    between atoms: C_3  and  N_4
REMARK    4  A    between atoms: C_9  and  C_10
REMARK    5  A    between atoms: N_18  and  C_19
REMARK    6  A    between atoms: C_19  and  C_20
REMARK    7  A    between atoms: C_20  and  S_21
REMARK    8  A    between atoms: S_21  and  C_22
REMARK    9  A    between atoms: C_22  and  C_23
REMARK                            x       y       z     vdW  Elec       q    Type
REMARK                         _______ _______ _______ _____ _____    ______ ____
ROOT
ATOM      1  N   UNL     1       5.921   4.988  16.166  0.00  0.00    +0.000 N 
ATOM      2  C   UNL     1       5.751   6.298  16.622  0.00  0.00    +0.000 A 
ATOM      3  O   UNL     1       6.574   7.201  16.507  0.00  0.00    +0.000 OA
ATOM      4  C   UNL     1       4.506   6.496  17.265  0.00  0.00    +0.000 A 
ATOM      5  N   UNL     1       3.984   7.607  17.850  0.00  0.00    +0.000 N 
ATOM      6  C   UNL     1       2.731   7.281  18.324  0.00  0.00    +0.000 A 
ATOM      7  N   UNL     1       2.475   6.000  18.089  0.00  0.00    +0.000 NA
ATOM      8  C   UNL     1       3.566   5.533  17.417  0.00  0.00    +0.000 A 
ATOM      9  N   UNL     1       3.767   4.257  16.947  0.00  0.00    +0.000 N 
ATOM     10  C   UNL     1       5.000   3.934  16.368  0.00  0.00    +0.000 A 
ATOM     11  O   UNL     1       5.283   2.773  16.057  0.00  0.00    +0.000 OA
ATOM     12  H   UNL     1       4.445   8.503  17.940  0.00  0.00    +0.000 HD
ENDROOT
BRANCH   6  13
ATOM     13  C   UNL     1       1.867   8.241  19.017  0.00  0.00    +0.000 A 
ATOM     14  C   UNL     1       1.568   8.098  20.381  0.00  0.00    +0.000 A 
ATOM     15  C   UNL     1       0.719   9.004  21.023  0.00  0.00    +0.000 A 
ATOM     16  C   UNL     1       0.164  10.062  20.310  0.00  0.00    +0.000 A 
ATOM     17  C   UNL     1       0.465  10.226  18.959  0.00  0.00    +0.000 A 
ATOM     18  C   UNL     1       1.318   9.323  18.318  0.00  0.00    +0.000 A 
ENDBRANCH   6  13
BRANCH   1  19
ATOM     19  C   UNL     1       7.185   4.665  15.508  0.00  0.00    +0.000 C 
BRANCH  19  21
ATOM     20  C   UNL     1       6.544   3.930  13.151  0.00  0.00    +0.000 C 
ATOM     21  C   UNL     1       7.206   4.995  14.010  0.00  0.00    +0.000 C 
ENDBRANCH  19  21
ENDBRANCH   1  19
BRANCH   9  22
ATOM     22  C   UNL     1       2.732   3.235  17.085  0.00  0.00    +0.000 C 
BRANCH  22  23
ATOM     23  C   UNL     1       2.762   2.465  18.414  0.00  0.00    +0.000 C 
BRANCH  23  24
ATOM     24  S   UNL     1       1.141   2.278  19.249  0.00  0.00    +0.000 S 
BRANCH  24  25
ATOM     25  C   UNL     1       1.302   3.558  20.531  0.00  0.00    +0.000 C 
ATOM     26  C   UNL     1       1.615   2.911  21.869  0.00  0.00    +0.000 C 
ENDBRANCH  24  25
ENDBRANCH  23  24
ENDBRANCH  22  23
ENDBRANCH   9  22
TORSDOF 7
ENDMDL
MODEL 9
REMARK VINA RESULT:      -7.0      2.286      6.972
REMARK  Name = 
REMARK  9 active torsions:
REMARK  status: ('A' for Active; 'I' for Inactive)
REMARK    1  A    between atoms: C_1  and  C_2
REMARK    2  A    between atoms: C_2  and  C_3
REMARK    3  A    between atoms: C_3  and  N_4
REMARK    4  A    between atoms: C_9  and  C_10
REMARK    5  A    between atoms: N_18  and  C_19
REMARK    6  A    between atoms: C_19  and  C_20
REMARK    7  A    between atoms: C_20  and  S_21
REMARK    8  A    between atoms: S_21  and  C_22
REMARK    9  A    between atoms: C_22  and  C_23
REMARK                            x       y       z     vdW  Elec       q    Type
REMARK                         _______ _______ _______ _____ _____    ______ ____
ROOT
ATOM      1  N   UNL     1       5.704   5.386  16.741  0.00  0.00    +0.000 N 
ATOM      2  C   UNL     1       4.971   6.526  16.402  0.00  0.00    +0.000 A 
ATOM      3  O   UNL     1       5.115   7.183  15.376  0.00  0.00    +0.000 OA
ATOM      4  C   UNL     1       4.020   6.879  17.391  0.00  0.00    +0.000 A 
ATOM      5  N   UNL     1       3.144   7.916  17.437  0.00  0.00    +0.000 N 
ATOM      6  C   UNL     1       2.429   7.808  18.612  0.00  0.00    +0.000 A 
ATOM      7  N   UNL     1       2.858   6.764  19.311  0.00  0.00    +0.000 NA
ATOM      8  C   UNL     1       3.823   6.187  18.538  0.00  0.00    +0.000 A 
ATOM      9  N   UNL     1       4.559   5.065  18.832  0.00  0.00    +0.000 N 
ATOM     10  C   UNL     1       5.583   4.678  17.959  0.00  0.00    +0.000 A 
ATOM     11  O   UNL     1       6.362   3.762  18.244  0.00  0.00    +0.000 OA
ATOM     12  H   UNL     1       3.051   8.648  16.745  0.00  0.00    +0.000 HD
ENDROOT
BRANCH   6  13
ATOM     13  C   UNL     1       1.385   8.761  19.000  0.00  0.00    +0.000 A 
ATOM     14  C   UNL     1       0.734   9.555  18.043  0.00  0.00    +0.000 A 
ATOM     15  C   UNL     1      -0.238  10.482  18.428  0.00  0.00    +0.000 A 
ATOM     16  C   UNL     1      -0.572  10.623  19.772  0.00  0.00    +0.000 A 
ATOM     17  C   UNL     1       0.056   9.830  20.731  0.00  0.00    +0.000 A 
ATOM     18  C   UNL     1       1.024   8.899  20.346  0.00  0.00    +0.000 A 
ENDBRANCH   6  13
BRANCH   1  19
ATOM     19  C   UNL     1       6.733   4.946  15.802  0.00  0.00    +0.000 C 
BRANCH  19  21
ATOM     20  C   UNL     1       5.969   4.105  13.519  0.00  0.00    +0.000 C 
ATOM     21  C   UNL     1       6.320   3.738  14.951  0.00  0.00    +0.000 C 
ENDBRANCH  19  21
ENDBRANCH   1  19
BRANCH   9  22
ATOM     22  C   UNL     1       4.314   4.306  20.057  0.00  0.00    +0.000 C 
BRANCH  22  23
ATOM     23  C   UNL     1       3.684   2.921  19.839  0.00  0.00    +0.000 C 
BRANCH  23  24
ATOM     24  S   UNL     1       2.513   2.805  18.434  0.00  0.00    +0.000 S 
BRANCH  24  25
ATOM     25  C   UNL     1       0.941   2.722  19.345  0.00  0.00    +0.000 C 
ATOM     26  C   UNL     1       0.831   3.903  20.292  0.00  0.00    +0.000 C 
ENDBRANCH  24  25
ENDBRANCH  23  24
ENDBRANCH  22  23
ENDBRANCH   9  22
TORSDOF 7
ENDMDL
