MODEL 1
REMARK VINA RESULT:      -8.3      0.000      0.000
REMARK  Name = 
REMARK  13 active torsions:
REMARK  status: ('A' for Active; 'I' for Inactive)
REMARK    1  A    between atoms: C_1  and  C_2
REMARK    2  A    between atoms: C_8  and  C_9
REMARK    3  A    between atoms: N_11  and  CA_12
REMARK    4  A    between atoms: CA_12  and  CB_13
REMARK    5  A    between atoms: CA_12  and  C_20
REMARK    6  A    between atoms: CB_13  and  CG_14
REMARK    7  A    between atoms: N_22  and  CA_23
REMARK    8  A    between atoms: CA_23  and  CB_24
REMARK    9  A    between atoms: CA_23  and  C_31
REMARK   10  A    between atoms: CB_24  and  CG_25
REMARK   11  A    between atoms: CG_25  and  CD_26
REMARK   12  A    between atoms: CD_26  and  NE_27
REMARK   13  A    between atoms: C_31  and  OXT_33
REMARK                            x       y       z     vdW  Elec       q    Type
REMARK                         _______ _______ _______ _____ _____    ______ ____
ROOT
ATOM      1  CA  PHE A   1       3.087   6.928  18.179  0.00  0.00    +0.000 C 
ENDROOT
BRANCH   1   4
ATOM      2  C   UNK A   0       1.778   9.011  18.652  0.00  0.00    +0.000 C 
ATOM      3  O   UNK A   0       1.457   8.637  19.779  0.00  0.00    +0.000 OA
ATOM      4  N   PHE A   1       2.526   8.231  17.810  0.00  0.00    +0.000 N 
ATOM      5  H   PHE A   1       2.908   8.674  16.977  0.00  0.00    +0.000 HD
BRANCH   2  13
ATOM      6  C   UNK A   0      -2.339  11.569  18.576  0.00  0.00    +0.000 C 
ATOM      7  C   UNK A   0      -1.214  10.658  18.150  0.00  0.00    +0.000 C 
ATOM      8  O   UNK A   0      -1.398   9.795  17.293  0.00  0.00    +0.000 OA
ATOM      9  N   UNK A   0       0.035  10.882  18.696  0.00  0.00    +0.000 N 
ATOM     10  C   UNK A   0       0.416  11.926  19.630  0.00  0.00    +0.000 C 
ATOM     11  C   UNK A   0       1.606  12.575  18.953  0.00  0.00    +0.000 C 
ATOM     12  C   UNK A   0       2.289  11.437  18.195  0.00  0.00    +0.000 C 
ATOM     13  C   UNK A   0       1.233  10.326  18.045  0.00  0.00    +0.000 C 
ENDBRANCH   2  13
ENDBRANCH   1   4
BRANCH   1  14
ATOM     14  C   PHE A   1       4.421   6.768  17.426  0.00  0.00    +0.000 C 
ATOM     15  O   PHE A   1       4.492   6.864  16.199  0.00  0.00    +0.000 OA
ATOM     16  N   ARG A   2       5.535   6.535  18.202  0.00  0.00    +0.000 N 
ATOM     17  H   ARG A   2       5.445   6.375  19.204  0.00  0.00    +0.000 HD
BRANCH  16  18
ATOM     18  CA  ARG A   2       6.827   6.207  17.603  0.00  0.00    +0.000 C 
BRANCH  18  19
ATOM     19  C   ARG A   2       7.080   4.702  17.789  0.00  0.00    +0.000 C 
ATOM     20  O   ARG A   2       6.466   4.022  18.604  0.00  0.00    +0.000 OA
BRANCH  19  21
ATOM     21  OXT ARG A   2       8.035   4.175  16.996  0.00  0.00    +0.000 OA
ATOM     22  HXT ARG A   2       7.876   3.266  16.678  0.00  0.00    +0.000 HD
ENDBRANCH  19  21
ENDBRANCH  18  19
BRANCH  18  23
ATOM     23  CB  ARG A   2       7.945   7.113  18.148  0.00  0.00    +0.000 C 
BRANCH  23  24
ATOM     24  CG  ARG A   2       7.967   8.548  17.599  0.00  0.00    +0.000 C 
BRANCH  24  25
ATOM     25  CD  ARG A   2       8.504   9.565  18.598  0.00  0.00    +0.000 C 
BRANCH  25  26
ATOM     26  NE  ARG A   2       9.430  10.476  17.964  0.00  0.00    +0.000 N 
ATOM     27  CZ  ARG A   2      10.205  11.322  18.681  0.00  0.00    +0.000 C 
ATOM     28  NH1 ARG A   2      10.370  11.376  19.951  0.00  0.00    +0.000 NA
ATOM     29  NH2 ARG A   2      10.849  12.191  17.888  0.00  0.00    +0.000 N 
ATOM     30  HE  ARG A   2       9.047  10.941  17.148  0.00  0.00    +0.000 HD
ATOM     31  HH1 ARG A   2       9.800  10.668  20.415  0.00  0.00    +0.000 HD
ATOM     32 HH21 ARG A   2      11.290  11.738  17.098  0.00  0.00    +0.000 HD
ATOM     33 HH22 ARG A   2      11.534  12.697  18.440  0.00  0.00    +0.000 HD
ENDBRANCH  25  26
ENDBRANCH  24  25
ENDBRANCH  23  24
ENDBRANCH  18  23
ENDBRANCH  16  18
ENDBRANCH   1  14
BRANCH   1  34
ATOM     34  CB  PHE A   1       2.146   5.739  17.906  0.00  0.00    +0.000 C 
BRANCH  34  35
ATOM     35  CG  PHE A   1       1.978   4.771  19.059  0.00  0.00    +0.000 A 
ATOM     36  CD1 PHE A   1       2.404   5.096  20.355  0.00  0.00    +0.000 A 
ATOM     37  CE1 PHE A   1       2.197   4.208  21.412  0.00  0.00    +0.000 A 
ATOM     38  CZ  PHE A   1       1.550   2.994  21.186  0.00  0.00    +0.000 A 
ATOM     39  CE2 PHE A   1       1.135   2.656  19.899  0.00  0.00    +0.000 A 
ATOM     40  CD2 PHE A   1       1.355   3.537  18.841  0.00  0.00    +0.000 A 
ENDBRANCH  34  35
ENDBRANCH   1  34
TORSDOF 12
ENDMDL
MODEL 2
REMARK VINA RESULT:      -8.3      0.506      1.174
REMARK  Name = 
REMARK  13 active torsions:
REMARK  status: ('A' for Active; 'I' for Inactive)
REMARK    1  A    between atoms: C_1  and  C_2
REMARK    2  A    between atoms: C_8  and  C_9
REMARK    3  A    between atoms: N_11  and  CA_12
REMARK    4  A    between atoms: CA_12  and  CB_13
REMARK    5  A    between atoms: CA_12  and  C_20
REMARK    6  A    between atoms: CB_13  and  CG_14
REMARK    7  A    between atoms: N_22  and  CA_23
REMARK    8  A    between atoms: CA_23  and  CB_24
REMARK    9  A    between atoms: CA_23  and  C_31
REMARK   10  A    between atoms: CB_24  and  CG_25
REMARK   11  A    between atoms: CG_25  and  CD_26
REMARK   12  A    between atoms: CD_26  and  NE_27
REMARK   13  A    between atoms: C_31  and  OXT_33
REMARK                            x       y       z     vdW  Elec       q    Type
REMARK                         _______ _______ _______ _____ _____    ______ ____
ROOT
ATOM      1  CA  PHE A   1       3.066   6.740  18.102  0.00  0.00    +0.000 C 
ENDROOT
BRANCH   1   4
ATOM      2  C   UNK A   0       1.813   8.849  18.611  0.00  0.00    +0.000 C 
ATOM      3  O   UNK A   0       1.600   8.523  19.778  0.00  0.00    +0.000 OA
ATOM      4  N   PHE A   1       2.477   8.031  17.734  0.00  0.00    +0.000 N 
ATOM      5  H   PHE A   1       2.778   8.437  16.851  0.00  0.00    +0.000 HD
BRANCH   2  13
ATOM      6  C   UNK A   0      -2.343  11.343  18.694  0.00  0.00    +0.000 C 
ATOM      7  C   UNK A   0      -1.226  10.440  18.230  0.00  0.00    +0.000 C 
ATOM      8  O   UNK A   0      -1.441   9.554  17.403  0.00  0.00    +0.000 OA
ATOM      9  N   UNK A   0       0.045  10.694  18.704  0.00  0.00    +0.000 N 
ATOM     10  C   UNK A   0       0.458  11.764  19.595  0.00  0.00    +0.000 C 
ATOM     11  C   UNK A   0       1.600  12.416  18.843  0.00  0.00    +0.000 C 
ATOM     12  C   UNK A   0       2.261  11.271  18.074  0.00  0.00    +0.000 C 
ATOM     13  C   UNK A   0       1.216  10.141  18.004  0.00  0.00    +0.000 C 
ENDBRANCH   2  13
ENDBRANCH   1   4
BRANCH   1  14
ATOM     14  C   PHE A   1       4.448   6.653  17.425  0.00  0.00    +0.000 C 
ATOM     15  O   PHE A   1       4.604   6.903  16.229  0.00  0.00    +0.000 OA
ATOM     16  N   ARG A   2       5.503   6.302  18.238  0.00  0.00    +0.000 N 
ATOM     17  H   ARG A   2       5.343   6.018  19.203  0.00  0.00    +0.000 HD
BRANCH  16  18
ATOM     18  CA  ARG A   2       6.830   6.030  17.690  0.00  0.00    +0.000 C 
BRANCH  18  19
ATOM     19  C   ARG A   2       7.201   4.574  18.017  0.00  0.00    +0.000 C 
ATOM     20  O   ARG A   2       8.272   4.074  17.695  0.00  0.00    +0.000 OA
BRANCH  19  21
ATOM     21  OXT ARG A   2       6.258   3.874  18.682  0.00  0.00    +0.000 OA
ATOM     22  HXT ARG A   2       5.388   3.802  18.245  0.00  0.00    +0.000 HD
ENDBRANCH  19  21
ENDBRANCH  18  19
BRANCH  18  23
ATOM     23  CB  ARG A   2       7.859   7.070  18.165  0.00  0.00    +0.000 C 
BRANCH  23  24
ATOM     24  CG  ARG A   2       7.975   8.336  17.300  0.00  0.00    +0.000 C 
BRANCH  24  25
ATOM     25  CD  ARG A   2       7.837   9.625  18.101  0.00  0.00    +0.000 C 
BRANCH  25  26
ATOM     26  NE  ARG A   2       9.118  10.056  18.615  0.00  0.00    +0.000 N 
ATOM     27  CZ  ARG A   2       9.629  11.275  18.329  0.00  0.00    +0.000 C 
ATOM     28  NH1 ARG A   2       9.068  12.258  17.727  0.00  0.00    +0.000 NA
ATOM     29  NH2 ARG A   2      10.895  11.391  18.759  0.00  0.00    +0.000 N 
ATOM     30  HE  ARG A   2       9.836   9.342  18.565  0.00  0.00    +0.000 HD
ATOM     31  HH1 ARG A   2       8.120  12.010  17.445  0.00  0.00    +0.000 HD
ATOM     32 HH21 ARG A   2      11.009  11.068  19.711  0.00  0.00    +0.000 HD
ATOM     33 HH22 ARG A   2      11.186  12.359  18.671  0.00  0.00    +0.000 HD
ENDBRANCH  25  26
ENDBRANCH  24  25
ENDBRANCH  23  24
ENDBRANCH  18  23
ENDBRANCH  16  18
ENDBRANCH   1  14
BRANCH   1  34
ATOM     34  CB  PHE A   1       2.191   5.523  17.743  0.00  0.00    +0.000 C 
BRANCH  34  35
ATOM     35  CG  PHE A   1       1.901   4.577  18.888  0.00  0.00    +0.000 A 
ATOM     36  CD1 PHE A   1       1.284   3.335  18.673  0.00  0.00    +0.000 A 
ATOM     37  CE1 PHE A   1       1.068   2.458  19.737  0.00  0.00    +0.000 A 
ATOM     38  CZ  PHE A   1       1.478   2.807  21.022  0.00  0.00    +0.000 A 
ATOM     39  CE2 PHE A   1       2.079   4.044  21.248  0.00  0.00    +0.000 A 
ATOM     40  CD2 PHE A   1       2.282   4.926  20.188  0.00  0.00    +0.000 A 
ENDBRANCH  34  35
ENDBRANCH   1  34
TORSDOF 12
ENDMDL
MODEL 3
REMARK VINA RESULT:      -8.2      2.610      8.104
REMARK  Name = 
REMARK  13 active torsions:
REMARK  status: ('A' for Active; 'I' for Inactive)
REMARK    1  A    between atoms: C_1  and  C_2
REMARK    2  A    between atoms: C_8  and  C_9
REMARK    3  A    between atoms: N_11  and  CA_12
REMARK    4  A    between atoms: CA_12  and  CB_13
REMARK    5  A    between atoms: CA_12  and  C_20
REMARK    6  A    between atoms: CB_13  and  CG_14
REMARK    7  A    between atoms: N_22  and  CA_23
REMARK    8  A    between atoms: CA_23  and  CB_24
REMARK    9  A    between atoms: CA_23  and  C_31
REMARK   10  A    between atoms: CB_24  and  CG_25
REMARK   11  A    between atoms: CG_25  and  CD_26
REMARK   12  A    between atoms: CD_26  and  NE_27
REMARK   13  A    between atoms: C_31  and  OXT_33
REMARK                            x       y       z     vdW  Elec       q    Type
REMARK                         _______ _______ _______ _____ _____    ______ ____
ROOT
ATOM      1  CA  PHE A   1       2.607   6.970  18.524  0.00  0.00    +0.000 C 
ENDROOT
BRANCH   1   4
ATOM      2  C   UNK A   0       4.432   5.869  17.208  0.00  0.00    +0.000 C 
ATOM      3  O   UNK A   0       3.775   4.846  17.020  0.00  0.00    +0.000 OA
ATOM      4  N   PHE A   1       3.956   6.916  17.951  0.00  0.00    +0.000 N 
ATOM      5  H   PHE A   1       4.470   7.793  17.909  0.00  0.00    +0.000 HD
BRANCH   2  13
ATOM      6  C   UNK A   0       8.461   8.273  18.426  0.00  0.00    +0.000 C 
ATOM      7  C   UNK A   0       7.210   7.861  17.690  0.00  0.00    +0.000 C 
ATOM      8  O   UNK A   0       6.584   8.676  17.014  0.00  0.00    +0.000 OA
ATOM      9  N   UNK A   0       6.844   6.530  17.741  0.00  0.00    +0.000 N 
ATOM     10  C   UNK A   0       7.545   5.446  18.407  0.00  0.00    +0.000 C 
ATOM     11  C   UNK A   0       7.702   4.413  17.310  0.00  0.00    +0.000 C 
ATOM     12  C   UNK A   0       6.459   4.583  16.436  0.00  0.00    +0.000 C 
ATOM     13  C   UNK A   0       5.905   5.986  16.746  0.00  0.00    +0.000 C 
ENDBRANCH   2  13
ENDBRANCH   1   4
BRANCH   1  14
ATOM     14  C   PHE A   1       2.107   8.421  18.394  0.00  0.00    +0.000 C 
ATOM     15  O   PHE A   1       2.429   9.139  17.445  0.00  0.00    +0.000 OA
ATOM     16  N   ARG A   2       1.262   8.866  19.386  0.00  0.00    +0.000 N 
ATOM     17  H   ARG A   2       1.075   8.290  20.205  0.00  0.00    +0.000 HD
BRANCH  16  18
ATOM     18  CA  ARG A   2       0.847  10.265  19.465  0.00  0.00    +0.000 C 
BRANCH  18  19
ATOM     19  C   ARG A   2       1.158  10.784  20.879  0.00  0.00    +0.000 C 
ATOM     20  O   ARG A   2       1.176  10.055  21.864  0.00  0.00    +0.000 OA
BRANCH  19  21
ATOM     21  OXT ARG A   2       1.406  12.107  20.966  0.00  0.00    +0.000 OA
ATOM     22  HXT ARG A   2       0.707  12.699  20.627  0.00  0.00    +0.000 HD
ENDBRANCH  19  21
ENDBRANCH  18  19
BRANCH  18  23
ATOM     23  CB  ARG A   2      -0.618  10.443  19.030  0.00  0.00    +0.000 C 
BRANCH  23  24
ATOM     24  CG  ARG A   2      -0.938  10.029  17.585  0.00  0.00    +0.000 C 
BRANCH  24  25
ATOM     25  CD  ARG A   2      -2.418   9.750  17.355  0.00  0.00    +0.000 C 
BRANCH  25  26
ATOM     26  NE  ARG A   2      -2.690   9.521  15.953  0.00  0.00    +0.000 N 
ATOM     27  CZ  ARG A   2      -3.275  10.462  15.176  0.00  0.00    +0.000 C 
ATOM     28  NH1 ARG A   2      -3.544  11.682  15.460  0.00  0.00    +0.000 NA
ATOM     29  NH2 ARG A   2      -3.593   9.973  13.967  0.00  0.00    +0.000 N 
ATOM     30  HE  ARG A   2      -3.073   8.602  15.759  0.00  0.00    +0.000 HD
ATOM     31  HH1 ARG A   2      -3.263  11.896  16.417  0.00  0.00    +0.000 HD
ATOM     32 HH21 ARG A   2      -2.830   9.456  13.549  0.00  0.00    +0.000 HD
ATOM     33 HH22 ARG A   2      -3.879  10.739  13.366  0.00  0.00    +0.000 HD
ENDBRANCH  25  26
ENDBRANCH  24  25
ENDBRANCH  23  24
ENDBRANCH  18  23
ENDBRANCH  16  18
ENDBRANCH   1  14
BRANCH   1  34
ATOM     34  CB  PHE A   1       2.523   6.479  19.982  0.00  0.00    +0.000 C 
BRANCH  34  35
ATOM     35  CG  PHE A   1       2.111   5.033  20.154  0.00  0.00    +0.000 A 
ATOM     36  CD1 PHE A   1       2.355   4.338  21.348  0.00  0.00    +0.000 A 
ATOM     37  CE1 PHE A   1       1.924   3.019  21.501  0.00  0.00    +0.000 A 
ATOM     38  CZ  PHE A   1       1.234   2.387  20.468  0.00  0.00    +0.000 A 
ATOM     39  CE2 PHE A   1       0.998   3.064  19.273  0.00  0.00    +0.000 A 
ATOM     40  CD2 PHE A   1       1.441   4.376  19.115  0.00  0.00    +0.000 A 
ENDBRANCH  34  35
ENDBRANCH   1  34
TORSDOF 12
ENDMDL
MODEL 4
REMARK VINA RESULT:      -8.1      3.110      3.709
REMARK  Name = 
REMARK  13 active torsions:
REMARK  status: ('A' for Active; 'I' for Inactive)
REMARK    1  A    between atoms: C_1  and  C_2
REMARK    2  A    between atoms: C_8  and  C_9
REMARK    3  A    between atoms: N_11  and  CA_12
REMARK    4  A    between atoms: CA_12  and  CB_13
REMARK    5  A    between atoms: CA_12  and  C_20
REMARK    6  A    between atoms: CB_13  and  CG_14
REMARK    7  A    between atoms: N_22  and  CA_23
REMARK    8  A    between atoms: CA_23  and  CB_24
REMARK    9  A    between atoms: CA_23  and  C_31
REMARK   10  A    between atoms: CB_24  and  CG_25
REMARK   11  A    between atoms: CG_25  and  CD_26
REMARK   12  A    between atoms: CD_26  and  NE_27
REMARK   13  A    between atoms: C_31  and  OXT_33
REMARK                            x       y       z     vdW  Elec       q    Type
REMARK                         _______ _______ _______ _____ _____    ______ ____
ROOT
ATOM      1  CA  PHE A   1       2.123   7.006  20.205  0.00  0.00    +0.000 C 
ENDROOT
BRANCH   1   4
ATOM      2  C   UNK A   0       1.000   9.219  20.547  0.00  0.00    +0.000 C 
ATOM      3  O   UNK A   0       0.599   8.920  21.671  0.00  0.00    +0.000 OA
ATOM      4  N   PHE A   1       1.704   8.340  19.767  0.00  0.00    +0.000 N 
ATOM      5  H   PHE A   1       2.160   8.713  18.937  0.00  0.00    +0.000 HD
BRANCH   2  13
ATOM      6  C   UNK A   0      -2.801  11.180  18.265  0.00  0.00    +0.000 C 
ATOM      7  C   UNK A   0      -1.458  10.539  18.514  0.00  0.00    +0.000 C 
ATOM      8  O   UNK A   0      -0.912   9.870  17.637  0.00  0.00    +0.000 OA
ATOM      9  N   UNK A   0      -0.838  10.794  19.721  0.00  0.00    +0.000 N 
ATOM     10  C   UNK A   0      -1.315  11.645  20.796  0.00  0.00    +0.000 C 
ATOM     11  C   UNK A   0      -0.144  12.575  21.043  0.00  0.00    +0.000 C 
ATOM     12  C   UNK A   0       1.093  11.731  20.739  0.00  0.00    +0.000 C 
ATOM     13  C   UNK A   0       0.607  10.554  19.871  0.00  0.00    +0.000 C 
ENDBRANCH   2  13
ENDBRANCH   1   4
BRANCH   1  14
ATOM     14  C   PHE A   1       3.117   6.466  19.160  0.00  0.00    +0.000 C 
ATOM     15  O   PHE A   1       2.903   6.556  17.949  0.00  0.00    +0.000 OA
ATOM     16  N   ARG A   2       4.271   5.896  19.652  0.00  0.00    +0.000 N 
ATOM     17  H   ARG A   2       4.392   5.754  20.654  0.00  0.00    +0.000 HD
BRANCH  16  18
ATOM     18  CA  ARG A   2       5.215   5.206  18.777  0.00  0.00    +0.000 C 
BRANCH  18  19
ATOM     19  C   ARG A   2       4.755   3.747  18.621  0.00  0.00    +0.000 C 
ATOM     20  O   ARG A   2       4.070   3.364  17.680  0.00  0.00    +0.000 OA
BRANCH  19  21
ATOM     21  OXT ARG A   2       5.154   2.909  19.600  0.00  0.00    +0.000 OA
ATOM     22  HXT ARG A   2       6.077   2.595  19.549  0.00  0.00    +0.000 HD
ENDBRANCH  19  21
ENDBRANCH  18  19
BRANCH  18  23
ATOM     23  CB  ARG A   2       6.662   5.367  19.273  0.00  0.00    +0.000 C 
BRANCH  23  24
ATOM     24  CG  ARG A   2       7.741   5.403  18.179  0.00  0.00    +0.000 C 
BRANCH  24  25
ATOM     25  CD  ARG A   2       7.253   6.019  16.874  0.00  0.00    +0.000 C 
BRANCH  25  26
ATOM     26  NE  ARG A   2       7.313   5.060  15.793  0.00  0.00    +0.000 N 
ATOM     27  CZ  ARG A   2       6.202   4.650  15.139  0.00  0.00    +0.000 C 
ATOM     28  NH1 ARG A   2       5.005   5.098  15.234  0.00  0.00    +0.000 NA
ATOM     29  NH2 ARG A   2       6.469   3.634  14.305  0.00  0.00    +0.000 N 
ATOM     30  HE  ARG A   2       7.933   4.279  15.978  0.00  0.00    +0.000 HD
ATOM     31  HH1 ARG A   2       4.959   5.851  15.921  0.00  0.00    +0.000 HD
ATOM     32 HH21 ARG A   2       7.287   3.809  13.735  0.00  0.00    +0.000 HD
ATOM     33 HH22 ARG A   2       5.656   3.462  13.722  0.00  0.00    +0.000 HD
ENDBRANCH  25  26
ENDBRANCH  24  25
ENDBRANCH  23  24
ENDBRANCH  18  23
ENDBRANCH  16  18
ENDBRANCH   1  14
BRANCH   1  34
ATOM     34  CB  PHE A   1       0.957   6.023  20.428  0.00  0.00    +0.000 C 
BRANCH  34  35
ATOM     35  CG  PHE A   1       1.338   4.558  20.419  0.00  0.00    +0.000 A 
ATOM     36  CD1 PHE A   1       2.021   3.972  21.495  0.00  0.00    +0.000 A 
ATOM     37  CE1 PHE A   1       2.321   2.609  21.486  0.00  0.00    +0.000 A 
ATOM     38  CZ  PHE A   1       1.929   1.816  20.409  0.00  0.00    +0.000 A 
ATOM     39  CE2 PHE A   1       1.261   2.391  19.329  0.00  0.00    +0.000 A 
ATOM     40  CD2 PHE A   1       0.975   3.755  19.332  0.00  0.00    +0.000 A 
ENDBRANCH  34  35
ENDBRANCH   1  34
TORSDOF 12
ENDMDL
MODEL 5
REMARK VINA RESULT:      -8.0      2.707      4.438
REMARK  Name = 
REMARK  13 active torsions:
REMARK  status: ('A' for Active; 'I' for Inactive)
REMARK    1  A    between atoms: C_1  and  C_2
REMARK    2  A    between atoms: C_8  and  C_9
REMARK    3  A    between atoms: N_11  and  CA_12
REMARK    4  A    between atoms: CA_12  and  CB_13
REMARK    5  A    between atoms: CA_12  and  C_20
REMARK    6  A    between atoms: CB_13  and  CG_14
REMARK    7  A    between atoms: N_22  and  CA_23
REMARK    8  A    between atoms: CA_23  and  CB_24
REMARK    9  A    between atoms: CA_23  and  C_31
REMARK   10  A    between atoms: CB_24  and  CG_25
REMARK   11  A    between atoms: CG_25  and  CD_26
REMARK   12  A    between atoms: CD_26  and  NE_27
REMARK   13  A    between atoms: C_31  and  OXT_33
REMARK                            x       y       z     vdW  Elec       q    Type
REMARK                         _______ _______ _______ _____ _____    ______ ____
ROOT
ATOM      1  CA  PHE A   1       2.970   6.862  18.347  0.00  0.00    +0.000 C 
ENDROOT
BRANCH   1   4
ATOM      2  C   UNK A   0       1.712   8.995  18.727  0.00  0.00    +0.000 C 
ATOM      3  O   UNK A   0       1.347   8.661  19.853  0.00  0.00    +0.000 OA
ATOM      4  N   PHE A   1       2.461   8.171  17.928  0.00  0.00    +0.000 N 
ATOM      5  H   PHE A   1       2.879   8.580  17.096  0.00  0.00    +0.000 HD
BRANCH   2  13
ATOM      6  C   UNK A   0      -2.250  11.787  18.641  0.00  0.00    +0.000 C 
ATOM      7  C   UNK A   0      -1.193  10.791  18.229  0.00  0.00    +0.000 C 
ATOM      8  O   UNK A   0      -1.455   9.899  17.423  0.00  0.00    +0.000 OA
ATOM      9  N   UNK A   0       0.083  10.966  18.726  0.00  0.00    +0.000 N 
ATOM     10  C   UNK A   0       0.554  12.030  19.595  0.00  0.00    +0.000 C 
ATOM     11  C   UNK A   0       1.757  12.573  18.852  0.00  0.00    +0.000 C 
ATOM     12  C   UNK A   0       2.349  11.361  18.132  0.00  0.00    +0.000 C 
ATOM     13  C   UNK A   0       1.225  10.308  18.070  0.00  0.00    +0.000 C 
ENDBRANCH   2  13
ENDBRANCH   1   4
BRANCH   1  14
ATOM     14  C   PHE A   1       4.322   6.644  17.641  0.00  0.00    +0.000 C 
ATOM     15  O   PHE A   1       4.593   7.191  16.570  0.00  0.00    +0.000 OA
ATOM     16  N   ARG A   2       5.220   5.820  18.283  0.00  0.00    +0.000 N 
ATOM     17  H   ARG A   2       4.948   5.311  19.122  0.00  0.00    +0.000 HD
BRANCH  16  18
ATOM     18  CA  ARG A   2       6.467   5.406  17.645  0.00  0.00    +0.000 C 
BRANCH  18  19
ATOM     19  C   ARG A   2       7.478   6.558  17.762  0.00  0.00    +0.000 C 
ATOM     20  O   ARG A   2       8.031   6.851  18.817  0.00  0.00    +0.000 OA
BRANCH  19  21
ATOM     21  OXT ARG A   2       7.716   7.236  16.621  0.00  0.00    +0.000 OA
ATOM     22  HXT ARG A   2       7.185   6.972  15.845  0.00  0.00    +0.000 HD
ENDBRANCH  19  21
ENDBRANCH  18  19
BRANCH  18  23
ATOM     23  CB  ARG A   2       6.226   4.915  16.207  0.00  0.00    +0.000 C 
BRANCH  23  24
ATOM     24  CG  ARG A   2       5.606   3.515  16.076  0.00  0.00    +0.000 C 
BRANCH  24  25
ATOM     25  CD  ARG A   2       4.227   3.407  16.716  0.00  0.00    +0.000 C 
BRANCH  25  26
ATOM     26  NE  ARG A   2       4.073   2.145  17.405  0.00  0.00    +0.000 N 
ATOM     27  CZ  ARG A   2       4.498   1.969  18.677  0.00  0.00    +0.000 C 
ATOM     28  NH1 ARG A   2       4.944   2.842  19.502  0.00  0.00    +0.000 NA
ATOM     29  NH2 ARG A   2       4.418   0.682  19.049  0.00  0.00    +0.000 N 
ATOM     30  HE  ARG A   2       4.302   1.340  16.832  0.00  0.00    +0.000 HD
ATOM     31  HH1 ARG A   2       4.963   3.765  19.068  0.00  0.00    +0.000 HD
ATOM     32 HH21 ARG A   2       3.526   0.268  18.811  0.00  0.00    +0.000 HD
ATOM     33 HH22 ARG A   2       4.591   0.614  20.046  0.00  0.00    +0.000 HD
ENDBRANCH  25  26
ENDBRANCH  24  25
ENDBRANCH  23  24
ENDBRANCH  18  23
ENDBRANCH  16  18
ENDBRANCH   1  14
BRANCH   1  34
ATOM     34  CB  PHE A   1       2.003   5.694  18.076  0.00  0.00    +0.000 C 
BRANCH  34  35
ATOM     35  CG  PHE A   1       1.827   4.721  19.222  0.00  0.00    +0.000 A 
ATOM     36  CD1 PHE A   1       1.187   3.486  19.042  0.00  0.00    +0.000 A 
ATOM     37  CE1 PHE A   1       1.077   2.584  20.103  0.00  0.00    +0.000 A 
ATOM     38  CZ  PHE A   1       1.617   2.903  21.347  0.00  0.00    +0.000 A 
ATOM     39  CE2 PHE A   1       2.243   4.133  21.539  0.00  0.00    +0.000 A 
ATOM     40  CD2 PHE A   1       2.340   5.039  20.484  0.00  0.00    +0.000 A 
ENDBRANCH  34  35
ENDBRANCH   1  34
TORSDOF 12
ENDMDL
MODEL 6
REMARK VINA RESULT:      -8.0      2.913      4.674
REMARK  Name = 
REMARK  13 active torsions:
REMARK  status: ('A' for Active; 'I' for Inactive)
REMARK    1  A    between atoms: C_1  and  C_2
REMARK    2  A    between atoms: C_8  and  C_9
REMARK    3  A    between atoms: N_11  and  CA_12
REMARK    4  A    between atoms: CA_12  and  CB_13
REMARK    5  A    between atoms: CA_12  and  C_20
REMARK    6  A    between atoms: CB_13  and  CG_14
REMARK    7  A    between atoms: N_22  and  CA_23
REMARK    8  A    between atoms: CA_23  and  CB_24
REMARK    9  A    between atoms: CA_23  and  C_31
REMARK   10  A    between atoms: CB_24  and  CG_25
REMARK   11  A    between atoms: CG_25  and  CD_26
REMARK   12  A    between atoms: CD_26  and  NE_27
REMARK   13  A    between atoms: C_31  and  OXT_33
REMARK                            x       y       z     vdW  Elec       q    Type
REMARK                         _______ _______ _______ _____ _____    ______ ____
ROOT
ATOM      1  CA  PHE A   1       2.789   6.744  18.316  0.00  0.00    +0.000 C 
ENDROOT
BRANCH   1   4
ATOM      2  C   UNK A   0       1.668   8.935  18.782  0.00  0.00    +0.000 C 
ATOM      3  O   UNK A   0       1.382   8.623  19.937  0.00  0.00    +0.000 OA
ATOM      4  N   PHE A   1       2.308   8.074  17.930  0.00  0.00    +0.000 N 
ATOM      5  H   PHE A   1       2.676   8.459  17.064  0.00  0.00    +0.000 HD
BRANCH   2  13
ATOM      6  C   UNK A   0      -2.015  12.058  19.207  0.00  0.00    +0.000 C 
ATOM      7  C   UNK A   0      -1.123  10.963  18.674  0.00  0.00    +0.000 C 
ATOM      8  O   UNK A   0      -1.583  10.076  17.956  0.00  0.00    +0.000 OA
ATOM      9  N   UNK A   0       0.226  11.040  18.958  0.00  0.00    +0.000 N 
ATOM     10  C   UNK A   0       0.915  12.081  19.698  0.00  0.00    +0.000 C 
ATOM     11  C   UNK A   0       2.024  12.498  18.754  0.00  0.00    +0.000 C 
ATOM     12  C   UNK A   0       2.392  11.220  18.000  0.00  0.00    +0.000 C 
ATOM     13  C   UNK A   0       1.191  10.268  18.157  0.00  0.00    +0.000 C 
ENDBRANCH   2  13
ENDBRANCH   1   4
BRANCH   1  14
ATOM     14  C   PHE A   1       4.060   6.455  17.497  0.00  0.00    +0.000 C 
ATOM     15  O   PHE A   1       4.343   7.098  16.484  0.00  0.00    +0.000 OA
ATOM     16  N   ARG A   2       4.877   5.452  17.971  0.00  0.00    +0.000 N 
ATOM     17  H   ARG A   2       4.586   4.875  18.759  0.00  0.00    +0.000 HD
BRANCH  16  18
ATOM     18  CA  ARG A   2       6.024   4.974  17.202  0.00  0.00    +0.000 C 
BRANCH  18  19
ATOM     19  C   ARG A   2       7.189   5.956  17.408  0.00  0.00    +0.000 C 
ATOM     20  O   ARG A   2       7.512   6.787  16.567  0.00  0.00    +0.000 OA
BRANCH  19  21
ATOM     21  OXT ARG A   2       7.842   5.838  18.582  0.00  0.00    +0.000 OA
ATOM     22  HXT ARG A   2       7.291   5.876  19.387  0.00  0.00    +0.000 HD
ENDBRANCH  19  21
ENDBRANCH  18  19
BRANCH  18  23
ATOM     23  CB  ARG A   2       5.651   4.729  15.730  0.00  0.00    +0.000 C 
BRANCH  23  24
ATOM     24  CG  ARG A   2       6.726   4.037  14.876  0.00  0.00    +0.000 C 
BRANCH  24  25
ATOM     25  CD  ARG A   2       6.572   4.305  13.384  0.00  0.00    +0.000 C 
BRANCH  25  26
ATOM     26  NE  ARG A   2       6.659   3.076  12.626  0.00  0.00    +0.000 N 
ATOM     27  CZ  ARG A   2       5.636   2.637  11.857  0.00  0.00    +0.000 C 
ATOM     28  NH1 ARG A   2       4.545   3.238  11.555  0.00  0.00    +0.000 NA
ATOM     29  NH2 ARG A   2       5.867   1.400  11.392  0.00  0.00    +0.000 N 
ATOM     30  HE  ARG A   2       7.080   2.311  13.141  0.00  0.00    +0.000 HD
ATOM     31  HH1 ARG A   2       4.509   4.156  11.999  0.00  0.00    +0.000 HD
ATOM     32 HH21 ARG A   2       6.795   1.302  11.003  0.00  0.00    +0.000 HD
ATOM     33 HH22 ARG A   2       5.162   1.171  10.700  0.00  0.00    +0.000 HD
ENDBRANCH  25  26
ENDBRANCH  24  25
ENDBRANCH  23  24
ENDBRANCH  18  23
ENDBRANCH  16  18
ENDBRANCH   1  14
BRANCH   1  34
ATOM     34  CB  PHE A   1       1.745   5.623  18.142  0.00  0.00    +0.000 C 
BRANCH  34  35
ATOM     35  CG  PHE A   1       1.764   4.551  19.210  0.00  0.00    +0.000 A 
ATOM     36  CD1 PHE A   1       2.093   4.849  20.541  0.00  0.00    +0.000 A 
ATOM     37  CE1 PHE A   1       2.059   3.853  21.519  0.00  0.00    +0.000 A 
ATOM     38  CZ  PHE A   1       1.683   2.555  21.179  0.00  0.00    +0.000 A 
ATOM     39  CE2 PHE A   1       1.367   2.246  19.857  0.00  0.00    +0.000 A 
ATOM     40  CD2 PHE A   1       1.415   3.237  18.879  0.00  0.00    +0.000 A 
ENDBRANCH  34  35
ENDBRANCH   1  34
TORSDOF 12
ENDMDL
MODEL 7
REMARK VINA RESULT:      -8.0      3.155      4.701
REMARK  Name = 
REMARK  13 active torsions:
REMARK  status: ('A' for Active; 'I' for Inactive)
REMARK    1  A    between atoms: C_1  and  C_2
REMARK    2  A    between atoms: C_8  and  C_9
REMARK    3  A    between atoms: N_11  and  CA_12
REMARK    4  A    between atoms: CA_12  and  CB_13
REMARK    5  A    between atoms: CA_12  and  C_20
REMARK    6  A    between atoms: CB_13  and  CG_14
REMARK    7  A    between atoms: N_22  and  CA_23
REMARK    8  A    between atoms: CA_23  and  CB_24
REMARK    9  A    between atoms: CA_23  and  C_31
REMARK   10  A    between atoms: CB_24  and  CG_25
REMARK   11  A    between atoms: CG_25  and  CD_26
REMARK   12  A    between atoms: CD_26  and  NE_27
REMARK   13  A    between atoms: C_31  and  OXT_33
REMARK                            x       y       z     vdW  Elec       q    Type
REMARK                         _______ _______ _______ _____ _____    ______ ____
ROOT
ATOM      1  CA  PHE A   1       2.865   6.505  18.198  0.00  0.00    +0.000 C 
ENDROOT
BRANCH   1   4
ATOM      2  C   UNK A   0       1.753   8.707  18.630  0.00  0.00    +0.000 C 
ATOM      3  O   UNK A   0       1.485   8.422  19.796  0.00  0.00    +0.000 OA
ATOM      4  N   PHE A   1       2.380   7.826  17.789  0.00  0.00    +0.000 N 
ATOM      5  H   PHE A   1       2.734   8.190  16.907  0.00  0.00    +0.000 HD
BRANCH   2  13
ATOM      6  C   UNK A   0      -2.233  11.463  18.504  0.00  0.00    +0.000 C 
ATOM      7  C   UNK A   0      -1.159  10.483  18.099  0.00  0.00    +0.000 C 
ATOM      8  O   UNK A   0      -1.396   9.601  17.275  0.00  0.00    +0.000 OA
ATOM      9  N   UNK A   0       0.105  10.663  18.624  0.00  0.00    +0.000 N 
ATOM     10  C   UNK A   0       0.549  11.718  19.518  0.00  0.00    +0.000 C 
ATOM     11  C   UNK A   0       1.762  12.283  18.807  0.00  0.00    +0.000 C 
ATOM     12  C   UNK A   0       2.379  11.087  18.082  0.00  0.00    +0.000 C 
ATOM     13  C   UNK A   0       1.267  10.025  17.982  0.00  0.00    +0.000 C 
ENDBRANCH   2  13
ENDBRANCH   1   4
BRANCH   1  14
ATOM     14  C   PHE A   1       4.128   6.199  17.371  0.00  0.00    +0.000 C 
ATOM     15  O   PHE A   1       4.593   7.010  16.567  0.00  0.00    +0.000 OA
ATOM     16  N   ARG A   2       4.724   4.978  17.595  0.00  0.00    +0.000 N 
ATOM     17  H   ARG A   2       4.280   4.287  18.199  0.00  0.00    +0.000 HD
BRANCH  16  18
ATOM     18  CA  ARG A   2       5.829   4.503  16.765  0.00  0.00    +0.000 C 
BRANCH  18  19
ATOM     19  C   ARG A   2       7.148   4.976  17.395  0.00  0.00    +0.000 C 
ATOM     20  O   ARG A   2       7.266   6.063  17.950  0.00  0.00    +0.000 OA
BRANCH  19  21
ATOM     21  OXT ARG A   2       8.179   4.113  17.293  0.00  0.00    +0.000 OA
ATOM     22  HXT ARG A   2       7.945   3.166  17.247  0.00  0.00    +0.000 HD
ENDBRANCH  19  21
ENDBRANCH  18  19
BRANCH  18  23
ATOM     23  CB  ARG A   2       5.643   4.914  15.294  0.00  0.00    +0.000 C 
BRANCH  23  24
ATOM     24  CG  ARG A   2       6.922   4.938  14.442  0.00  0.00    +0.000 C 
BRANCH  24  25
ATOM     25  CD  ARG A   2       6.901   3.930  13.300  0.00  0.00    +0.000 C 
BRANCH  25  26
ATOM     26  NE  ARG A   2       5.584   3.844  12.708  0.00  0.00    +0.000 N 
ATOM     27  CZ  ARG A   2       5.242   2.839  11.871  0.00  0.00    +0.000 C 
ATOM     28  NH1 ARG A   2       5.901   1.779  11.578  0.00  0.00    +0.000 NA
ATOM     29  NH2 ARG A   2       4.044   3.055  11.306  0.00  0.00    +0.000 N 
ATOM     30  HE  ARG A   2       5.234   4.733  12.370  0.00  0.00    +0.000 HD
ATOM     31  HH1 ARG A   2       6.796   1.769  12.068  0.00  0.00    +0.000 HD
ATOM     32 HH21 ARG A   2       3.345   3.335  11.982  0.00  0.00    +0.000 HD
ATOM     33 HH22 ARG A   2       3.754   2.216  10.815  0.00  0.00    +0.000 HD
ENDBRANCH  25  26
ENDBRANCH  24  25
ENDBRANCH  23  24
ENDBRANCH  18  23
ENDBRANCH  16  18
ENDBRANCH   1  14
BRANCH   1  34
ATOM     34  CB  PHE A   1       1.821   5.379  18.058  0.00  0.00    +0.000 C 
BRANCH  34  35
ATOM     35  CG  PHE A   1       1.725   4.438  19.240  0.00  0.00    +0.000 A 
ATOM     36  CD1 PHE A   1       1.210   3.140  19.101  0.00  0.00    +0.000 A 
ATOM     37  CE1 PHE A   1       1.174   2.272  20.194  0.00  0.00    +0.000 A 
ATOM     38  CZ  PHE A   1       1.663   2.688  21.431  0.00  0.00    +0.000 A 
ATOM     39  CE2 PHE A   1       2.164   3.981  21.582  0.00  0.00    +0.000 A 
ATOM     40  CD2 PHE A   1       2.187   4.851  20.494  0.00  0.00    +0.000 A 
ENDBRANCH  34  35
ENDBRANCH   1  34
TORSDOF 12
ENDMDL
MODEL 8
REMARK VINA RESULT:      -7.9      2.116      5.668
REMARK  Name = 
REMARK  13 active torsions:
REMARK  status: ('A' for Active; 'I' for Inactive)
REMARK    1  A    between atoms: C_1  and  C_2
REMARK    2  A    between atoms: C_8  and  C_9
REMARK    3  A    between atoms: N_11  and  CA_12
REMARK    4  A    between atoms: CA_12  and  CB_13
REMARK    5  A    between atoms: CA_12  and  C_20
REMARK    6  A    between atoms: CB_13  and  CG_14
REMARK    7  A    between atoms: N_22  and  CA_23
REMARK    8  A    between atoms: CA_23  and  CB_24
REMARK    9  A    between atoms: CA_23  and  C_31
REMARK   10  A    between atoms: CB_24  and  CG_25
REMARK   11  A    between atoms: CG_25  and  CD_26
REMARK   12  A    between atoms: CD_26  and  NE_27
REMARK   13  A    between atoms: C_31  and  OXT_33
REMARK                            x       y       z     vdW  Elec       q    Type
REMARK                         _______ _______ _______ _____ _____    ______ ____
ROOT
ATOM      1  CA  PHE A   1       3.039   6.600  18.125  0.00  0.00    +0.000 C 
ENDROOT
BRANCH   1   4
ATOM      2  C   UNK A   0       1.898   4.370  18.181  0.00  0.00    +0.000 C 
ATOM      3  O   UNK A   0       1.108   4.674  17.288  0.00  0.00    +0.000 OA
ATOM      4  N   PHE A   1       2.829   5.253  18.663  0.00  0.00    +0.000 N 
ATOM      5  H   PHE A   1       3.562   4.879  19.261  0.00  0.00    +0.000 HD
BRANCH   2  13
ATOM      6  C   UNK A   0       4.845   1.031  20.095  0.00  0.00    +0.000 C 
ATOM      7  C   UNK A   0       3.893   1.726  19.152  0.00  0.00    +0.000 C 
ATOM      8  O   UNK A   0       3.881   1.443  17.955  0.00  0.00    +0.000 OA
ATOM      9  N   UNK A   0       2.995   2.624  19.693  0.00  0.00    +0.000 N 
ATOM     10  C   UNK A   0       2.827   2.972  21.093  0.00  0.00    +0.000 C 
ATOM     11  C   UNK A   0       1.347   2.753  21.327  0.00  0.00    +0.000 C 
ATOM     12  C   UNK A   0       0.687   3.103  19.993  0.00  0.00    +0.000 C 
ATOM     13  C   UNK A   0       1.799   3.020  18.930  0.00  0.00    +0.000 C 
ENDBRANCH   2  13
ENDBRANCH   1   4
BRANCH   1  14
ATOM     14  C   PHE A   1       4.390   6.597  17.386  0.00  0.00    +0.000 C 
ATOM     15  O   PHE A   1       4.472   6.820  16.177  0.00  0.00    +0.000 OA
ATOM     16  N   ARG A   2       5.506   6.353  18.156  0.00  0.00    +0.000 N 
ATOM     17  H   ARG A   2       5.412   6.087  19.136  0.00  0.00    +0.000 HD
BRANCH  16  18
ATOM     18  CA  ARG A   2       6.824   6.165  17.553  0.00  0.00    +0.000 C 
BRANCH  18  19
ATOM     19  C   ARG A   2       7.212   4.684  17.687  0.00  0.00    +0.000 C 
ATOM     20  O   ARG A   2       8.164   4.191  17.092  0.00  0.00    +0.000 OA
BRANCH  19  21
ATOM     21  OXT ARG A   2       6.426   3.952  18.503  0.00  0.00    +0.000 OA
ATOM     22  HXT ARG A   2       6.763   3.806  19.407  0.00  0.00    +0.000 HD
ENDBRANCH  19  21
ENDBRANCH  18  19
BRANCH  18  23
ATOM     23  CB  ARG A   2       7.854   7.148  18.137  0.00  0.00    +0.000 C 
BRANCH  23  24
ATOM     24  CG  ARG A   2       7.817   8.572  17.561  0.00  0.00    +0.000 C 
BRANCH  24  25
ATOM     25  CD  ARG A   2       8.403   9.616  18.503  0.00  0.00    +0.000 C 
BRANCH  25  26
ATOM     26  NE  ARG A   2       9.606  10.197  17.949  0.00  0.00    +0.000 N 
ATOM     27  CZ  ARG A   2       9.934  11.493  18.155  0.00  0.00    +0.000 C 
ATOM     28  NH1 ARG A   2       9.378  12.347  18.932  0.00  0.00    +0.000 NA
ATOM     29  NH2 ARG A   2      10.986  11.859  17.407  0.00  0.00    +0.000 N 
ATOM     30  HE  ARG A   2       9.781   9.928  16.987  0.00  0.00    +0.000 HD
ATOM     31  HH1 ARG A   2       8.584  11.926  19.415  0.00  0.00    +0.000 HD
ATOM     32 HH21 ARG A   2      11.744  11.191  17.456  0.00  0.00    +0.000 HD
ATOM     33 HH22 ARG A   2      11.298  12.778  17.703  0.00  0.00    +0.000 HD
ENDBRANCH  25  26
ENDBRANCH  24  25
ENDBRANCH  23  24
ENDBRANCH  18  23
ENDBRANCH  16  18
ENDBRANCH   1  14
BRANCH   1  34
ATOM     34  CB  PHE A   1       2.985   7.716  19.186  0.00  0.00    +0.000 C 
BRANCH  34  35
ATOM     35  CG  PHE A   1       1.736   8.571  19.161  0.00  0.00    +0.000 A 
ATOM     36  CD1 PHE A   1       1.038   8.883  20.338  0.00  0.00    +0.000 A 
ATOM     37  CE1 PHE A   1      -0.085   9.711  20.297  0.00  0.00    +0.000 A 
ATOM     38  CZ  PHE A   1      -0.513  10.246  19.083  0.00  0.00    +0.000 A 
ATOM     39  CE2 PHE A   1       0.165   9.931  17.907  0.00  0.00    +0.000 A 
ATOM     40  CD2 PHE A   1       1.278   9.092  17.946  0.00  0.00    +0.000 A 
ENDBRANCH  34  35
ENDBRANCH   1  34
TORSDOF 12
ENDMDL
MODEL 9
REMARK VINA RESULT:      -7.9      2.486      3.228
REMARK  Name = 
REMARK  13 active torsions:
REMARK  status: ('A' for Active; 'I' for Inactive)
REMARK    1  A    between atoms: C_1  and  C_2
REMARK    2  A    between atoms: C_8  and  C_9
REMARK    3  A    between atoms: N_11  and  CA_12
REMARK    4  A    between atoms: CA_12  and  CB_13
REMARK    5  A    between atoms: CA_12  and  C_20
REMARK    6  A    between atoms: CB_13  and  CG_14
REMARK    7  A    between atoms: N_22  and  CA_23
REMARK    8  A    between atoms: CA_23  and  CB_24
REMARK    9  A    between atoms: CA_23  and  C_31
REMARK   10  A    between atoms: CB_24  and  CG_25
REMARK   11  A    between atoms: CG_25  and  CD_26
REMARK   12  A    between atoms: CD_26  and  NE_27
REMARK   13  A    between atoms: C_31  and  OXT_33
REMARK                            x       y       z     vdW  Elec       q    Type
REMARK                         _______ _______ _______ _____ _____    ______ ____
ROOT
ATOM      1  CA  PHE A   1       2.171   7.216  19.891  0.00  0.00    +0.000 C 
ENDROOT
BRANCH   1   4
ATOM      2  C   UNK A   0       1.319   9.505  20.449  0.00  0.00    +0.000 C 
ATOM      3  O   UNK A   0       1.403   9.317  21.661  0.00  0.00    +0.000 OA
ATOM      4  N   PHE A   1       1.633   8.532  19.535  0.00  0.00    +0.000 N 
ATOM      5  H   PHE A   1       1.719   8.814  18.562  0.00  0.00    +0.000 HD
BRANCH   2  13
ATOM      6  C   UNK A   0      -2.794  10.985  18.355  0.00  0.00    +0.000 C 
ATOM      7  C   UNK A   0      -1.362  10.548  18.541  0.00  0.00    +0.000 C 
ATOM      8  O   UNK A   0      -0.742  10.028  17.615  0.00  0.00    +0.000 OA
ATOM      9  N   UNK A   0      -0.760  10.822  19.753  0.00  0.00    +0.000 N 
ATOM     10  C   UNK A   0      -1.336  11.520  20.888  0.00  0.00    +0.000 C 
ATOM     11  C   UNK A   0      -0.319  12.604  21.178  0.00  0.00    +0.000 C 
ATOM     12  C   UNK A   0       1.027  11.984  20.801  0.00  0.00    +0.000 C 
ATOM     13  C   UNK A   0       0.708  10.802  19.866  0.00  0.00    +0.000 C 
ENDBRANCH   2  13
ENDBRANCH   1   4
BRANCH   1  14
ATOM     14  C   PHE A   1       2.535   6.496  18.579  0.00  0.00    +0.000 C 
ATOM     15  O   PHE A   1       1.827   6.576  17.573  0.00  0.00    +0.000 OA
ATOM     16  N   ARG A   2       3.708   5.774  18.584  0.00  0.00    +0.000 N 
ATOM     17  H   ARG A   2       4.237   5.650  19.446  0.00  0.00    +0.000 HD
BRANCH  16  18
ATOM     18  CA  ARG A   2       4.084   4.918  17.461  0.00  0.00    +0.000 C 
BRANCH  18  19
ATOM     19  C   ARG A   2       4.434   3.525  18.008  0.00  0.00    +0.000 C 
ATOM     20  O   ARG A   2       3.943   2.495  17.562  0.00  0.00    +0.000 OA
BRANCH  19  21
ATOM     21  OXT ARG A   2       5.320   3.510  19.024  0.00  0.00    +0.000 OA
ATOM     22  HXT ARG A   2       5.995   2.805  18.996  0.00  0.00    +0.000 HD
ENDBRANCH  19  21
ENDBRANCH  18  19
BRANCH  18  23
ATOM     23  CB  ARG A   2       5.190   5.564  16.608  0.00  0.00    +0.000 C 
BRANCH  23  24
ATOM     24  CG  ARG A   2       5.740   6.900  17.131  0.00  0.00    +0.000 C 
BRANCH  24  25
ATOM     25  CD  ARG A   2       7.263   6.952  17.161  0.00  0.00    +0.000 C 
BRANCH  25  26
ATOM     26  NE  ARG A   2       7.765   6.686  18.491  0.00  0.00    +0.000 N 
ATOM     27  CZ  ARG A   2       8.005   5.428  18.925  0.00  0.00    +0.000 C 
ATOM     28  NH1 ARG A   2       7.982   4.332  18.261  0.00  0.00    +0.000 NA
ATOM     29  NH2 ARG A   2       8.292   5.406  20.236  0.00  0.00    +0.000 N 
ATOM     30  HE  ARG A   2       7.314   7.238  19.212  0.00  0.00    +0.000 HD
ATOM     31  HH1 ARG A   2       7.730   4.510  17.288  0.00  0.00    +0.000 HD
ATOM     32 HH21 ARG A   2       8.973   6.108  20.492  0.00  0.00    +0.000 HD
ATOM     33 HH22 ARG A   2       8.618   4.479  20.487  0.00  0.00    +0.000 HD
ENDBRANCH  25  26
ENDBRANCH  24  25
ENDBRANCH  23  24
ENDBRANCH  18  23
ENDBRANCH  16  18
ENDBRANCH   1  14
BRANCH   1  34
ATOM     34  CB  PHE A   1       1.224   6.361  20.754  0.00  0.00    +0.000 C 
BRANCH  34  35
ATOM     35  CG  PHE A   1       1.441   4.865  20.663  0.00  0.00    +0.000 A 
ATOM     36  CD1 PHE A   1       0.745   4.080  19.732  0.00  0.00    +0.000 A 
ATOM     37  CE1 PHE A   1       0.995   2.710  19.634  0.00  0.00    +0.000 A 
ATOM     38  CZ  PHE A   1       1.952   2.115  20.455  0.00  0.00    +0.000 A 
ATOM     39  CE2 PHE A   1       2.639   2.885  21.392  0.00  0.00    +0.000 A 
ATOM     40  CD2 PHE A   1       2.379   4.250  21.499  0.00  0.00    +0.000 A 
ENDBRANCH  34  35
ENDBRANCH   1  34
TORSDOF 12
ENDMDL
