MODEL 1
REMARK VINA RESULT:      -8.1      0.000      0.000
REMARK  Name = 
REMARK  7 active torsions:
REMARK  status: ('A' for Active; 'I' for Inactive)
REMARK    1  A    between atoms: C_1  and  O_2
REMARK    2  A    between atoms: O_2  and  C_3
REMARK    3  A    between atoms: C_3  and  C_5
REMARK    4  A    between atoms: C_14  and  S_15
REMARK    5  A    between atoms: S_15  and  C_18
REMARK    6  A    between atoms: C_23  and  O_24
REMARK    7  A    between atoms: O_24  and  C_25
REMARK                            x       y       z     vdW  Elec       q    Type
REMARK                         _______ _______ _______ _____ _____    ______ ____
ROOT
ATOM      1  C   UNL     1       7.013   5.713  16.722  0.00  0.00    +0.000 A 
ATOM      2  N   UNL     1       7.736   5.894  15.564  0.00  0.00    +0.000 N 
ATOM      3  C   UNL     1       7.213   5.169  14.526  0.00  0.00    +0.000 A 
ATOM      4  C   UNL     1       7.690   5.038  13.216  0.00  0.00    +0.000 A 
ATOM      5  C   UNL     1       6.985   4.201  12.350  0.00  0.00    +0.000 A 
ATOM      6  C   UNL     1       5.829   3.559  12.779  0.00  0.00    +0.000 A 
ATOM      7 CL   UNL     1       4.985   2.528  11.687  0.00  0.00    +0.000 Cl
ATOM      8  C   UNL     1       5.350   3.722  14.084  0.00  0.00    +0.000 A 
ATOM      9  C   UNL     1       6.066   4.527  15.000  0.00  0.00    +0.000 A 
ATOM     10  C   UNL     1       5.946   4.875  16.393  0.00  0.00    +0.000 A 
ATOM     11  H   UNL     1       8.565   6.471  15.508  0.00  0.00    +0.000 HD
ENDROOT
BRANCH  10  12
ATOM     12  S   UNL     1       4.727   4.288  17.503  0.00  0.00    +0.000 S 
ATOM     13  O   UNL     1       3.847   3.491  16.671  0.00  0.00    +0.000 OA
ATOM     14  O   UNL     1       5.521   3.692  18.556  0.00  0.00    +0.000 OA
BRANCH  12  15
ATOM     15  C   UNL     1       3.751   5.624  18.143  0.00  0.00    +0.000 A 
ATOM     16  C   UNL     1       3.704   6.815  17.381  0.00  0.00    +0.000 A 
ATOM     17  C   UNL     1       2.979   7.929  17.799  0.00  0.00    +0.000 A 
ATOM     18  C   UNL     1       2.244   7.863  18.967  0.00  0.00    +0.000 A 
ATOM     19  C   UNL     1       2.252   6.682  19.707  0.00  0.00    +0.000 A 
ATOM     20  C   UNL     1       3.000   5.545  19.327  0.00  0.00    +0.000 A 
BRANCH  20  21
ATOM     21  O   UNL     1       2.801   4.571  20.253  0.00  0.00    +0.000 OA
ATOM     22  C   UNL     1       1.537   4.073  20.633  0.00  0.00    +0.000 C 
ENDBRANCH  20  21
ENDBRANCH  12  15
ENDBRANCH  10  12
BRANCH   1  23
ATOM     23  C   UNL     1       7.373   6.344  17.968  0.00  0.00    +0.000 C 
ATOM     24  O   UNL     1       7.835   5.791  18.954  0.00  0.00    +0.000 OA
BRANCH  23  26
ATOM     25  C   UNL     1       8.133   8.562  17.882  0.00  0.00    +0.000 C 
ATOM     26  O   UNL     1       7.023   7.662  17.909  0.00  0.00    +0.000 OA
ENDBRANCH  23  26
ENDBRANCH   1  23
TORSDOF 5
ENDMDL
MODEL 2
REMARK VINA RESULT:      -7.6      0.601      1.024
REMARK  Name = 
REMARK  7 active torsions:
REMARK  status: ('A' for Active; 'I' for Inactive)
REMARK    1  A    between atoms: C_1  and  O_2
REMARK    2  A    between atoms: O_2  and  C_3
REMARK    3  A    between atoms: C_3  and  C_5
REMARK    4  A    between atoms: C_14  and  S_15
REMARK    5  A    between atoms: S_15  and  C_18
REMARK    6  A    between atoms: C_23  and  O_24
REMARK    7  A    between atoms: O_24  and  C_25
REMARK                            x       y       z     vdW  Elec       q    Type
REMARK                         _______ _______ _______ _____ _____    ______ ____
ROOT
ATOM      1  C   UNL     1       7.005   5.549  16.590  0.00  0.00    +0.000 A 
ATOM      2  N   UNL     1       7.717   5.724  15.424  0.00  0.00    +0.000 N 
ATOM      3  C   UNL     1       7.137   5.059  14.376  0.00  0.00    +0.000 A 
ATOM      4  C   UNL     1       7.584   4.940  13.054  0.00  0.00    +0.000 A 
ATOM      5  C   UNL     1       6.819   4.169  12.179  0.00  0.00    +0.000 A 
ATOM      6  C   UNL     1       5.638   3.577  12.611  0.00  0.00    +0.000 A 
ATOM      7 CL   UNL     1       4.721   2.625  11.506  0.00  0.00    +0.000 Cl
ATOM      8  C   UNL     1       5.192   3.728  13.929  0.00  0.00    +0.000 A 
ATOM      9  C   UNL     1       5.966   4.466  14.853  0.00  0.00    +0.000 A 
ATOM     10  C   UNL     1       5.889   4.780  16.257  0.00  0.00    +0.000 A 
ATOM     11  H   UNL     1       8.575   6.257  15.368  0.00  0.00    +0.000 HD
ENDROOT
BRANCH  10  12
ATOM     12  S   UNL     1       4.660   4.227  17.373  0.00  0.00    +0.000 S 
ATOM     13  O   UNL     1       3.737   3.481  16.540  0.00  0.00    +0.000 OA
ATOM     14  O   UNL     1       5.440   3.581  18.407  0.00  0.00    +0.000 OA
BRANCH  12  15
ATOM     15  C   UNL     1       3.749   5.592  18.046  0.00  0.00    +0.000 A 
ATOM     16  C   UNL     1       3.696   6.778  17.277  0.00  0.00    +0.000 A 
ATOM     17  C   UNL     1       3.021   7.914  17.718  0.00  0.00    +0.000 A 
ATOM     18  C   UNL     1       2.339   7.875  18.919  0.00  0.00    +0.000 A 
ATOM     19  C   UNL     1       2.351   6.700  19.668  0.00  0.00    +0.000 A 
ATOM     20  C   UNL     1       3.052   5.542  19.264  0.00  0.00    +0.000 A 
BRANCH  20  21
ATOM     21  O   UNL     1       2.871   4.580  20.207  0.00  0.00    +0.000 OA
ATOM     22  C   UNL     1       2.019   3.465  20.061  0.00  0.00    +0.000 C 
ENDBRANCH  20  21
ENDBRANCH  12  15
ENDBRANCH  10  12
BRANCH   1  23
ATOM     23  C   UNL     1       7.421   6.124  17.846  0.00  0.00    +0.000 C 
ATOM     24  O   UNL     1       7.426   7.310  18.134  0.00  0.00    +0.000 OA
BRANCH  23  26
ATOM     25  C   UNL     1       8.168   5.531  19.989  0.00  0.00    +0.000 C 
ATOM     26  O   UNL     1       7.907   5.128  18.643  0.00  0.00    +0.000 OA
ENDBRANCH  23  26
ENDBRANCH   1  23
TORSDOF 5
ENDMDL
MODEL 3
REMARK VINA RESULT:      -7.4      2.999      5.362
REMARK  Name = 
REMARK  7 active torsions:
REMARK  status: ('A' for Active; 'I' for Inactive)
REMARK    1  A    between atoms: C_1  and  O_2
REMARK    2  A    between atoms: O_2  and  C_3
REMARK    3  A    between atoms: C_3  and  C_5
REMARK    4  A    between atoms: C_14  and  S_15
REMARK    5  A    between atoms: S_15  and  C_18
REMARK    6  A    between atoms: C_23  and  O_24
REMARK    7  A    between atoms: O_24  and  C_25
REMARK                            x       y       z     vdW  Elec       q    Type
REMARK                         _______ _______ _______ _____ _____    ______ ____
ROOT
ATOM      1  C   UNL     1       4.978   6.004  16.730  0.00  0.00    +0.000 A 
ATOM      2  N   UNL     1       4.481   7.282  16.600  0.00  0.00    +0.000 N 
ATOM      3  C   UNL     1       3.576   7.572  17.587  0.00  0.00    +0.000 A 
ATOM      4  C   UNL     1       2.812   8.732  17.767  0.00  0.00    +0.000 A 
ATOM      5  C   UNL     1       1.927   8.764  18.844  0.00  0.00    +0.000 A 
ATOM      6  C   UNL     1       1.846   7.688  19.721  0.00  0.00    +0.000 A 
ATOM      7 CL   UNL     1       0.737   7.757  21.038  0.00  0.00    +0.000 Cl
ATOM      8  C   UNL     1       2.636   6.546  19.542  0.00  0.00    +0.000 A 
ATOM      9  C   UNL     1       3.512   6.464  18.434  0.00  0.00    +0.000 A 
ATOM     10  C   UNL     1       4.401   5.473  17.885  0.00  0.00    +0.000 A 
ATOM     11  H   UNL     1       4.741   7.909  15.850  0.00  0.00    +0.000 HD
ENDROOT
BRANCH  10  12
ATOM     12  S   UNL     1       4.656   3.856  18.504  0.00  0.00    +0.000 S 
ATOM     13  O   UNL     1       4.648   3.019  17.321  0.00  0.00    +0.000 OA
ATOM     14  O   UNL     1       5.846   4.013  19.314  0.00  0.00    +0.000 OA
BRANCH  12  15
ATOM     15  C   UNL     1       3.289   3.335  19.507  0.00  0.00    +0.000 A 
ATOM     16  C   UNL     1       3.518   3.207  20.898  0.00  0.00    +0.000 A 
ATOM     17  C   UNL     1       2.517   2.791  21.774  0.00  0.00    +0.000 A 
ATOM     18  C   UNL     1       1.249   2.539  21.287  0.00  0.00    +0.000 A 
ATOM     19  C   UNL     1       1.002   2.697  19.924  0.00  0.00    +0.000 A 
ATOM     20  C   UNL     1       2.001   3.088  19.006  0.00  0.00    +0.000 A 
BRANCH  20  21
ATOM     21  O   UNL     1       1.446   3.145  17.767  0.00  0.00    +0.000 OA
ATOM     22  C   UNL     1       0.998   4.329  17.144  0.00  0.00    +0.000 C 
ENDBRANCH  20  21
ENDBRANCH  12  15
ENDBRANCH  10  12
BRANCH   1  23
ATOM     23  C   UNL     1       5.928   5.443  15.800  0.00  0.00    +0.000 C 
ATOM     24  O   UNL     1       7.142   5.563  15.844  0.00  0.00    +0.000 OA
BRANCH  23  26
ATOM     25  C   UNL     1       6.045   3.966  13.982  0.00  0.00    +0.000 C 
ATOM     26  O   UNL     1       5.244   4.828  14.792  0.00  0.00    +0.000 OA
ENDBRANCH  23  26
ENDBRANCH   1  23
TORSDOF 5
ENDMDL
MODEL 4
REMARK VINA RESULT:      -7.2      3.142      6.721
REMARK  Name = 
REMARK  7 active torsions:
REMARK  status: ('A' for Active; 'I' for Inactive)
REMARK    1  A    between atoms: C_1  and  O_2
REMARK    2  A    between atoms: O_2  and  C_3
REMARK    3  A    between atoms: C_3  and  C_5
REMARK    4  A    between atoms: C_14  and  S_15
REMARK    5  A    between atoms: S_15  and  C_18
REMARK    6  A    between atoms: C_23  and  O_24
REMARK    7  A    between atoms: O_24  and  C_25
REMARK                            x       y       z     vdW  Elec       q    Type
REMARK                         _______ _______ _______ _____ _____    ______ ____
ROOT
ATOM      1  C   UNL     1       2.319   4.165  20.469  0.00  0.00    +0.000 A 
ATOM      2  N   UNL     1       1.531   5.111  21.085  0.00  0.00    +0.000 N 
ATOM      3  C   UNL     1       1.612   6.323  20.450  0.00  0.00    +0.000 A 
ATOM      4  C   UNL     1       1.015   7.541  20.800  0.00  0.00    +0.000 A 
ATOM      5  C   UNL     1       1.288   8.649  19.999  0.00  0.00    +0.000 A 
ATOM      6  C   UNL     1       2.095   8.524  18.874  0.00  0.00    +0.000 A 
ATOM      7 CL   UNL     1       2.418   9.914  17.909  0.00  0.00    +0.000 Cl
ATOM      8  C   UNL     1       2.663   7.293  18.523  0.00  0.00    +0.000 A 
ATOM      9  C   UNL     1       2.443   6.159  19.340  0.00  0.00    +0.000 A 
ATOM     10  C   UNL     1       2.888   4.789  19.358  0.00  0.00    +0.000 A 
ATOM     11  H   UNL     1       0.986   4.929  21.917  0.00  0.00    +0.000 HD
ENDROOT
BRANCH  10  12
ATOM     12  S   UNL     1       4.012   4.054  18.236  0.00  0.00    +0.000 S 
ATOM     13  O   UNL     1       4.434   2.838  18.904  0.00  0.00    +0.000 OA
ATOM     14  O   UNL     1       3.250   4.018  17.006  0.00  0.00    +0.000 OA
BRANCH  12  15
ATOM     15  C   UNL     1       5.462   5.055  18.036  0.00  0.00    +0.000 A 
ATOM     16  C   UNL     1       6.278   5.248  19.176  0.00  0.00    +0.000 A 
ATOM     17  C   UNL     1       7.432   6.028  19.133  0.00  0.00    +0.000 A 
ATOM     18  C   UNL     1       7.825   6.595  17.936  0.00  0.00    +0.000 A 
ATOM     19  C   UNL     1       7.049   6.381  16.798  0.00  0.00    +0.000 A 
ATOM     20  C   UNL     1       5.859   5.621  16.814  0.00  0.00    +0.000 A 
BRANCH  20  21
ATOM     21  O   UNL     1       5.341   5.608  15.558  0.00  0.00    +0.000 OA
ATOM     22  C   UNL     1       5.670   4.660  14.567  0.00  0.00    +0.000 C 
ENDBRANCH  20  21
ENDBRANCH  12  15
ENDBRANCH  10  12
BRANCH   1  23
ATOM     23  C   UNL     1       2.432   2.813  20.958  0.00  0.00    +0.000 C 
ATOM     24  O   UNL     1       3.009   2.455  21.973  0.00  0.00    +0.000 OA
BRANCH  23  26
ATOM     25  C   UNL     1       0.701   2.491  19.408  0.00  0.00    +0.000 C 
ATOM     26  O   UNL     1       1.868   1.968  20.047  0.00  0.00    +0.000 OA
ENDBRANCH  23  26
ENDBRANCH   1  23
TORSDOF 5
ENDMDL
MODEL 5
REMARK VINA RESULT:      -7.1      1.258      1.414
REMARK  Name = 
REMARK  7 active torsions:
REMARK  status: ('A' for Active; 'I' for Inactive)
REMARK    1  A    between atoms: C_1  and  O_2
REMARK    2  A    between atoms: O_2  and  C_3
REMARK    3  A    between atoms: C_3  and  C_5
REMARK    4  A    between atoms: C_14  and  S_15
REMARK    5  A    between atoms: S_15  and  C_18
REMARK    6  A    between atoms: C_23  and  O_24
REMARK    7  A    between atoms: O_24  and  C_25
REMARK                            x       y       z     vdW  Elec       q    Type
REMARK                         _______ _______ _______ _____ _____    ______ ____
ROOT
ATOM      1  C   UNL     1       6.361   4.606  17.366  0.00  0.00    +0.000 A 
ATOM      2  N   UNL     1       7.274   4.890  16.374  0.00  0.00    +0.000 N 
ATOM      3  C   UNL     1       6.784   4.571  15.135  0.00  0.00    +0.000 A 
ATOM      4  C   UNL     1       7.421   4.651  13.890  0.00  0.00    +0.000 A 
ATOM      5  C   UNL     1       6.707   4.227  12.769  0.00  0.00    +0.000 A 
ATOM      6  C   UNL     1       5.397   3.779  12.896  0.00  0.00    +0.000 A 
ATOM      7 CL   UNL     1       4.546   3.256  11.493  0.00  0.00    +0.000 Cl
ATOM      8  C   UNL     1       4.766   3.730  14.145  0.00  0.00    +0.000 A 
ATOM      9  C   UNL     1       5.477   4.111  15.307  0.00  0.00    +0.000 A 
ATOM     10  C   UNL     1       5.215   4.135  16.724  0.00  0.00    +0.000 A 
ATOM     11  H   UNL     1       8.197   5.261  16.554  0.00  0.00    +0.000 HD
ENDROOT
BRANCH  10  12
ATOM     12  S   UNL     1       3.752   3.591  17.514  0.00  0.00    +0.000 S 
ATOM     13  O   UNL     1       2.825   3.363  16.422  0.00  0.00    +0.000 OA
ATOM     14  O   UNL     1       4.226   2.505  18.345  0.00  0.00    +0.000 OA
BRANCH  12  15
ATOM     15  C   UNL     1       3.052   4.877  18.515  0.00  0.00    +0.000 A 
ATOM     16  C   UNL     1       3.183   6.206  18.048  0.00  0.00    +0.000 A 
ATOM     17  C   UNL     1       2.683   7.292  18.763  0.00  0.00    +0.000 A 
ATOM     18  C   UNL     1       1.995   7.071  19.941  0.00  0.00    +0.000 A 
ATOM     19  C   UNL     1       1.826   5.763  20.392  0.00  0.00    +0.000 A 
ATOM     20  C   UNL     1       2.347   4.643  19.707  0.00  0.00    +0.000 A 
BRANCH  20  21
ATOM     21  O   UNL     1       2.017   3.523  20.402  0.00  0.00    +0.000 OA
ATOM     22  C   UNL     1       2.133   3.387  21.801  0.00  0.00    +0.000 C 
ENDBRANCH  20  21
ENDBRANCH  12  15
ENDBRANCH  10  12
BRANCH   1  23
ATOM     23  C   UNL     1       6.643   4.824  18.764  0.00  0.00    +0.000 C 
ATOM     24  O   UNL     1       5.831   4.825  19.676  0.00  0.00    +0.000 OA
BRANCH  23  26
ATOM     25  C   UNL     1       8.222   6.503  19.199  0.00  0.00    +0.000 C 
ATOM     26  O   UNL     1       7.966   5.129  18.902  0.00  0.00    +0.000 OA
ENDBRANCH  23  26
ENDBRANCH   1  23
TORSDOF 5
ENDMDL
MODEL 6
REMARK VINA RESULT:      -7.0      3.027      5.334
REMARK  Name = 
REMARK  7 active torsions:
REMARK  status: ('A' for Active; 'I' for Inactive)
REMARK    1  A    between atoms: C_1  and  O_2
REMARK    2  A    between atoms: O_2  and  C_3
REMARK    3  A    between atoms: C_3  and  C_5
REMARK    4  A    between atoms: C_14  and  S_15
REMARK    5  A    between atoms: S_15  and  C_18
REMARK    6  A    between atoms: C_23  and  O_24
REMARK    7  A    between atoms: O_24  and  C_25
REMARK                            x       y       z     vdW  Elec       q    Type
REMARK                         _______ _______ _______ _____ _____    ______ ____
ROOT
ATOM      1  C   UNL     1       4.958   6.002  16.606  0.00  0.00    +0.000 A 
ATOM      2  N   UNL     1       4.469   7.285  16.502  0.00  0.00    +0.000 N 
ATOM      3  C   UNL     1       3.586   7.569  17.510  0.00  0.00    +0.000 A 
ATOM      4  C   UNL     1       2.834   8.732  17.720  0.00  0.00    +0.000 A 
ATOM      5  C   UNL     1       1.971   8.757  18.815  0.00  0.00    +0.000 A 
ATOM      6  C   UNL     1       1.899   7.671  19.680  0.00  0.00    +0.000 A 
ATOM      7 CL   UNL     1       0.818   7.732  21.019  0.00  0.00    +0.000 Cl
ATOM      8  C   UNL     1       2.677   6.526  19.471  0.00  0.00    +0.000 A 
ATOM      9  C   UNL     1       3.530   6.451  18.345  0.00  0.00    +0.000 A 
ATOM     10  C   UNL     1       4.401   5.461  17.766  0.00  0.00    +0.000 A 
ATOM     11  H   UNL     1       4.718   7.918  15.754  0.00  0.00    +0.000 HD
ENDROOT
BRANCH  10  12
ATOM     12  S   UNL     1       4.656   3.835  18.361  0.00  0.00    +0.000 S 
ATOM     13  O   UNL     1       4.491   3.000  17.187  0.00  0.00    +0.000 OA
ATOM     14  O   UNL     1       5.929   3.944  19.042  0.00  0.00    +0.000 OA
BRANCH  12  15
ATOM     15  C   UNL     1       3.382   3.366  19.503  0.00  0.00    +0.000 A 
ATOM     16  C   UNL     1       2.050   3.693  19.156  0.00  0.00    +0.000 A 
ATOM     17  C   UNL     1       0.975   3.384  19.987  0.00  0.00    +0.000 A 
ATOM     18  C   UNL     1       1.202   2.696  21.164  0.00  0.00    +0.000 A 
ATOM     19  C   UNL     1       2.506   2.335  21.498  0.00  0.00    +0.000 A 
ATOM     20  C   UNL     1       3.620   2.659  20.692  0.00  0.00    +0.000 A 
BRANCH  20  21
ATOM     21  O   UNL     1       4.739   2.175  21.292  0.00  0.00    +0.000 OA
ATOM     22  C   UNL     1       5.330   0.929  20.996  0.00  0.00    +0.000 C 
ENDBRANCH  20  21
ENDBRANCH  12  15
ENDBRANCH  10  12
BRANCH   1  23
ATOM     23  C   UNL     1       5.885   5.445  15.651  0.00  0.00    +0.000 C 
ATOM     24  O   UNL     1       7.097   5.600  15.642  0.00  0.00    +0.000 OA
BRANCH  23  26
ATOM     25  C   UNL     1       5.971   3.932  13.861  0.00  0.00    +0.000 C 
ATOM     26  O   UNL     1       5.179   4.788  14.687  0.00  0.00    +0.000 OA
ENDBRANCH  23  26
ENDBRANCH   1  23
TORSDOF 5
ENDMDL
MODEL 7
REMARK VINA RESULT:      -6.9      3.033      6.420
REMARK  Name = 
REMARK  7 active torsions:
REMARK  status: ('A' for Active; 'I' for Inactive)
REMARK    1  A    between atoms: C_1  and  O_2
REMARK    2  A    between atoms: O_2  and  C_3
REMARK    3  A    between atoms: C_3  and  C_5
REMARK    4  A    between atoms: C_14  and  S_15
REMARK    5  A    between atoms: S_15  and  C_18
REMARK    6  A    between atoms: C_23  and  O_24
REMARK    7  A    between atoms: O_24  and  C_25
REMARK                            x       y       z     vdW  Elec       q    Type
REMARK                         _______ _______ _______ _____ _____    ______ ____
ROOT
ATOM      1  C   UNL     1       2.640   3.884  20.342  0.00  0.00    +0.000 A 
ATOM      2  N   UNL     1       2.179   4.940  21.097  0.00  0.00    +0.000 N 
ATOM      3  C   UNL     1       2.122   6.095  20.362  0.00  0.00    +0.000 A 
ATOM      4  C   UNL     1       1.768   7.385  20.778  0.00  0.00    +0.000 A 
ATOM      5  C   UNL     1       1.826   8.409  19.832  0.00  0.00    +0.000 A 
ATOM      6  C   UNL     1       2.188   8.134  18.518  0.00  0.00    +0.000 A 
ATOM      7 CL   UNL     1       2.256   9.422  17.377  0.00  0.00    +0.000 Cl
ATOM      8  C   UNL     1       2.513   6.834  18.113  0.00  0.00    +0.000 A 
ATOM      9  C   UNL     1       2.508   5.781  19.057  0.00  0.00    +0.000 A 
ATOM     10  C   UNL     1       2.836   4.378  19.052  0.00  0.00    +0.000 A 
ATOM     11  H   UNL     1       1.942   4.864  22.077  0.00  0.00    +0.000 HD
ENDROOT
BRANCH  10  12
ATOM     12  S   UNL     1       3.451   3.467  17.690  0.00  0.00    +0.000 S 
ATOM     13  O   UNL     1       3.922   2.228  18.278  0.00  0.00    +0.000 OA
ATOM     14  O   UNL     1       2.339   3.493  16.765  0.00  0.00    +0.000 OA
BRANCH  12  15
ATOM     15  C   UNL     1       4.867   4.263  16.977  0.00  0.00    +0.000 A 
ATOM     16  C   UNL     1       4.844   4.500  15.583  0.00  0.00    +0.000 A 
ATOM     17  C   UNL     1       5.909   5.105  14.920  0.00  0.00    +0.000 A 
ATOM     18  C   UNL     1       7.005   5.534  15.644  0.00  0.00    +0.000 A 
ATOM     19  C   UNL     1       7.023   5.340  17.024  0.00  0.00    +0.000 A 
ATOM     20  C   UNL     1       5.973   4.703  17.722  0.00  0.00    +0.000 A 
BRANCH  20  21
ATOM     21  O   UNL     1       6.295   4.666  19.041  0.00  0.00    +0.000 OA
ATOM     22  C   UNL     1       7.251   5.503  19.656  0.00  0.00    +0.000 C 
ENDBRANCH  20  21
ENDBRANCH  12  15
ENDBRANCH  10  12
BRANCH   1  23
ATOM     23  C   UNL     1       2.819   2.561  20.888  0.00  0.00    +0.000 C 
ATOM     24  O   UNL     1       3.746   2.185  21.589  0.00  0.00    +0.000 OA
BRANCH  23  26
ATOM     25  C   UNL     1       0.662   2.453  19.973  0.00  0.00    +0.000 C 
ATOM     26  O   UNL     1       1.828   1.753  20.413  0.00  0.00    +0.000 OA
ENDBRANCH  23  26
ENDBRANCH   1  23
TORSDOF 5
ENDMDL
MODEL 8
REMARK VINA RESULT:      -6.8      3.058      6.359
REMARK  Name = 
REMARK  7 active torsions:
REMARK  status: ('A' for Active; 'I' for Inactive)
REMARK    1  A    between atoms: C_1  and  O_2
REMARK    2  A    between atoms: O_2  and  C_3
REMARK    3  A    between atoms: C_3  and  C_5
REMARK    4  A    between atoms: C_14  and  S_15
REMARK    5  A    between atoms: S_15  and  C_18
REMARK    6  A    between atoms: C_23  and  O_24
REMARK    7  A    between atoms: O_24  and  C_25
REMARK                            x       y       z     vdW  Elec       q    Type
REMARK                         _______ _______ _______ _____ _____    ______ ____
ROOT
ATOM      1  C   UNL     1       2.562   3.851  20.265  0.00  0.00    +0.000 A 
ATOM      2  N   UNL     1       2.143   4.889  21.067  0.00  0.00    +0.000 N 
ATOM      3  C   UNL     1       2.073   6.066  20.370  0.00  0.00    +0.000 A 
ATOM      4  C   UNL     1       1.752   7.347  20.837  0.00  0.00    +0.000 A 
ATOM      5  C   UNL     1       1.786   8.398  19.920  0.00  0.00    +0.000 A 
ATOM      6  C   UNL     1       2.094   8.158  18.586  0.00  0.00    +0.000 A 
ATOM      7 CL   UNL     1       2.135   9.480  17.481  0.00  0.00    +0.000 Cl
ATOM      8  C   UNL     1       2.387   6.867  18.130  0.00  0.00    +0.000 A 
ATOM      9  C   UNL     1       2.404   5.787  19.042  0.00  0.00    +0.000 A 
ATOM     10  C   UNL     1       2.714   4.381  18.983  0.00  0.00    +0.000 A 
ATOM     11  H   UNL     1       1.942   4.786  22.053  0.00  0.00    +0.000 HD
ENDROOT
BRANCH  10  12
ATOM     12  S   UNL     1       3.266   3.504  17.572  0.00  0.00    +0.000 S 
ATOM     13  O   UNL     1       3.634   2.201  18.089  0.00  0.00    +0.000 OA
ATOM     14  O   UNL     1       2.165   3.670  16.647  0.00  0.00    +0.000 OA
BRANCH  12  15
ATOM     15  C   UNL     1       4.744   4.227  16.910  0.00  0.00    +0.000 A 
ATOM     16  C   UNL     1       4.800   4.419  15.509  0.00  0.00    +0.000 A 
ATOM     17  C   UNL     1       5.919   4.965  14.884  0.00  0.00    +0.000 A 
ATOM     18  C   UNL     1       6.992   5.378  15.651  0.00  0.00    +0.000 A 
ATOM     19  C   UNL     1       6.934   5.228  17.035  0.00  0.00    +0.000 A 
ATOM     20  C   UNL     1       5.827   4.651  17.697  0.00  0.00    +0.000 A 
BRANCH  20  21
ATOM     21  O   UNL     1       6.081   4.645  19.031  0.00  0.00    +0.000 OA
ATOM     22  C   UNL     1       7.093   5.404  19.657  0.00  0.00    +0.000 C 
ENDBRANCH  20  21
ENDBRANCH  12  15
ENDBRANCH  10  12
BRANCH   1  23
ATOM     23  C   UNL     1       2.745   2.510  20.764  0.00  0.00    +0.000 C 
ATOM     24  O   UNL     1       1.937   1.597  20.703  0.00  0.00    +0.000 OA
BRANCH  23  26
ATOM     25  C   UNL     1       4.864   1.508  20.846  0.00  0.00    +0.000 C 
ATOM     26  O   UNL     1       3.944   2.444  21.411  0.00  0.00    +0.000 OA
ENDBRANCH  23  26
ENDBRANCH   1  23
TORSDOF 5
ENDMDL
MODEL 9
REMARK VINA RESULT:      -6.8      3.358      6.945
REMARK  Name = 
REMARK  7 active torsions:
REMARK  status: ('A' for Active; 'I' for Inactive)
REMARK    1  A    between atoms: C_1  and  O_2
REMARK    2  A    between atoms: O_2  and  C_3
REMARK    3  A    between atoms: C_3  and  C_5
REMARK    4  A    between atoms: C_14  and  S_15
REMARK    5  A    between atoms: S_15  and  C_18
REMARK    6  A    between atoms: C_23  and  O_24
REMARK    7  A    between atoms: O_24  and  C_25
REMARK                            x       y       z     vdW  Elec       q    Type
REMARK                         _______ _______ _______ _____ _____    ______ ____
ROOT
ATOM      1  C   UNL     1       2.661   5.009  20.014  0.00  0.00    +0.000 A 
ATOM      2  N   UNL     1       1.921   5.706  20.943  0.00  0.00    +0.000 N 
ATOM      3  C   UNL     1       1.704   6.999  20.545  0.00  0.00    +0.000 A 
ATOM      4  C   UNL     1       1.055   8.033  21.230  0.00  0.00    +0.000 A 
ATOM      5  C   UNL     1       0.997   9.283  20.613  0.00  0.00    +0.000 A 
ATOM      6  C   UNL     1       1.538   9.468  19.346  0.00  0.00    +0.000 A 
ATOM      7 CL   UNL     1       1.457  11.026  18.616  0.00  0.00    +0.000 Cl
ATOM      8  C   UNL     1       2.161   8.417  18.663  0.00  0.00    +0.000 A 
ATOM      9  C   UNL     1       2.275   7.148  19.279  0.00  0.00    +0.000 A 
ATOM     10  C   UNL     1       2.881   5.884  18.949  0.00  0.00    +0.000 A 
ATOM     11  H   UNL     1       1.606   5.309  21.818  0.00  0.00    +0.000 HD
ENDROOT
BRANCH  10  12
ATOM     12  S   UNL     1       3.803   5.526  17.505  0.00  0.00    +0.000 S 
ATOM     13  O   UNL     1       3.290   4.243  17.067  0.00  0.00    +0.000 OA
ATOM     14  O   UNL     1       3.627   6.725  16.714  0.00  0.00    +0.000 OA
BRANCH  12  15
ATOM     15  C   UNL     1       5.519   5.284  17.888  0.00  0.00    +0.000 A 
ATOM     16  C   UNL     1       5.984   5.791  19.124  0.00  0.00    +0.000 A 
ATOM     17  C   UNL     1       7.315   5.668  19.517  0.00  0.00    +0.000 A 
ATOM     18  C   UNL     1       8.204   4.991  18.704  0.00  0.00    +0.000 A 
ATOM     19  C   UNL     1       7.749   4.454  17.501  0.00  0.00    +0.000 A 
ATOM     20  C   UNL     1       6.413   4.588  17.060  0.00  0.00    +0.000 A 
BRANCH  20  21
ATOM     21  O   UNL     1       6.294   3.964  15.859  0.00  0.00    +0.000 OA
ATOM     22  C   UNL     1       6.739   4.499  14.631  0.00  0.00    +0.000 C 
ENDBRANCH  20  21
ENDBRANCH  12  15
ENDBRANCH  10  12
BRANCH   1  23
ATOM     23  C   UNL     1       3.050   3.633  20.207  0.00  0.00    +0.000 C 
ATOM     24  O   UNL     1       4.189   3.193  20.188  0.00  0.00    +0.000 OA
BRANCH  23  26
ATOM     25  C   UNL     1       1.623   2.466  21.656  0.00  0.00    +0.000 C 
ATOM     26  O   UNL     1       1.924   2.871  20.320  0.00  0.00    +0.000 OA
ENDBRANCH  23  26
ENDBRANCH   1  23
TORSDOF 5
ENDMDL
