MODEL 1
REMARK VINA RESULT:      -8.5      0.000      0.000
REMARK  Name = 
REMARK  7 active torsions:
REMARK  status: ('A' for Active; 'I' for Inactive)
REMARK    1  A    between atoms: C_1  and  C_2
REMARK    2  A    between atoms: C_3  and  C_4
REMARK    3  A    between atoms: C_4  and  C_6
REMARK    4  A    between atoms: C_13  and  N_14
REMARK    5  A    between atoms: C_17  and  O_18
REMARK    6  A    between atoms: O_18  and  C_19
REMARK    7  A    between atoms: C_19  and  C_20
REMARK                            x       y       z     vdW  Elec       q    Type
REMARK                         _______ _______ _______ _____ _____    ______ ____
ROOT
ATOM      1  N   UNL     1       0.527   9.848  20.854  0.00  0.00    +0.000 N 
ATOM      2  C   UNL     1       0.772  11.201  20.659  0.00  0.00    +0.000 A 
ATOM      3  C   UNL     1       0.217  12.144  21.425  0.00  0.00    +0.000 A 
ATOM      4  C   UNL     1      -0.714  11.785  22.466  0.00  0.00    +0.000 A 
ATOM      5  C   UNL     1      -1.007  10.496  22.673  0.00  0.00    +0.000 A 
ATOM      6  C   UNL     1      -0.389   9.423  21.843  0.00  0.00    +0.000 A 
ATOM      7  O   UNL     1      -0.693   8.261  22.104  0.00  0.00    +0.000 OA
ENDROOT
BRANCH   1  15
ATOM      8  C   UNL     1       2.562   4.871  21.108  0.00  0.00    +0.000 C 
ATOM      9  C   UNL     1       2.833   5.606  19.847  0.00  0.00    +0.000 A 
ATOM     10  C   UNL     1       3.544   5.259  18.701  0.00  0.00    +0.000 A 
ATOM     11  N   UNL     1       3.484   6.293  17.778  0.00  0.00    +0.000 NA
ATOM     12  C   UNL     1       2.778   7.245  18.347  0.00  0.00    +0.000 A 
ATOM     13  C   UNL     1       2.410   8.537  17.893  0.00  0.00    +0.000 A 
ATOM     14  C   UNL     1       1.691   9.350  18.690  0.00  0.00    +0.000 A 
ATOM     15  C   UNL     1       1.245   8.955  20.042  0.00  0.00    +0.000 A 
ATOM     16  C   UNL     1       1.620   7.723  20.453  0.00  0.00    +0.000 A 
ATOM     17  N   UNL     1       2.365   6.886  19.621  0.00  0.00    +0.000 N 
BRANCH  10  18
ATOM     18  C   UNL     1       4.260   4.003  18.459  0.00  0.00    +0.000 C 
ATOM     19  O   UNL     1       5.388   3.766  18.888  0.00  0.00    +0.000 OA
BRANCH  18  20
ATOM     20  C   UNL     1       3.529   2.963  17.668  0.00  0.00    +0.000 C 
ATOM     21  C   UNL     1       2.821   1.821  18.369  0.00  0.00    +0.000 C 
ATOM     22  C   UNL     1       2.017   2.919  17.738  0.00  0.00    +0.000 C 
ENDBRANCH  18  20
ENDBRANCH  10  18
ENDBRANCH   1  15
BRANCH   4  23
ATOM     23  O   UNL     1      -1.308  12.763  23.240  0.00  0.00    +0.000 OA
BRANCH  23  24
ATOM     24  C   UNL     1      -2.229  13.633  22.578  0.00  0.00    +0.000 C 
BRANCH  24  25
ATOM     25  C   UNL     1      -3.634  13.320  23.014  0.00  0.00    +0.000 A 
ATOM     26  C   UNL     1      -4.726  13.631  22.190  0.00  0.00    +0.000 A 
ATOM     27  C   UNL     1      -6.023  13.331  22.604  0.00  0.00    +0.000 A 
ATOM     28  C   UNL     1      -6.226  12.720  23.837  0.00  0.00    +0.000 A 
ATOM     29  F   UNL     1      -7.473  12.441  24.237  0.00  0.00    +0.000 F 
ATOM     30  C   UNL     1      -5.157  12.395  24.662  0.00  0.00    +0.000 A 
ATOM     31  C   UNL     1      -3.860  12.694  24.251  0.00  0.00    +0.000 A 
ENDBRANCH  24  25
ENDBRANCH  23  24
ENDBRANCH   4  23
TORSDOF 6
ENDMDL
MODEL 2
REMARK VINA RESULT:      -8.3      1.283      1.465
REMARK  Name = 
REMARK  7 active torsions:
REMARK  status: ('A' for Active; 'I' for Inactive)
REMARK    1  A    between atoms: C_1  and  C_2
REMARK    2  A    between atoms: C_3  and  C_4
REMARK    3  A    between atoms: C_4  and  C_6
REMARK    4  A    between atoms: C_13  and  N_14
REMARK    5  A    between atoms: C_17  and  O_18
REMARK    6  A    between atoms: O_18  and  C_19
REMARK    7  A    between atoms: C_19  and  C_20
REMARK                            x       y       z     vdW  Elec       q    Type
REMARK                         _______ _______ _______ _____ _____    ______ ____
ROOT
ATOM      1  N   UNL     1       0.496   9.997  19.636  0.00  0.00    +0.000 N 
ATOM      2  C   UNL     1       0.801  10.558  20.868  0.00  0.00    +0.000 A 
ATOM      3  C   UNL     1       0.027  11.484  21.441  0.00  0.00    +0.000 A 
ATOM      4  C   UNL     1      -1.143  11.979  20.761  0.00  0.00    +0.000 A 
ATOM      5  C   UNL     1      -1.463  11.492  19.557  0.00  0.00    +0.000 A 
ATOM      6  C   UNL     1      -0.626  10.446  18.903  0.00  0.00    +0.000 A 
ATOM      7  O   UNL     1      -0.991  10.035  17.804  0.00  0.00    +0.000 OA
ENDROOT
BRANCH   1  15
ATOM      8  C   UNL     1       1.975   5.034  21.105  0.00  0.00    +0.000 C 
ATOM      9  C   UNL     1       2.646   5.564  19.891  0.00  0.00    +0.000 A 
ATOM     10  C   UNL     1       3.620   5.026  19.054  0.00  0.00    +0.000 A 
ATOM     11  N   UNL     1       3.903   5.916  18.028  0.00  0.00    +0.000 NA
ATOM     12  C   UNL     1       3.144   6.968  18.242  0.00  0.00    +0.000 A 
ATOM     13  C   UNL     1       3.022   8.193  17.538  0.00  0.00    +0.000 A 
ATOM     14  C   UNL     1       2.176   9.141  17.982  0.00  0.00    +0.000 A 
ATOM     15  C   UNL     1       1.339   8.966  19.187  0.00  0.00    +0.000 A 
ATOM     16  C   UNL     1       1.485   7.794  19.844  0.00  0.00    +0.000 A 
ATOM     17  N   UNL     1       2.363   6.816  19.377  0.00  0.00    +0.000 N 
BRANCH  10  18
ATOM     18  C   UNL     1       4.272   3.721  19.193  0.00  0.00    +0.000 C 
ATOM     19  O   UNL     1       5.478   3.577  19.384  0.00  0.00    +0.000 OA
BRANCH  18  20
ATOM     20  C   UNL     1       3.379   2.521  19.124  0.00  0.00    +0.000 C 
ATOM     21  C   UNL     1       2.544   2.254  17.889  0.00  0.00    +0.000 C 
ATOM     22  C   UNL     1       3.739   1.394  18.179  0.00  0.00    +0.000 C 
ENDBRANCH  18  20
ENDBRANCH  10  18
ENDBRANCH   1  15
BRANCH   4  23
ATOM     23  O   UNL     1      -1.929  12.956  21.343  0.00  0.00    +0.000 OA
BRANCH  23  24
ATOM     24  C   UNL     1      -2.089  12.888  22.762  0.00  0.00    +0.000 C 
BRANCH  24  25
ATOM     25  C   UNL     1      -3.550  12.815  23.111  0.00  0.00    +0.000 A 
ATOM     26  C   UNL     1      -4.532  13.075  22.142  0.00  0.00    +0.000 A 
ATOM     27  C   UNL     1      -5.883  12.999  22.477  0.00  0.00    +0.000 A 
ATOM     28  C   UNL     1      -6.250  12.662  23.776  0.00  0.00    +0.000 A 
ATOM     29  F   UNL     1      -7.548  12.598  24.098  0.00  0.00    +0.000 F 
ATOM     30  C   UNL     1      -5.293  12.392  24.745  0.00  0.00    +0.000 A 
ATOM     31  C   UNL     1      -3.942  12.467  24.414  0.00  0.00    +0.000 A 
ENDBRANCH  24  25
ENDBRANCH  23  24
ENDBRANCH   4  23
TORSDOF 6
ENDMDL
MODEL 3
REMARK VINA RESULT:      -8.2      0.769      1.120
REMARK  Name = 
REMARK  7 active torsions:
REMARK  status: ('A' for Active; 'I' for Inactive)
REMARK    1  A    between atoms: C_1  and  C_2
REMARK    2  A    between atoms: C_3  and  C_4
REMARK    3  A    between atoms: C_4  and  C_6
REMARK    4  A    between atoms: C_13  and  N_14
REMARK    5  A    between atoms: C_17  and  O_18
REMARK    6  A    between atoms: O_18  and  C_19
REMARK    7  A    between atoms: C_19  and  C_20
REMARK                            x       y       z     vdW  Elec       q    Type
REMARK                         _______ _______ _______ _____ _____    ______ ____
ROOT
ATOM      1  N   UNL     1       0.492   9.920  20.218  0.00  0.00    +0.000 N 
ATOM      2  C   UNL     1       0.154  11.066  19.510  0.00  0.00    +0.000 A 
ATOM      3  C   UNL     1      -0.535  12.069  20.063  0.00  0.00    +0.000 A 
ATOM      4  C   UNL     1      -1.003  11.969  21.423  0.00  0.00    +0.000 A 
ATOM      5  C   UNL     1      -0.729  10.872  22.138  0.00  0.00    +0.000 A 
ATOM      6  C   UNL     1       0.051   9.745  21.549  0.00  0.00    +0.000 A 
ATOM      7  O   UNL     1       0.278   8.778  22.271  0.00  0.00    +0.000 OA
ENDROOT
BRANCH   1  15
ATOM      8  C   UNL     1       2.418   4.952  20.978  0.00  0.00    +0.000 C 
ATOM      9  C   UNL     1       2.858   5.620  19.727  0.00  0.00    +0.000 A 
ATOM     10  C   UNL     1       3.705   5.212  18.701  0.00  0.00    +0.000 A 
ATOM     11  N   UNL     1       3.776   6.198  17.728  0.00  0.00    +0.000 NA
ATOM     12  C   UNL     1       3.014   7.181  18.154  0.00  0.00    +0.000 A 
ATOM     13  C   UNL     1       2.723   8.450  17.592  0.00  0.00    +0.000 A 
ATOM     14  C   UNL     1       1.917   9.306  18.248  0.00  0.00    +0.000 A 
ATOM     15  C   UNL     1       1.297   8.983  19.550  0.00  0.00    +0.000 A 
ATOM     16  C   UNL     1       1.602   7.771  20.066  0.00  0.00    +0.000 A 
ATOM     17  N   UNL     1       2.437   6.890  19.380  0.00  0.00    +0.000 N 
BRANCH  10  18
ATOM     18  C   UNL     1       4.431   3.941  18.616  0.00  0.00    +0.000 C 
ATOM     19  O   UNL     1       5.440   3.685  19.272  0.00  0.00    +0.000 OA
BRANCH  18  20
ATOM     20  C   UNL     1       3.862   2.911  17.691  0.00  0.00    +0.000 C 
ATOM     21  C   UNL     1       3.216   1.656  18.242  0.00  0.00    +0.000 C 
ATOM     22  C   UNL     1       2.360   2.728  17.634  0.00  0.00    +0.000 C 
ENDBRANCH  18  20
ENDBRANCH  10  18
ENDBRANCH   1  15
BRANCH   4  23
ATOM     23  O   UNL     1      -1.738  12.996  21.986  0.00  0.00    +0.000 OA
BRANCH  23  24
ATOM     24  C   UNL     1      -2.294  12.751  23.280  0.00  0.00    +0.000 C 
BRANCH  24  25
ATOM     25  C   UNL     1      -3.796  12.753  23.202  0.00  0.00    +0.000 A 
ATOM     26  C   UNL     1      -4.574  12.693  24.368  0.00  0.00    +0.000 A 
ATOM     27  C   UNL     1      -5.965  12.700  24.281  0.00  0.00    +0.000 A 
ATOM     28  C   UNL     1      -6.575  12.770  23.033  0.00  0.00    +0.000 A 
ATOM     29  F   UNL     1      -7.912  12.768  22.951  0.00  0.00    +0.000 F 
ATOM     30  C   UNL     1      -5.821  12.841  21.869  0.00  0.00    +0.000 A 
ATOM     31  C   UNL     1      -4.431  12.833  21.952  0.00  0.00    +0.000 A 
ENDBRANCH  24  25
ENDBRANCH  23  24
ENDBRANCH   4  23
TORSDOF 6
ENDMDL
MODEL 4
REMARK VINA RESULT:      -8.1      1.245      1.444
REMARK  Name = 
REMARK  7 active torsions:
REMARK  status: ('A' for Active; 'I' for Inactive)
REMARK    1  A    between atoms: C_1  and  C_2
REMARK    2  A    between atoms: C_3  and  C_4
REMARK    3  A    between atoms: C_4  and  C_6
REMARK    4  A    between atoms: C_13  and  N_14
REMARK    5  A    between atoms: C_17  and  O_18
REMARK    6  A    between atoms: O_18  and  C_19
REMARK    7  A    between atoms: C_19  and  C_20
REMARK                            x       y       z     vdW  Elec       q    Type
REMARK                         _______ _______ _______ _____ _____    ______ ____
ROOT
ATOM      1  N   UNL     1       0.343   9.893  20.424  0.00  0.00    +0.000 N 
ATOM      2  C   UNL     1      -0.624  10.563  19.686  0.00  0.00    +0.000 A 
ATOM      3  C   UNL     1      -1.414  11.495  20.227  0.00  0.00    +0.000 A 
ATOM      4  C   UNL     1      -1.324  11.802  21.632  0.00  0.00    +0.000 A 
ATOM      5  C   UNL     1      -0.429  11.161  22.393  0.00  0.00    +0.000 A 
ATOM      6  C   UNL     1       0.476  10.128  21.811  0.00  0.00    +0.000 A 
ATOM      7  O   UNL     1       1.284   9.594  22.567  0.00  0.00    +0.000 OA
ENDROOT
BRANCH   1  15
ATOM      8  C   UNL     1       2.387   4.942  20.965  0.00  0.00    +0.000 C 
ATOM      9  C   UNL     1       2.811   5.675  19.746  0.00  0.00    +0.000 A 
ATOM     10  C   UNL     1       3.669   5.334  18.704  0.00  0.00    +0.000 A 
ATOM     11  N   UNL     1       3.716   6.364  17.776  0.00  0.00    +0.000 NA
ATOM     12  C   UNL     1       2.931   7.309  18.244  0.00  0.00    +0.000 A 
ATOM     13  C   UNL     1       2.610   8.594  17.739  0.00  0.00    +0.000 A 
ATOM     14  C   UNL     1       1.783   9.401  18.431  0.00  0.00    +0.000 A 
ATOM     15  C   UNL     1       1.171   9.005  19.716  0.00  0.00    +0.000 A 
ATOM     16  C   UNL     1       1.504   7.779  20.178  0.00  0.00    +0.000 A 
ATOM     17  N   UNL     1       2.360   6.950  19.455  0.00  0.00    +0.000 N 
BRANCH  10  18
ATOM     18  C   UNL     1       4.425   4.086  18.564  0.00  0.00    +0.000 C 
ATOM     19  O   UNL     1       5.459   3.841  19.183  0.00  0.00    +0.000 OA
BRANCH  18  20
ATOM     20  C   UNL     1       3.855   3.065  17.629  0.00  0.00    +0.000 C 
ATOM     21  C   UNL     1       2.887   2.015  18.134  0.00  0.00    +0.000 C 
ATOM     22  C   UNL     1       2.385   3.137  17.274  0.00  0.00    +0.000 C 
ENDBRANCH  18  20
ENDBRANCH  10  18
ENDBRANCH   1  15
BRANCH   4  23
ATOM     23  O   UNL     1      -2.160  12.747  22.196  0.00  0.00    +0.000 OA
BRANCH  23  24
ATOM     24  C   UNL     1      -3.080  12.280  23.185  0.00  0.00    +0.000 C 
BRANCH  24  25
ATOM     25  C   UNL     1      -4.198  13.272  23.356  0.00  0.00    +0.000 A 
ATOM     26  C   UNL     1      -5.492  12.843  23.687  0.00  0.00    +0.000 A 
ATOM     27  C   UNL     1      -6.518  13.774  23.846  0.00  0.00    +0.000 A 
ATOM     28  C   UNL     1      -6.249  15.128  23.678  0.00  0.00    +0.000 A 
ATOM     29  F   UNL     1      -7.237  16.020  23.823  0.00  0.00    +0.000 F 
ATOM     30  C   UNL     1      -4.971  15.572  23.361  0.00  0.00    +0.000 A 
ATOM     31  C   UNL     1      -3.945  14.644  23.200  0.00  0.00    +0.000 A 
ENDBRANCH  24  25
ENDBRANCH  23  24
ENDBRANCH   4  23
TORSDOF 6
ENDMDL
MODEL 5
REMARK VINA RESULT:      -8.0      1.737      2.130
REMARK  Name = 
REMARK  7 active torsions:
REMARK  status: ('A' for Active; 'I' for Inactive)
REMARK    1  A    between atoms: C_1  and  C_2
REMARK    2  A    between atoms: C_3  and  C_4
REMARK    3  A    between atoms: C_4  and  C_6
REMARK    4  A    between atoms: C_13  and  N_14
REMARK    5  A    between atoms: C_17  and  O_18
REMARK    6  A    between atoms: O_18  and  C_19
REMARK    7  A    between atoms: C_19  and  C_20
REMARK                            x       y       z     vdW  Elec       q    Type
REMARK                         _______ _______ _______ _____ _____    ______ ____
ROOT
ATOM      1  N   UNL     1       0.387   9.794  20.914  0.00  0.00    +0.000 N 
ATOM      2  C   UNL     1       0.096   9.353  22.198  0.00  0.00    +0.000 A 
ATOM      3  C   UNL     1      -0.688  10.045  23.029  0.00  0.00    +0.000 A 
ATOM      4  C   UNL     1      -1.226  11.323  22.632  0.00  0.00    +0.000 A 
ATOM      5  C   UNL     1      -0.950  11.805  21.415  0.00  0.00    +0.000 A 
ATOM      6  C   UNL     1      -0.090  11.046  20.462  0.00  0.00    +0.000 A 
ATOM      7  O   UNL     1       0.105  11.544  19.357  0.00  0.00    +0.000 OA
ENDROOT
BRANCH   1  15
ATOM      8  C   UNL     1       2.470   4.835  21.123  0.00  0.00    +0.000 C 
ATOM      9  C   UNL     1       2.781   5.604  19.892  0.00  0.00    +0.000 A 
ATOM     10  C   UNL     1       3.539   5.294  18.766  0.00  0.00    +0.000 A 
ATOM     11  N   UNL     1       3.502   6.350  17.868  0.00  0.00    +0.000 NA
ATOM     12  C   UNL     1       2.763   7.280  18.433  0.00  0.00    +0.000 A 
ATOM     13  C   UNL     1       2.397   8.579  17.997  0.00  0.00    +0.000 A 
ATOM     14  C   UNL     1       1.638   9.363  18.785  0.00  0.00    +0.000 A 
ATOM     15  C   UNL     1       1.146   8.929  20.109  0.00  0.00    +0.000 A 
ATOM     16  C   UNL     1       1.520   7.692  20.503  0.00  0.00    +0.000 A 
ATOM     17  N   UNL     1       2.305   6.885  19.680  0.00  0.00    +0.000 N 
BRANCH  10  18
ATOM     18  C   UNL     1       4.278   4.052  18.521  0.00  0.00    +0.000 C 
ATOM     19  O   UNL     1       5.361   3.788  19.042  0.00  0.00    +0.000 OA
BRANCH  18  20
ATOM     20  C   UNL     1       3.630   3.062  17.605  0.00  0.00    +0.000 C 
ATOM     21  C   UNL     1       3.295   1.668  18.093  0.00  0.00    +0.000 C 
ATOM     22  C   UNL     1       2.193   2.659  17.862  0.00  0.00    +0.000 C 
ENDBRANCH  18  20
ENDBRANCH  10  18
ENDBRANCH   1  15
BRANCH   4  23
ATOM     23  O   UNL     1      -2.016  12.050  23.502  0.00  0.00    +0.000 OA
BRANCH  23  24
ATOM     24  C   UNL     1      -3.285  12.482  23.006  0.00  0.00    +0.000 C 
BRANCH  24  25
ATOM     25  C   UNL     1      -3.670  13.787  23.646  0.00  0.00    +0.000 A 
ATOM     26  C   UNL     1      -2.773  14.464  24.487  0.00  0.00    +0.000 A 
ATOM     27  C   UNL     1      -3.140  15.676  25.071  0.00  0.00    +0.000 A 
ATOM     28  C   UNL     1      -4.398  16.209  24.812  0.00  0.00    +0.000 A 
ATOM     29  F   UNL     1      -4.753  17.368  25.380  0.00  0.00    +0.000 F 
ATOM     30  C   UNL     1      -5.295  15.558  23.974  0.00  0.00    +0.000 A 
ATOM     31  C   UNL     1      -4.932  14.347  23.390  0.00  0.00    +0.000 A 
ENDBRANCH  24  25
ENDBRANCH  23  24
ENDBRANCH   4  23
TORSDOF 6
ENDMDL
MODEL 6
REMARK VINA RESULT:      -8.0      1.720      1.869
REMARK  Name = 
REMARK  7 active torsions:
REMARK  status: ('A' for Active; 'I' for Inactive)
REMARK    1  A    between atoms: C_1  and  C_2
REMARK    2  A    between atoms: C_3  and  C_4
REMARK    3  A    between atoms: C_4  and  C_6
REMARK    4  A    between atoms: C_13  and  N_14
REMARK    5  A    between atoms: C_17  and  O_18
REMARK    6  A    between atoms: O_18  and  C_19
REMARK    7  A    between atoms: C_19  and  C_20
REMARK                            x       y       z     vdW  Elec       q    Type
REMARK                         _______ _______ _______ _____ _____    ______ ____
ROOT
ATOM      1  N   UNL     1       0.447   9.813  20.416  0.00  0.00    +0.000 N 
ATOM      2  C   UNL     1      -0.524  10.481  19.683  0.00  0.00    +0.000 A 
ATOM      3  C   UNL     1      -1.302  11.425  20.222  0.00  0.00    +0.000 A 
ATOM      4  C   UNL     1      -1.191  11.748  21.623  0.00  0.00    +0.000 A 
ATOM      5  C   UNL     1      -0.290  11.109  22.379  0.00  0.00    +0.000 A 
ATOM      6  C   UNL     1       0.600  10.064  21.798  0.00  0.00    +0.000 A 
ATOM      7  O   UNL     1       1.414   9.533  22.550  0.00  0.00    +0.000 OA
ENDROOT
BRANCH   1  15
ATOM      8  C   UNL     1       2.462   4.854  20.988  0.00  0.00    +0.000 C 
ATOM      9  C   UNL     1       2.877   5.570  19.755  0.00  0.00    +0.000 A 
ATOM     10  C   UNL     1       3.719   5.211  18.707  0.00  0.00    +0.000 A 
ATOM     11  N   UNL     1       3.763   6.230  17.767  0.00  0.00    +0.000 NA
ATOM     12  C   UNL     1       2.990   7.186  18.234  0.00  0.00    +0.000 A 
ATOM     13  C   UNL     1       2.672   8.468  17.718  0.00  0.00    +0.000 A 
ATOM     14  C   UNL     1       1.860   9.288  18.412  0.00  0.00    +0.000 A 
ATOM     15  C   UNL     1       1.260   8.912  19.708  0.00  0.00    +0.000 A 
ATOM     16  C   UNL     1       1.590   7.689  20.180  0.00  0.00    +0.000 A 
ATOM     17  N   UNL     1       2.431   6.844  19.456  0.00  0.00    +0.000 N 
BRANCH  10  18
ATOM     18  C   UNL     1       4.464   3.956  18.571  0.00  0.00    +0.000 C 
ATOM     19  O   UNL     1       5.516   3.719  19.164  0.00  0.00    +0.000 OA
BRANCH  18  20
ATOM     20  C   UNL     1       3.861   2.918  17.677  0.00  0.00    +0.000 C 
ATOM     21  C   UNL     1       2.997   1.816  18.254  0.00  0.00    +0.000 C 
ATOM     22  C   UNL     1       2.363   2.920  17.461  0.00  0.00    +0.000 C 
ENDBRANCH  18  20
ENDBRANCH  10  18
ENDBRANCH   1  15
BRANCH   4  23
ATOM     23  O   UNL     1      -2.013  12.705  22.186  0.00  0.00    +0.000 OA
BRANCH  23  24
ATOM     24  C   UNL     1      -1.391  13.653  23.057  0.00  0.00    +0.000 C 
BRANCH  24  25
ATOM     25  C   UNL     1      -2.427  14.579  23.633  0.00  0.00    +0.000 A 
ATOM     26  C   UNL     1      -3.635  14.809  22.958  0.00  0.00    +0.000 A 
ATOM     27  C   UNL     1      -4.589  15.667  23.505  0.00  0.00    +0.000 A 
ATOM     28  C   UNL     1      -4.334  16.289  24.723  0.00  0.00    +0.000 A 
ATOM     29  F   UNL     1      -5.248  17.120  25.242  0.00  0.00    +0.000 F 
ATOM     30  C   UNL     1      -3.148  16.065  25.409  0.00  0.00    +0.000 A 
ATOM     31  C   UNL     1      -2.193  15.210  24.866  0.00  0.00    +0.000 A 
ENDBRANCH  24  25
ENDBRANCH  23  24
ENDBRANCH   4  23
TORSDOF 6
ENDMDL
MODEL 7
REMARK VINA RESULT:      -8.0      4.927     10.926
REMARK  Name = 
REMARK  7 active torsions:
REMARK  status: ('A' for Active; 'I' for Inactive)
REMARK    1  A    between atoms: C_1  and  C_2
REMARK    2  A    between atoms: C_3  and  C_4
REMARK    3  A    between atoms: C_4  and  C_6
REMARK    4  A    between atoms: C_13  and  N_14
REMARK    5  A    between atoms: C_17  and  O_18
REMARK    6  A    between atoms: O_18  and  C_19
REMARK    7  A    between atoms: C_19  and  C_20
REMARK                            x       y       z     vdW  Elec       q    Type
REMARK                         _______ _______ _______ _____ _____    ______ ____
ROOT
ATOM      1  N   UNL     1       1.423   9.123  19.192  0.00  0.00    +0.000 N 
ATOM      2  C   UNL     1       1.972   8.629  18.017  0.00  0.00    +0.000 A 
ATOM      3  C   UNL     1       2.478   7.395  17.929  0.00  0.00    +0.000 A 
ATOM      4  C   UNL     1       2.519   6.539  19.089  0.00  0.00    +0.000 A 
ATOM      5  C   UNL     1       2.029   6.981  20.254  0.00  0.00    +0.000 A 
ATOM      6  C   UNL     1       1.445   8.348  20.374  0.00  0.00    +0.000 A 
ATOM      7  O   UNL     1       0.999   8.677  21.470  0.00  0.00    +0.000 OA
ENDROOT
BRANCH   1  15
ATOM      8  C   UNL     1       2.930  14.287  19.378  0.00  0.00    +0.000 C 
ATOM      9  C   UNL     1       1.467  14.055  19.265  0.00  0.00    +0.000 A 
ATOM     10  C   UNL     1       0.386  14.930  19.219  0.00  0.00    +0.000 A 
ATOM     11  N   UNL     1      -0.795  14.214  19.083  0.00  0.00    +0.000 NA
ATOM     12  C   UNL     1      -0.448  12.945  19.067  0.00  0.00    +0.000 A 
ATOM     13  C   UNL     1      -1.226  11.763  18.975  0.00  0.00    +0.000 A 
ATOM     14  C   UNL     1      -0.624  10.559  19.006  0.00  0.00    +0.000 A 
ATOM     15  C   UNL     1       0.840  10.399  19.126  0.00  0.00    +0.000 A 
ATOM     16  C   UNL     1       1.554  11.543  19.224  0.00  0.00    +0.000 A 
ATOM     17  N   UNL     1       0.924  12.786  19.190  0.00  0.00    +0.000 N 
BRANCH  10  18
ATOM     18  C   UNL     1       0.437  16.393  19.293  0.00  0.00    +0.000 C 
ATOM     19  O   UNL     1       0.329  17.027  20.341  0.00  0.00    +0.000 OA
BRANCH  18  20
ATOM     20  C   UNL     1       0.668  17.117  18.004  0.00  0.00    +0.000 C 
ATOM     21  C   UNL     1      -0.459  17.881  17.338  0.00  0.00    +0.000 C 
ATOM     22  C   UNL     1       0.658  18.631  18.002  0.00  0.00    +0.000 C 
ENDBRANCH  18  20
ENDBRANCH  10  18
ENDBRANCH   1  15
BRANCH   4  23
ATOM     23  O   UNL     1       3.066   5.273  19.005  0.00  0.00    +0.000 OA
BRANCH  23  24
ATOM     24  C   UNL     1       4.461   5.157  19.297  0.00  0.00    +0.000 C 
BRANCH  24  25
ATOM     25  C   UNL     1       5.253   5.128  18.018  0.00  0.00    +0.000 A 
ATOM     26  C   UNL     1       4.837   4.338  16.936  0.00  0.00    +0.000 A 
ATOM     27  C   UNL     1       5.577   4.323  15.756  0.00  0.00    +0.000 A 
ATOM     28  C   UNL     1       6.728   5.098  15.657  0.00  0.00    +0.000 A 
ATOM     29  F   UNL     1       7.443   5.076  14.525  0.00  0.00    +0.000 F 
ATOM     30  C   UNL     1       7.150   5.894  16.714  0.00  0.00    +0.000 A 
ATOM     31  C   UNL     1       6.412   5.911  17.896  0.00  0.00    +0.000 A 
ENDBRANCH  24  25
ENDBRANCH  23  24
ENDBRANCH   4  23
TORSDOF 6
ENDMDL
MODEL 8
REMARK VINA RESULT:      -7.9      4.845     11.023
REMARK  Name = 
REMARK  7 active torsions:
REMARK  status: ('A' for Active; 'I' for Inactive)
REMARK    1  A    between atoms: C_1  and  C_2
REMARK    2  A    between atoms: C_3  and  C_4
REMARK    3  A    between atoms: C_4  and  C_6
REMARK    4  A    between atoms: C_13  and  N_14
REMARK    5  A    between atoms: C_17  and  O_18
REMARK    6  A    between atoms: O_18  and  C_19
REMARK    7  A    between atoms: C_19  and  C_20
REMARK                            x       y       z     vdW  Elec       q    Type
REMARK                         _______ _______ _______ _____ _____    ______ ____
ROOT
ATOM      1  N   UNL     1       1.338   9.165  19.334  0.00  0.00    +0.000 N 
ATOM      2  C   UNL     1       1.293   8.393  20.487  0.00  0.00    +0.000 A 
ATOM      3  C   UNL     1       1.868   7.189  20.561  0.00  0.00    +0.000 A 
ATOM      4  C   UNL     1       2.520   6.619  19.408  0.00  0.00    +0.000 A 
ATOM      5  C   UNL     1       2.563   7.312  18.264  0.00  0.00    +0.000 A 
ATOM      6  C   UNL     1       1.943   8.664  18.159  0.00  0.00    +0.000 A 
ATOM      7  O   UNL     1       2.037   9.247  17.082  0.00  0.00    +0.000 OA
ENDROOT
BRANCH   1  15
ATOM      8  C   UNL     1       2.649  14.250  18.148  0.00  0.00    +0.000 C 
ATOM      9  C   UNL     1       1.327  14.069  18.800  0.00  0.00    +0.000 A 
ATOM     10  C   UNL     1       0.349  14.979  19.192  0.00  0.00    +0.000 A 
ATOM     11  N   UNL     1      -0.731  14.303  19.741  0.00  0.00    +0.000 NA
ATOM     12  C   UNL     1      -0.415  13.027  19.704  0.00  0.00    +0.000 A 
ATOM     13  C   UNL     1      -1.116  11.877  20.146  0.00  0.00    +0.000 A 
ATOM     14  C   UNL     1      -0.557  10.659  20.017  0.00  0.00    +0.000 A 
ATOM     15  C   UNL     1       0.777  10.450  19.416  0.00  0.00    +0.000 A 
ATOM     16  C   UNL     1       1.426  11.566  19.015  0.00  0.00    +0.000 A 
ATOM     17  N   UNL     1       0.840  12.824  19.151  0.00  0.00    +0.000 N 
BRANCH  10  18
ATOM     18  C   UNL     1       0.405  16.438  19.061  0.00  0.00    +0.000 C 
ATOM     19  O   UNL     1       1.214  17.147  19.657  0.00  0.00    +0.000 OA
BRANCH  18  20
ATOM     20  C   UNL     1      -0.573  17.058  18.112  0.00  0.00    +0.000 C 
ATOM     21  C   UNL     1      -1.740  17.872  18.634  0.00  0.00    +0.000 C 
ATOM     22  C   UNL     1      -0.592  18.564  17.961  0.00  0.00    +0.000 C 
ENDBRANCH  18  20
ENDBRANCH  10  18
ENDBRANCH   1  15
BRANCH   4  23
ATOM     23  O   UNL     1       3.091   5.363  19.477  0.00  0.00    +0.000 OA
BRANCH  23  24
ATOM     24  C   UNL     1       4.516   5.312  19.584  0.00  0.00    +0.000 C 
BRANCH  24  25
ATOM     25  C   UNL     1       5.115   4.899  18.267  0.00  0.00    +0.000 A 
ATOM     26  C   UNL     1       6.466   5.152  17.983  0.00  0.00    +0.000 A 
ATOM     27  C   UNL     1       7.009   4.760  16.761  0.00  0.00    +0.000 A 
ATOM     28  C   UNL     1       6.204   4.116  15.827  0.00  0.00    +0.000 A 
ATOM     29  F   UNL     1       6.725   3.748  14.650  0.00  0.00    +0.000 F 
ATOM     30  C   UNL     1       4.867   3.848  16.094  0.00  0.00    +0.000 A 
ATOM     31  C   UNL     1       4.322   4.239  17.314  0.00  0.00    +0.000 A 
ENDBRANCH  24  25
ENDBRANCH  23  24
ENDBRANCH   4  23
TORSDOF 6
ENDMDL
MODEL 9
REMARK VINA RESULT:      -7.9      1.796      2.195
REMARK  Name = 
REMARK  7 active torsions:
REMARK  status: ('A' for Active; 'I' for Inactive)
REMARK    1  A    between atoms: C_1  and  C_2
REMARK    2  A    between atoms: C_3  and  C_4
REMARK    3  A    between atoms: C_4  and  C_6
REMARK    4  A    between atoms: C_13  and  N_14
REMARK    5  A    between atoms: C_17  and  O_18
REMARK    6  A    between atoms: O_18  and  C_19
REMARK    7  A    between atoms: C_19  and  C_20
REMARK                            x       y       z     vdW  Elec       q    Type
REMARK                         _______ _______ _______ _____ _____    ______ ____
ROOT
ATOM      1  N   UNL     1       0.400   9.994  20.166  0.00  0.00    +0.000 N 
ATOM      2  C   UNL     1      -0.570  10.604  19.382  0.00  0.00    +0.000 A 
ATOM      3  C   UNL     1      -1.361  11.573  19.851  0.00  0.00    +0.000 A 
ATOM      4  C   UNL     1      -1.268  11.988  21.229  0.00  0.00    +0.000 A 
ATOM      5  C   UNL     1      -0.370  11.409  22.034  0.00  0.00    +0.000 A 
ATOM      6  C   UNL     1       0.536  10.337  21.531  0.00  0.00    +0.000 A 
ATOM      7  O   UNL     1       1.347   9.864  22.324  0.00  0.00    +0.000 OA
ENDROOT
BRANCH   1  15
ATOM      8  C   UNL     1       2.296   5.024  20.992  0.00  0.00    +0.000 C 
ATOM      9  C   UNL     1       2.780   5.693  19.758  0.00  0.00    +0.000 A 
ATOM     10  C   UNL     1       3.664   5.285  18.763  0.00  0.00    +0.000 A 
ATOM     11  N   UNL     1       3.769   6.271  17.793  0.00  0.00    +0.000 NA
ATOM     12  C   UNL     1       2.993   7.255  18.192  0.00  0.00    +0.000 A 
ATOM     13  C   UNL     1       2.722   8.524  17.621  0.00  0.00    +0.000 A 
ATOM     14  C   UNL     1       1.894   9.380  18.248  0.00  0.00    +0.000 A 
ATOM     15  C   UNL     1       1.228   9.057  19.527  0.00  0.00    +0.000 A 
ATOM     16  C   UNL     1       1.514   7.845  20.053  0.00  0.00    +0.000 A 
ATOM     17  N   UNL     1       2.372   6.963  19.397  0.00  0.00    +0.000 N 
BRANCH  10  18
ATOM     18  C   UNL     1       4.392   4.014  18.703  0.00  0.00    +0.000 C 
ATOM     19  O   UNL     1       5.423   3.788  19.333  0.00  0.00    +0.000 OA
BRANCH  18  20
ATOM     20  C   UNL     1       3.795   2.946  17.839  0.00  0.00    +0.000 C 
ATOM     21  C   UNL     1       2.688   2.058  18.370  0.00  0.00    +0.000 C 
ATOM     22  C   UNL     1       2.372   3.111  17.350  0.00  0.00    +0.000 C 
ENDBRANCH  18  20
ENDBRANCH  10  18
ENDBRANCH   1  15
BRANCH   4  23
ATOM     23  O   UNL     1      -2.105  12.972  21.720  0.00  0.00    +0.000 OA
BRANCH  23  24
ATOM     24  C   UNL     1      -3.431  12.569  22.071  0.00  0.00    +0.000 C 
BRANCH  24  25
ATOM     25  C   UNL     1      -4.428  13.234  21.161  0.00  0.00    +0.000 A 
ATOM     26  C   UNL     1      -5.270  12.470  20.340  0.00  0.00    +0.000 A 
ATOM     27  C   UNL     1      -6.192  13.099  19.505  0.00  0.00    +0.000 A 
ATOM     28  C   UNL     1      -6.272  14.488  19.494  0.00  0.00    +0.000 A 
ATOM     29  F   UNL     1      -7.152  15.091  18.685  0.00  0.00    +0.000 F 
ATOM     30  C   UNL     1      -5.453  15.260  20.307  0.00  0.00    +0.000 A 
ATOM     31  C   UNL     1      -4.530  14.634  21.142  0.00  0.00    +0.000 A 
ENDBRANCH  24  25
ENDBRANCH  23  24
ENDBRANCH   4  23
TORSDOF 6
ENDMDL
