MODEL 1
REMARK VINA RESULT:      -8.7      0.000      0.000
REMARK  Name = 
REMARK  8 active torsions:
REMARK  status: ('A' for Active; 'I' for Inactive)
REMARK    1  A    between atoms: C_1  and  C_2
REMARK    2  A    between atoms: C_2  and  C_3
REMARK    3  A    between atoms: C_2  and  O_4
REMARK    4  A    between atoms: C_2  and  C_5
REMARK    5  A    between atoms: C_5  and  O_6
REMARK    6  A    between atoms: O_6  and  C_7
REMARK    7  A    between atoms: C_9  and  S_10
REMARK    8  A    between atoms: S_10  and  C_13
REMARK                            x       y       z     vdW  Elec       q    Type
REMARK                         _______ _______ _______ _____ _____    ______ ____
ROOT
ATOM      1  C   UNL     1       3.437   6.677  17.586  0.00  0.00    +0.000 A 
ATOM      2  C   UNL     1       4.685   6.559  16.940  0.00  0.00    +0.000 A 
ATOM      3  C   UNL     1       5.570   5.523  17.241  0.00  0.00    +0.000 A 
ATOM      4  C   UNL     1       5.262   4.548  18.188  0.00  0.00    +0.000 A 
ATOM      5  C   UNL     1       4.026   4.633  18.843  0.00  0.00    +0.000 A 
ATOM      6  C   UNL     1       3.397   3.845  19.830  0.00  0.00    +0.000 A 
ATOM      7  C   UNL     1       2.178   4.434  20.056  0.00  0.00    +0.000 A 
ATOM      8  O   UNL     1       2.001   5.543  19.293  0.00  0.00    +0.000 OA
ATOM      9  C   UNL     1       3.145   5.675  18.535  0.00  0.00    +0.000 A 
ATOM     10  C   UNL     1       1.166   3.943  21.020  0.00  0.00    +0.000 C 
ATOM     11  C   UNL     1       1.567   2.490  21.409  0.00  0.00    +0.000 C 
ATOM     12  N   UNL     1       3.012   2.350  21.697  0.00  0.00    +0.000 NA
ATOM     13  C   UNL     1       3.844   2.603  20.506  0.00  0.00    +0.000 C 
ATOM     14  H   UNL     1       3.207   1.408  22.030  0.00  0.00    +0.000 HD
ENDROOT
BRANCH   3  15
ATOM     15  S   UNL     1       7.169   5.439  16.458  0.00  0.00    +0.000 S 
ATOM     16  O   UNL     1       7.696   6.789  16.375  0.00  0.00    +0.000 OA
ATOM     17  O   UNL     1       7.894   4.394  17.149  0.00  0.00    +0.000 OA
BRANCH  15  18
ATOM     18  C   UNL     1       6.888   4.902  14.787  0.00  0.00    +0.000 A 
ATOM     19  C   UNL     1       5.844   4.010  14.524  0.00  0.00    +0.000 A 
ATOM     20  C   UNL     1       5.687   3.508  13.232  0.00  0.00    +0.000 A 
ATOM     21  C   UNL     1       6.552   3.914  12.214  0.00  0.00    +0.000 A 
ATOM     22  C   UNL     1       7.562   4.841  12.475  0.00  0.00    +0.000 A 
ATOM     23  C   UNL     1       7.735   5.339  13.765  0.00  0.00    +0.000 A 
ENDBRANCH  15  18
ENDBRANCH   3  15
BRANCH   1  24
ATOM     24  O   UNL     1       2.532   7.684  17.348  0.00  0.00    +0.000 OA
BRANCH  24  25
ATOM     25  C   UNL     1       2.831   8.947  17.959  0.00  0.00    +0.000 C 
BRANCH  25  27
ATOM     26  C   UNL     1       1.786  11.191  18.476  0.00  0.00    +0.000 C 
ATOM     27  C   UNL     1       1.558   9.681  18.423  0.00  0.00    +0.000 C 
ATOM     28  C   UNL     1       1.088   9.156  19.779  0.00  0.00    +0.000 C 
BRANCH  27  29
ATOM     29  O   UNL     1       0.526   9.415  17.461  0.00  0.00    +0.000 OA
ATOM     30  H   UNL     1      -0.003  10.225  17.356  0.00  0.00    +0.000 HD
ENDBRANCH  27  29
ENDBRANCH  25  27
ENDBRANCH  24  25
ENDBRANCH   1  24
TORSDOF 6
ENDMDL
MODEL 2
REMARK VINA RESULT:      -8.5      0.619      1.144
REMARK  Name = 
REMARK  8 active torsions:
REMARK  status: ('A' for Active; 'I' for Inactive)
REMARK    1  A    between atoms: C_1  and  C_2
REMARK    2  A    between atoms: C_2  and  C_3
REMARK    3  A    between atoms: C_2  and  O_4
REMARK    4  A    between atoms: C_2  and  C_5
REMARK    5  A    between atoms: C_5  and  O_6
REMARK    6  A    between atoms: O_6  and  C_7
REMARK    7  A    between atoms: C_9  and  S_10
REMARK    8  A    between atoms: S_10  and  C_13
REMARK                            x       y       z     vdW  Elec       q    Type
REMARK                         _______ _______ _______ _____ _____    ______ ____
ROOT
ATOM      1  C   UNL     1       3.629   6.864  17.655  0.00  0.00    +0.000 A 
ATOM      2  C   UNL     1       4.872   6.694  17.012  0.00  0.00    +0.000 A 
ATOM      3  C   UNL     1       5.683   5.587  17.268  0.00  0.00    +0.000 A 
ATOM      4  C   UNL     1       5.301   4.590  18.164  0.00  0.00    +0.000 A 
ATOM      5  C   UNL     1       4.066   4.727  18.814  0.00  0.00    +0.000 A 
ATOM      6  C   UNL     1       3.376   3.937  19.756  0.00  0.00    +0.000 A 
ATOM      7  C   UNL     1       2.197   4.595  20.003  0.00  0.00    +0.000 A 
ATOM      8  O   UNL     1       2.103   5.749  19.294  0.00  0.00    +0.000 OA
ATOM      9  C   UNL     1       3.260   5.840  18.551  0.00  0.00    +0.000 A 
ATOM     10  C   UNL     1       1.145   4.128  20.935  0.00  0.00    +0.000 C 
ATOM     11  C   UNL     1       1.443   2.634  21.254  0.00  0.00    +0.000 C 
ATOM     12  N   UNL     1       2.873   2.383  21.545  0.00  0.00    +0.000 NA
ATOM     13  C   UNL     1       3.732   2.635  20.374  0.00  0.00    +0.000 C 
ATOM     14  H   UNL     1       3.001   1.414  21.832  0.00  0.00    +0.000 HD
ENDROOT
BRANCH   3  15
ATOM     15  S   UNL     1       7.280   5.433  16.492  0.00  0.00    +0.000 S 
ATOM     16  O   UNL     1       7.832   6.767  16.339  0.00  0.00    +0.000 OA
ATOM     17  O   UNL     1       7.986   4.413  17.239  0.00  0.00    +0.000 OA
BRANCH  15  18
ATOM     18  C   UNL     1       6.990   4.814  14.852  0.00  0.00    +0.000 A 
ATOM     19  C   UNL     1       7.769   5.295  13.794  0.00  0.00    +0.000 A 
ATOM     20  C   UNL     1       7.475   4.888  12.493  0.00  0.00    +0.000 A 
ATOM     21  C   UNL     1       6.430   3.993  12.259  0.00  0.00    +0.000 A 
ATOM     22  C   UNL     1       5.688   3.481  13.325  0.00  0.00    +0.000 A 
ATOM     23  C   UNL     1       5.965   3.891  14.628  0.00  0.00    +0.000 A 
ENDBRANCH  15  18
ENDBRANCH   3  15
BRANCH   1  24
ATOM     24  O   UNL     1       2.796   7.941  17.461  0.00  0.00    +0.000 OA
BRANCH  24  25
ATOM     25  C   UNL     1       2.076   8.389  18.618  0.00  0.00    +0.000 C 
BRANCH  25  27
ATOM     26  C   UNL     1       1.240  10.547  19.635  0.00  0.00    +0.000 C 
ATOM     27  C   UNL     1       1.331   9.712  18.359  0.00  0.00    +0.000 C 
ATOM     28  C   UNL     1      -0.060   9.452  17.782  0.00  0.00    +0.000 C 
BRANCH  27  29
ATOM     29  O   UNL     1       2.084  10.455  17.388  0.00  0.00    +0.000 OA
ATOM     30  H   UNL     1       2.825   9.898  17.092  0.00  0.00    +0.000 HD
ENDBRANCH  27  29
ENDBRANCH  25  27
ENDBRANCH  24  25
ENDBRANCH   1  24
TORSDOF 6
ENDMDL
MODEL 3
REMARK VINA RESULT:      -8.4      1.250      1.360
REMARK  Name = 
REMARK  8 active torsions:
REMARK  status: ('A' for Active; 'I' for Inactive)
REMARK    1  A    between atoms: C_1  and  C_2
REMARK    2  A    between atoms: C_2  and  C_3
REMARK    3  A    between atoms: C_2  and  O_4
REMARK    4  A    between atoms: C_2  and  C_5
REMARK    5  A    between atoms: C_5  and  O_6
REMARK    6  A    between atoms: O_6  and  C_7
REMARK    7  A    between atoms: C_9  and  S_10
REMARK    8  A    between atoms: S_10  and  C_13
REMARK                            x       y       z     vdW  Elec       q    Type
REMARK                         _______ _______ _______ _____ _____    ______ ____
ROOT
ATOM      1  C   UNL     1       3.803   6.841  17.962  0.00  0.00    +0.000 A 
ATOM      2  C   UNL     1       5.055   6.745  17.320  0.00  0.00    +0.000 A 
ATOM      3  C   UNL     1       5.620   5.509  17.001  0.00  0.00    +0.000 A 
ATOM      4  C   UNL     1       4.973   4.310  17.293  0.00  0.00    +0.000 A 
ATOM      5  C   UNL     1       3.723   4.373  17.924  0.00  0.00    +0.000 A 
ATOM      6  C   UNL     1       2.807   3.391  18.356  0.00  0.00    +0.000 A 
ATOM      7  C   UNL     1       1.747   4.081  18.892  0.00  0.00    +0.000 A 
ATOM      8  O   UNL     1       1.938   5.424  18.840  0.00  0.00    +0.000 OA
ATOM      9  C   UNL     1       3.164   5.616  18.239  0.00  0.00    +0.000 A 
ATOM     10  C   UNL     1       0.536   3.456  19.473  0.00  0.00    +0.000 C 
ATOM     11  C   UNL     1       0.524   1.966  19.019  0.00  0.00    +0.000 C 
ATOM     12  N   UNL     1       1.847   1.314  19.152  0.00  0.00    +0.000 NA
ATOM     13  C   UNL     1       2.854   1.912  18.257  0.00  0.00    +0.000 C 
ATOM     14  H   UNL     1       1.767   0.324  18.928  0.00  0.00    +0.000 HD
ENDROOT
BRANCH   3  15
ATOM     15  S   UNL     1       7.235   5.416  16.253  0.00  0.00    +0.000 S 
ATOM     16  O   UNL     1       7.781   6.760  16.202  0.00  0.00    +0.000 OA
ATOM     17  O   UNL     1       7.931   4.352  16.946  0.00  0.00    +0.000 OA
BRANCH  15  18
ATOM     18  C   UNL     1       6.986   4.907  14.569  0.00  0.00    +0.000 A 
ATOM     19  C   UNL     1       5.999   3.959  14.282  0.00  0.00    +0.000 A 
ATOM     20  C   UNL     1       5.872   3.483  12.978  0.00  0.00    +0.000 A 
ATOM     21  C   UNL     1       6.708   3.968  11.971  0.00  0.00    +0.000 A 
ATOM     22  C   UNL     1       7.659   4.949  12.256  0.00  0.00    +0.000 A 
ATOM     23  C   UNL     1       7.803   5.423  13.559  0.00  0.00    +0.000 A 
ENDBRANCH  15  18
ENDBRANCH   3  15
BRANCH   1  24
ATOM     24  O   UNL     1       3.204   8.026  18.318  0.00  0.00    +0.000 OA
BRANCH  24  25
ATOM     25  C   UNL     1       2.021   8.373  17.583  0.00  0.00    +0.000 C 
BRANCH  25  27
ATOM     26  C   UNL     1       1.205   9.333  19.775  0.00  0.00    +0.000 C 
ATOM     27  C   UNL     1       1.234   9.512  18.258  0.00  0.00    +0.000 C 
ATOM     28  C   UNL     1      -0.184   9.604  17.696  0.00  0.00    +0.000 C 
BRANCH  27  29
ATOM     29  O   UNL     1       1.911  10.744  17.963  0.00  0.00    +0.000 OA
ATOM     30  H   UNL     1       2.731  10.769  18.485  0.00  0.00    +0.000 HD
ENDBRANCH  27  29
ENDBRANCH  25  27
ENDBRANCH  24  25
ENDBRANCH   1  24
TORSDOF 6
ENDMDL
MODEL 4
REMARK VINA RESULT:      -8.1      1.280      1.679
REMARK  Name = 
REMARK  8 active torsions:
REMARK  status: ('A' for Active; 'I' for Inactive)
REMARK    1  A    between atoms: C_1  and  C_2
REMARK    2  A    between atoms: C_2  and  C_3
REMARK    3  A    between atoms: C_2  and  O_4
REMARK    4  A    between atoms: C_2  and  C_5
REMARK    5  A    between atoms: C_5  and  O_6
REMARK    6  A    between atoms: O_6  and  C_7
REMARK    7  A    between atoms: C_9  and  S_10
REMARK    8  A    between atoms: S_10  and  C_13
REMARK                            x       y       z     vdW  Elec       q    Type
REMARK                         _______ _______ _______ _____ _____    ______ ____
ROOT
ATOM      1  C   UNL     1       3.861   6.844  17.954  0.00  0.00    +0.000 A 
ATOM      2  C   UNL     1       5.112   6.736  17.311  0.00  0.00    +0.000 A 
ATOM      3  C   UNL     1       5.663   5.496  16.986  0.00  0.00    +0.000 A 
ATOM      4  C   UNL     1       5.002   4.302  17.272  0.00  0.00    +0.000 A 
ATOM      5  C   UNL     1       3.753   4.377  17.904  0.00  0.00    +0.000 A 
ATOM      6  C   UNL     1       2.825   3.404  18.333  0.00  0.00    +0.000 A 
ATOM      7  C   UNL     1       1.775   4.103  18.872  0.00  0.00    +0.000 A 
ATOM      8  O   UNL     1       1.980   5.444  18.826  0.00  0.00    +0.000 OA
ATOM      9  C   UNL     1       3.208   5.625  18.226  0.00  0.00    +0.000 A 
ATOM     10  C   UNL     1       0.557   3.489  19.451  0.00  0.00    +0.000 C 
ATOM     11  C   UNL     1       0.527   2.003  18.990  0.00  0.00    +0.000 C 
ATOM     12  N   UNL     1       1.842   1.335  19.119  0.00  0.00    +0.000 NA
ATOM     13  C   UNL     1       2.856   1.925  18.226  0.00  0.00    +0.000 C 
ATOM     14  H   UNL     1       1.750   0.347  18.890  0.00  0.00    +0.000 HD
ENDROOT
BRANCH   3  15
ATOM     15  S   UNL     1       7.276   5.387  16.237  0.00  0.00    +0.000 S 
ATOM     16  O   UNL     1       7.806   6.734  16.121  0.00  0.00    +0.000 OA
ATOM     17  O   UNL     1       7.987   4.365  16.974  0.00  0.00    +0.000 OA
BRANCH  15  18
ATOM     18  C   UNL     1       7.027   4.799  14.578  0.00  0.00    +0.000 A 
ATOM     19  C   UNL     1       7.816   5.315  13.546  0.00  0.00    +0.000 A 
ATOM     20  C   UNL     1       7.554   4.931  12.232  0.00  0.00    +0.000 A 
ATOM     21  C   UNL     1       6.528   4.024  11.959  0.00  0.00    +0.000 A 
ATOM     22  C   UNL     1       5.776   3.477  13.000  0.00  0.00    +0.000 A 
ATOM     23  C   UNL     1       6.022   3.864  14.316  0.00  0.00    +0.000 A 
ENDBRANCH  15  18
ENDBRANCH   3  15
BRANCH   1  24
ATOM     24  O   UNL     1       3.276   8.034  18.316  0.00  0.00    +0.000 OA
BRANCH  24  25
ATOM     25  C   UNL     1       2.072   8.376  17.614  0.00  0.00    +0.000 C 
BRANCH  25  27
ATOM     26  C   UNL     1      -0.138   9.590  17.786  0.00  0.00    +0.000 C 
ATOM     27  C   UNL     1       1.290   9.499  18.321  0.00  0.00    +0.000 C 
ATOM     28  C   UNL     1       2.009  10.841  18.178  0.00  0.00    +0.000 C 
BRANCH  27  29
ATOM     29  O   UNL     1       1.227   9.174  19.719  0.00  0.00    +0.000 OA
ATOM     30  H   UNL     1       1.288   8.208  19.806  0.00  0.00    +0.000 HD
ENDBRANCH  27  29
ENDBRANCH  25  27
ENDBRANCH  24  25
ENDBRANCH   1  24
TORSDOF 6
ENDMDL
MODEL 5
REMARK VINA RESULT:      -7.9      2.398      7.073
REMARK  Name = 
REMARK  8 active torsions:
REMARK  status: ('A' for Active; 'I' for Inactive)
REMARK    1  A    between atoms: C_1  and  C_2
REMARK    2  A    between atoms: C_2  and  C_3
REMARK    3  A    between atoms: C_2  and  O_4
REMARK    4  A    between atoms: C_2  and  C_5
REMARK    5  A    between atoms: C_5  and  O_6
REMARK    6  A    between atoms: O_6  and  C_7
REMARK    7  A    between atoms: C_9  and  S_10
REMARK    8  A    between atoms: S_10  and  C_13
REMARK                            x       y       z     vdW  Elec       q    Type
REMARK                         _______ _______ _______ _____ _____    ______ ____
ROOT
ATOM      1  C   UNL     1       4.352   6.710  17.368  0.00  0.00    +0.000 A 
ATOM      2  C   UNL     1       3.611   7.894  17.559  0.00  0.00    +0.000 A 
ATOM      3  C   UNL     1       2.307   7.869  18.055  0.00  0.00    +0.000 A 
ATOM      4  C   UNL     1       1.675   6.674  18.395  0.00  0.00    +0.000 A 
ATOM      5  C   UNL     1       2.389   5.480  18.225  0.00  0.00    +0.000 A 
ATOM      6  C   UNL     1       2.077   4.124  18.457  0.00  0.00    +0.000 A 
ATOM      7  C   UNL     1       3.200   3.417  18.106  0.00  0.00    +0.000 A 
ATOM      8  O   UNL     1       4.191   4.230  17.657  0.00  0.00    +0.000 OA
ATOM      9  C   UNL     1       3.696   5.515  17.727  0.00  0.00    +0.000 A 
ATOM     10  C   UNL     1       3.335   1.944  18.189  0.00  0.00    +0.000 C 
ATOM     11  C   UNL     1       2.167   1.424  19.076  0.00  0.00    +0.000 C 
ATOM     12  N   UNL     1       0.866   2.044  18.735  0.00  0.00    +0.000 NA
ATOM     13  C   UNL     1       0.852   3.493  19.007  0.00  0.00    +0.000 C 
ATOM     14  H   UNL     1       0.124   1.609  19.280  0.00  0.00    +0.000 HD
ENDROOT
BRANCH   3  15
ATOM     15  S   UNL     1       1.369   9.375  18.221  0.00  0.00    +0.000 S 
ATOM     16  O   UNL     1       2.273  10.490  17.998  0.00  0.00    +0.000 OA
ATOM     17  O   UNL     1       0.186   9.197  17.405  0.00  0.00    +0.000 OA
BRANCH  15  18
ATOM     18  C   UNL     1       0.858   9.471  19.920  0.00  0.00    +0.000 A 
ATOM     19  C   UNL     1      -0.190  10.329  20.269  0.00  0.00    +0.000 A 
ATOM     20  C   UNL     1      -0.523  10.483  21.614  0.00  0.00    +0.000 A 
ATOM     21  C   UNL     1       0.169   9.769  22.594  0.00  0.00    +0.000 A 
ATOM     22  C   UNL     1       1.182   8.879  22.232  0.00  0.00    +0.000 A 
ATOM     23  C   UNL     1       1.532   8.727  20.892  0.00  0.00    +0.000 A 
ENDBRANCH  15  18
ENDBRANCH   3  15
BRANCH   1  24
ATOM     24  O   UNL     1       5.632   6.668  16.866  0.00  0.00    +0.000 OA
BRANCH  24  25
ATOM     25  C   UNL     1       5.754   6.215  15.510  0.00  0.00    +0.000 C 
BRANCH  25  27
ATOM     26  C   UNL     1       6.093   3.834  14.731  0.00  0.00    +0.000 C 
ATOM     27  C   UNL     1       6.754   5.051  15.377  0.00  0.00    +0.000 C 
ATOM     28  C   UNL     1       7.351   4.686  16.736  0.00  0.00    +0.000 C 
BRANCH  27  29
ATOM     29  O   UNL     1       7.822   5.489  14.524  0.00  0.00    +0.000 OA
ATOM     30  H   UNL     1       7.483   5.530  13.613  0.00  0.00    +0.000 HD
ENDBRANCH  27  29
ENDBRANCH  25  27
ENDBRANCH  24  25
ENDBRANCH   1  24
TORSDOF 6
ENDMDL
MODEL 6
REMARK VINA RESULT:      -7.9      2.146      4.508
REMARK  Name = 
REMARK  8 active torsions:
REMARK  status: ('A' for Active; 'I' for Inactive)
REMARK    1  A    between atoms: C_1  and  C_2
REMARK    2  A    between atoms: C_2  and  C_3
REMARK    3  A    between atoms: C_2  and  O_4
REMARK    4  A    between atoms: C_2  and  C_5
REMARK    5  A    between atoms: C_5  and  O_6
REMARK    6  A    between atoms: O_6  and  C_7
REMARK    7  A    between atoms: C_9  and  S_10
REMARK    8  A    between atoms: S_10  and  C_13
REMARK                            x       y       z     vdW  Elec       q    Type
REMARK                         _______ _______ _______ _____ _____    ______ ____
ROOT
ATOM      1  C   UNL     1       4.156   4.933  19.262  0.00  0.00    +0.000 A 
ATOM      2  C   UNL     1       5.329   4.765  18.499  0.00  0.00    +0.000 A 
ATOM      3  C   UNL     1       5.750   5.730  17.582  0.00  0.00    +0.000 A 
ATOM      4  C   UNL     1       5.036   6.910  17.380  0.00  0.00    +0.000 A 
ATOM      5  C   UNL     1       3.869   7.110  18.130  0.00  0.00    +0.000 A 
ATOM      6  C   UNL     1       2.922   8.154  18.188  0.00  0.00    +0.000 A 
ATOM      7  C   UNL     1       2.004   7.773  19.134  0.00  0.00    +0.000 A 
ATOM      8  O   UNL     1       2.297   6.559  19.666  0.00  0.00    +0.000 OA
ATOM      9  C   UNL     1       3.455   6.138  19.047  0.00  0.00    +0.000 A 
ATOM     10  C   UNL     1       0.822   8.570  19.536  0.00  0.00    +0.000 C 
ATOM     11  C   UNL     1       1.035  10.015  18.997  0.00  0.00    +0.000 C 
ATOM     12  N   UNL     1       1.521  10.040  17.598  0.00  0.00    +0.000 NA
ATOM     13  C   UNL     1       2.865   9.449  17.465  0.00  0.00    +0.000 C 
ATOM     14  H   UNL     1       1.560  11.001  17.265  0.00  0.00    +0.000 HD
ENDROOT
BRANCH   3  15
ATOM     15  S   UNL     1       7.199   5.460  16.581  0.00  0.00    +0.000 S 
ATOM     16  O   UNL     1       7.809   6.751  16.320  0.00  0.00    +0.000 OA
ATOM     17  O   UNL     1       7.940   4.402  17.236  0.00  0.00    +0.000 OA
BRANCH  15  18
ATOM     18  C   UNL     1       6.628   4.844  15.015  0.00  0.00    +0.000 A 
ATOM     19  C   UNL     1       5.376   4.225  14.941  0.00  0.00    +0.000 A 
ATOM     20  C   UNL     1       4.971   3.651  13.737  0.00  0.00    +0.000 A 
ATOM     21  C   UNL     1       5.801   3.717  12.616  0.00  0.00    +0.000 A 
ATOM     22  C   UNL     1       7.028   4.378  12.686  0.00  0.00    +0.000 A 
ATOM     23  C   UNL     1       7.448   4.945  13.888  0.00  0.00    +0.000 A 
ENDBRANCH  15  18
ENDBRANCH   3  15
BRANCH   1  24
ATOM     24  O   UNL     1       3.680   4.012  20.166  0.00  0.00    +0.000 OA
BRANCH  24  25
ATOM     25  C   UNL     1       3.405   2.706  19.639  0.00  0.00    +0.000 C 
BRANCH  25  27
ATOM     26  C   UNL     1       2.098   3.153  17.522  0.00  0.00    +0.000 C 
ATOM     27  C   UNL     1       2.025   2.636  18.958  0.00  0.00    +0.000 C 
ATOM     28  C   UNL     1       0.980   3.411  19.760  0.00  0.00    +0.000 C 
BRANCH  27  29
ATOM     29  O   UNL     1       1.627   1.257  18.920  0.00  0.00    +0.000 OA
ATOM     30  H   UNL     1       1.633   0.918  19.832  0.00  0.00    +0.000 HD
ENDBRANCH  27  29
ENDBRANCH  25  27
ENDBRANCH  24  25
ENDBRANCH   1  24
TORSDOF 6
ENDMDL
MODEL 7
REMARK VINA RESULT:      -7.8      2.227      7.114
REMARK  Name = 
REMARK  8 active torsions:
REMARK  status: ('A' for Active; 'I' for Inactive)
REMARK    1  A    between atoms: C_1  and  C_2
REMARK    2  A    between atoms: C_2  and  C_3
REMARK    3  A    between atoms: C_2  and  O_4
REMARK    4  A    between atoms: C_2  and  C_5
REMARK    5  A    between atoms: C_5  and  O_6
REMARK    6  A    between atoms: O_6  and  C_7
REMARK    7  A    between atoms: C_9  and  S_10
REMARK    8  A    between atoms: S_10  and  C_13
REMARK                            x       y       z     vdW  Elec       q    Type
REMARK                         _______ _______ _______ _____ _____    ______ ____
ROOT
ATOM      1  C   UNL     1       4.203   6.811  17.668  0.00  0.00    +0.000 A 
ATOM      2  C   UNL     1       3.434   7.993  17.680  0.00  0.00    +0.000 A 
ATOM      3  C   UNL     1       2.293   8.115  18.475  0.00  0.00    +0.000 A 
ATOM      4  C   UNL     1       1.861   7.079  19.301  0.00  0.00    +0.000 A 
ATOM      5  C   UNL     1       2.608   5.894  19.317  0.00  0.00    +0.000 A 
ATOM      6  C   UNL     1       2.473   4.673  20.011  0.00  0.00    +0.000 A 
ATOM      7  C   UNL     1       3.533   3.898  19.612  0.00  0.00    +0.000 A 
ATOM      8  O   UNL     1       4.318   4.538  18.708  0.00  0.00    +0.000 OA
ATOM      9  C   UNL     1       3.751   5.780  18.517  0.00  0.00    +0.000 A 
ATOM     10  C   UNL     1       3.804   2.522  20.090  0.00  0.00    +0.000 C 
ATOM     11  C   UNL     1       2.928   2.294  21.356  0.00  0.00    +0.000 C 
ATOM     12  N   UNL     1       1.537   2.774  21.188  0.00  0.00    +0.000 NA
ATOM     13  C   UNL     1       1.470   4.236  21.013  0.00  0.00    +0.000 C 
ATOM     14  H   UNL     1       0.985   2.524  22.006  0.00  0.00    +0.000 HD
ENDROOT
BRANCH   3  15
ATOM     15  S   UNL     1       1.303   9.596  18.419  0.00  0.00    +0.000 S 
ATOM     16  O   UNL     1       2.177  10.705  18.084  0.00  0.00    +0.000 OA
ATOM     17  O   UNL     1       0.156   9.273  17.596  0.00  0.00    +0.000 OA
BRANCH  15  18
ATOM     18  C   UNL     1       0.729   9.886  20.075  0.00  0.00    +0.000 A 
ATOM     19  C   UNL     1       1.209   9.082  21.114  0.00  0.00    +0.000 A 
ATOM     20  C   UNL     1       0.683   9.241  22.395  0.00  0.00    +0.000 A 
ATOM     21  C   UNL     1      -0.293  10.209  22.637  0.00  0.00    +0.000 A 
ATOM     22  C   UNL     1      -0.733  11.039  21.604  0.00  0.00    +0.000 A 
ATOM     23  C   UNL     1      -0.223  10.881  20.317  0.00  0.00    +0.000 A 
ENDBRANCH  15  18
ENDBRANCH   3  15
BRANCH   1  24
ATOM     24  O   UNL     1       5.323   6.623  16.894  0.00  0.00    +0.000 OA
BRANCH  24  25
ATOM     25  C   UNL     1       5.159   5.761  15.758  0.00  0.00    +0.000 C 
BRANCH  25  27
ATOM     26  C   UNL     1       7.310   4.849  16.723  0.00  0.00    +0.000 C 
ATOM     27  C   UNL     1       6.132   4.568  15.792  0.00  0.00    +0.000 C 
ATOM     28  C   UNL     1       6.623   4.223  14.386  0.00  0.00    +0.000 C 
BRANCH  27  29
ATOM     29  O   UNL     1       5.415   3.434  16.304  0.00  0.00    +0.000 OA
ATOM     30  H   UNL     1       4.463   3.615  16.217  0.00  0.00    +0.000 HD
ENDBRANCH  27  29
ENDBRANCH  25  27
ENDBRANCH  24  25
ENDBRANCH   1  24
TORSDOF 6
ENDMDL
MODEL 8
REMARK VINA RESULT:      -7.8      3.066      7.567
REMARK  Name = 
REMARK  8 active torsions:
REMARK  status: ('A' for Active; 'I' for Inactive)
REMARK    1  A    between atoms: C_1  and  C_2
REMARK    2  A    between atoms: C_2  and  C_3
REMARK    3  A    between atoms: C_2  and  O_4
REMARK    4  A    between atoms: C_2  and  C_5
REMARK    5  A    between atoms: C_5  and  O_6
REMARK    6  A    between atoms: O_6  and  C_7
REMARK    7  A    between atoms: C_9  and  S_10
REMARK    8  A    between atoms: S_10  and  C_13
REMARK                            x       y       z     vdW  Elec       q    Type
REMARK                         _______ _______ _______ _____ _____    ______ ____
ROOT
ATOM      1  C   UNL     1       2.131   6.547  19.947  0.00  0.00    +0.000 A 
ATOM      2  C   UNL     1       1.593   7.850  19.994  0.00  0.00    +0.000 A 
ATOM      3  C   UNL     1       1.900   8.804  19.023  0.00  0.00    +0.000 A 
ATOM      4  C   UNL     1       2.747   8.515  17.954  0.00  0.00    +0.000 A 
ATOM      5  C   UNL     1       3.292   7.226  17.875  0.00  0.00    +0.000 A 
ATOM      6  C   UNL     1       4.162   6.598  16.960  0.00  0.00    +0.000 A 
ATOM      7  C   UNL     1       4.318   5.313  17.416  0.00  0.00    +0.000 A 
ATOM      8  O   UNL     1       3.619   5.092  18.559  0.00  0.00    +0.000 OA
ATOM      9  C   UNL     1       2.978   6.276  18.853  0.00  0.00    +0.000 A 
ATOM     10  C   UNL     1       5.151   4.277  16.763  0.00  0.00    +0.000 C 
ATOM     11  C   UNL     1       5.473   4.784  15.327  0.00  0.00    +0.000 C 
ATOM     12  N   UNL     1       5.880   6.207  15.298  0.00  0.00    +0.000 NA
ATOM     13  C   UNL     1       4.789   7.106  15.715  0.00  0.00    +0.000 C 
ATOM     14  H   UNL     1       6.164   6.465  14.354  0.00  0.00    +0.000 HD
ENDROOT
BRANCH   3  15
ATOM     15  S   UNL     1       1.260  10.462  19.146  0.00  0.00    +0.000 S 
ATOM     16  O   UNL     1       1.176  10.805  20.554  0.00  0.00    +0.000 OA
ATOM     17  O   UNL     1       2.046  11.259  18.227  0.00  0.00    +0.000 OA
BRANCH  15  18
ATOM     18  C   UNL     1      -0.410  10.409  18.538  0.00  0.00    +0.000 A 
ATOM     19  C   UNL     1      -0.701   9.633  17.412  0.00  0.00    +0.000 A 
ATOM     20  C   UNL     1      -1.986   9.670  16.874  0.00  0.00    +0.000 A 
ATOM     21  C   UNL     1      -2.972  10.458  17.470  0.00  0.00    +0.000 A 
ATOM     22  C   UNL     1      -2.686  11.193  18.622  0.00  0.00    +0.000 A 
ATOM     23  C   UNL     1      -1.401  11.172  19.161  0.00  0.00    +0.000 A 
ENDBRANCH  15  18
ENDBRANCH   3  15
BRANCH   1  24
ATOM     24  O   UNL     1       1.882   5.571  20.883  0.00  0.00    +0.000 OA
BRANCH  24  25
ATOM     25  C   UNL     1       1.022   4.505  20.457  0.00  0.00    +0.000 C 
BRANCH  25  27
ATOM     26  C   UNL     1       1.365   2.249  19.369  0.00  0.00    +0.000 C 
ATOM     27  C   UNL     1       1.707   3.130  20.570  0.00  0.00    +0.000 C 
ATOM     28  C   UNL     1       1.327   2.434  21.877  0.00  0.00    +0.000 C 
BRANCH  27  29
ATOM     29  O   UNL     1       3.126   3.348  20.578  0.00  0.00    +0.000 OA
ATOM     30  H   UNL     1       3.405   3.548  19.667  0.00  0.00    +0.000 HD
ENDBRANCH  27  29
ENDBRANCH  25  27
ENDBRANCH  24  25
ENDBRANCH   1  24
TORSDOF 6
ENDMDL
MODEL 9
REMARK VINA RESULT:      -7.7      2.177      7.119
REMARK  Name = 
REMARK  8 active torsions:
REMARK  status: ('A' for Active; 'I' for Inactive)
REMARK    1  A    between atoms: C_1  and  C_2
REMARK    2  A    between atoms: C_2  and  C_3
REMARK    3  A    between atoms: C_2  and  O_4
REMARK    4  A    between atoms: C_2  and  C_5
REMARK    5  A    between atoms: C_5  and  O_6
REMARK    6  A    between atoms: O_6  and  C_7
REMARK    7  A    between atoms: C_9  and  S_10
REMARK    8  A    between atoms: S_10  and  C_13
REMARK                            x       y       z     vdW  Elec       q    Type
REMARK                         _______ _______ _______ _____ _____    ______ ____
ROOT
ATOM      1  C   UNL     1       4.301   6.886  17.717  0.00  0.00    +0.000 A 
ATOM      2  C   UNL     1       3.503   8.048  17.695  0.00  0.00    +0.000 A 
ATOM      3  C   UNL     1       2.316   8.134  18.425  0.00  0.00    +0.000 A 
ATOM      4  C   UNL     1       1.865   7.081  19.218  0.00  0.00    +0.000 A 
ATOM      5  C   UNL     1       2.641   5.914  19.267  0.00  0.00    +0.000 A 
ATOM      6  C   UNL     1       2.499   4.685  19.944  0.00  0.00    +0.000 A 
ATOM      7  C   UNL     1       3.600   3.941  19.600  0.00  0.00    +0.000 A 
ATOM      8  O   UNL     1       4.417   4.609  18.746  0.00  0.00    +0.000 OA
ATOM      9  C   UNL     1       3.830   5.837  18.533  0.00  0.00    +0.000 A 
ATOM     10  C   UNL     1       3.879   2.568  20.082  0.00  0.00    +0.000 C 
ATOM     11  C   UNL     1       2.940   2.307  21.296  0.00  0.00    +0.000 C 
ATOM     12  N   UNL     1       1.549   2.752  21.053  0.00  0.00    +0.000 NA
ATOM     13  C   UNL     1       1.454   4.213  20.885  0.00  0.00    +0.000 C 
ATOM     14  H   UNL     1       0.959   2.481  21.837  0.00  0.00    +0.000 HD
ENDROOT
BRANCH   3  15
ATOM     15  S   UNL     1       1.292   9.589  18.324  0.00  0.00    +0.000 S 
ATOM     16  O   UNL     1       2.156  10.725  18.053  0.00  0.00    +0.000 OA
ATOM     17  O   UNL     1       0.205   9.247  17.432  0.00  0.00    +0.000 OA
BRANCH  15  18
ATOM     18  C   UNL     1       0.614   9.847  19.946  0.00  0.00    +0.000 A 
ATOM     19  C   UNL     1      -0.367  10.827  20.127  0.00  0.00    +0.000 A 
ATOM     20  C   UNL     1      -0.825  11.101  21.415  0.00  0.00    +0.000 A 
ATOM     21  C   UNL     1      -0.324  10.385  22.504  0.00  0.00    +0.000 A 
ATOM     22  C   UNL     1       0.620   9.376  22.308  0.00  0.00    +0.000 A 
ATOM     23  C   UNL     1       1.094   9.102  21.027  0.00  0.00    +0.000 A 
ENDBRANCH  15  18
ENDBRANCH   3  15
BRANCH   1  24
ATOM     24  O   UNL     1       5.468   6.734  17.006  0.00  0.00    +0.000 OA
BRANCH  24  25
ATOM     25  C   UNL     1       5.353   6.022  15.765  0.00  0.00    +0.000 C 
BRANCH  25  27
ATOM     26  C   UNL     1       6.007   3.747  14.880  0.00  0.00    +0.000 C 
ATOM     27  C   UNL     1       6.504   5.019  15.565  0.00  0.00    +0.000 C 
ATOM     28  C   UNL     1       7.179   4.688  16.896  0.00  0.00    +0.000 C 
BRANCH  27  29
ATOM     29  O   UNL     1       7.480   5.638  14.713  0.00  0.00    +0.000 OA
ATOM     30  H   UNL     1       8.080   6.161  15.272  0.00  0.00    +0.000 HD
ENDBRANCH  27  29
ENDBRANCH  25  27
ENDBRANCH  24  25
ENDBRANCH   1  24
TORSDOF 6
ENDMDL
