MODEL 1
REMARK VINA RESULT:      -8.2      0.000      0.000
REMARK  Name = 
REMARK  6 active torsions:
REMARK  status: ('A' for Active; 'I' for Inactive)
REMARK    1  A    between atoms: O_1  and  N_2
REMARK    2  A    between atoms: C_3  and  C_12
REMARK    3  A    between atoms: N_4  and  C_5
REMARK    4  A    between atoms: C_5  and  C_6
REMARK    5  A    between atoms: C_15  and  O_16
REMARK    6  A    between atoms: O_16  and  C_17
REMARK                            x       y       z     vdW  Elec       q    Type
REMARK                         _______ _______ _______ _____ _____    ______ ____
ROOT
ATOM      1  C   UNL     1       2.277   7.206  19.470  0.00  0.00    +0.000 A 
ATOM      2  C   UNL     1       2.404   7.743  18.184  0.00  0.00    +0.000 A 
ATOM      3  C   UNL     1       1.818   8.976  17.891  0.00  0.00    +0.000 A 
ATOM      4  C   UNL     1       1.114   9.624  18.905  0.00  0.00    +0.000 A 
ATOM      5  N   UNL     1       1.009   9.141  20.166  0.00  0.00    +0.000 NA
ATOM      6  C   UNL     1       1.567   7.934  20.411  0.00  0.00    +0.000 A 
ENDROOT
BRANCH   1   8
ATOM      7  N   UNL     1       2.004   5.015  20.325  0.00  0.00    +0.000 NA
ATOM      8  C   UNL     1       2.852   5.869  19.827  0.00  0.00    +0.000 C 
ATOM      9  N   UNL     1       4.194   5.712  19.571  0.00  0.00    +0.000 N 
ATOM     10  H   UNL     1       4.799   6.470  19.862  0.00  0.00    +0.000 HD
BRANCH   7  11
ATOM     11  O   UNL     1       2.593   3.812  20.718  0.00  0.00    +0.000 OA
ATOM     12  H   UNL     1       2.376   3.779  21.669  0.00  0.00    +0.000 HD
ENDBRANCH   7  11
BRANCH   9  13
ATOM     13  C   UNL     1       4.876   4.450  19.387  0.00  0.00    +0.000 C 
BRANCH  13  14
ATOM     14  C   UNL     1       5.479   4.418  18.000  0.00  0.00    +0.000 A 
ATOM     15  C   UNL     1       6.847   4.649  17.805  0.00  0.00    +0.000 A 
ATOM     16  C   UNL     1       7.391   4.638  16.519  0.00  0.00    +0.000 A 
ATOM     17  C   UNL     1       6.573   4.403  15.414  0.00  0.00    +0.000 A 
ATOM     18  C   UNL     1       5.209   4.179  15.594  0.00  0.00    +0.000 A 
ATOM     19  C   UNL     1       4.665   4.192  16.879  0.00  0.00    +0.000 A 
ENDBRANCH  13  14
ENDBRANCH   9  13
ENDBRANCH   1   8
BRANCH   4  20
ATOM     20  O   UNL     1       0.505  10.833  18.588  0.00  0.00    +0.000 OA
BRANCH  20  21
ATOM     21  C   UNL     1      -0.860  10.827  18.376  0.00  0.00    +0.000 A 
ATOM     22  C   UNL     1      -1.620  11.768  19.076  0.00  0.00    +0.000 A 
ATOM     23  C   UNL     1      -3.004  11.837  18.883  0.00  0.00    +0.000 A 
ATOM     24  C   UNL     1      -3.625  10.972  17.982  0.00  0.00    +0.000 A 
ATOM     25 CL   UNL     1      -5.325  11.056  17.737  0.00  0.00    +0.000 Cl
ATOM     26  C   UNL     1      -2.872  10.043  17.268  0.00  0.00    +0.000 A 
ATOM     27  C   UNL     1      -1.490   9.983  17.451  0.00  0.00    +0.000 A 
ENDBRANCH  20  21
ENDBRANCH   4  20
TORSDOF 6
ENDMDL
MODEL 2
REMARK VINA RESULT:      -8.1      0.212      1.382
REMARK  Name = 
REMARK  6 active torsions:
REMARK  status: ('A' for Active; 'I' for Inactive)
REMARK    1  A    between atoms: O_1  and  N_2
REMARK    2  A    between atoms: C_3  and  C_12
REMARK    3  A    between atoms: N_4  and  C_5
REMARK    4  A    between atoms: C_5  and  C_6
REMARK    5  A    between atoms: C_15  and  O_16
REMARK    6  A    between atoms: O_16  and  C_17
REMARK                            x       y       z     vdW  Elec       q    Type
REMARK                         _______ _______ _______ _____ _____    ______ ____
ROOT
ATOM      1  C   UNL     1       2.311   7.194  19.338  0.00  0.00    +0.000 A 
ATOM      2  C   UNL     1       2.468   7.795  18.084  0.00  0.00    +0.000 A 
ATOM      3  C   UNL     1       1.928   9.061  17.854  0.00  0.00    +0.000 A 
ATOM      4  C   UNL     1       1.237   9.679  18.896  0.00  0.00    +0.000 A 
ATOM      5  N   UNL     1       1.104   9.133  20.129  0.00  0.00    +0.000 NA
ATOM      6  C   UNL     1       1.619   7.896  20.313  0.00  0.00    +0.000 A 
ENDROOT
BRANCH   1   8
ATOM      7  N   UNL     1       1.929   4.911  19.836  0.00  0.00    +0.000 NA
ATOM      8  C   UNL     1       2.836   5.821  19.627  0.00  0.00    +0.000 C 
ATOM      9  N   UNL     1       4.207   5.695  19.621  0.00  0.00    +0.000 N 
ATOM     10  H   UNL     1       4.726   6.408  20.119  0.00  0.00    +0.000 HD
BRANCH   7  11
ATOM     11  O   UNL     1       2.457   3.666  20.180  0.00  0.00    +0.000 OA
ATOM     12  H   UNL     1       1.850   3.053  19.726  0.00  0.00    +0.000 HD
ENDBRANCH   7  11
BRANCH   9  13
ATOM     13  C   UNL     1       4.940   4.467  19.414  0.00  0.00    +0.000 C 
BRANCH  13  14
ATOM     14  C   UNL     1       5.499   4.462  18.009  0.00  0.00    +0.000 A 
ATOM     15  C   UNL     1       4.667   4.235  16.905  0.00  0.00    +0.000 A 
ATOM     16  C   UNL     1       5.196   4.211  15.613  0.00  0.00    +0.000 A 
ATOM     17  C   UNL     1       6.561   4.405  15.410  0.00  0.00    +0.000 A 
ATOM     18  C   UNL     1       7.401   4.625  16.500  0.00  0.00    +0.000 A 
ATOM     19  C   UNL     1       6.874   4.648  17.792  0.00  0.00    +0.000 A 
ENDBRANCH  13  14
ENDBRANCH   9  13
ENDBRANCH   1   8
BRANCH   4  20
ATOM     20  O   UNL     1       0.673  10.923  18.641  0.00  0.00    +0.000 OA
BRANCH  20  21
ATOM     21  C   UNL     1      -0.697  10.984  18.473  0.00  0.00    +0.000 A 
ATOM     22  C   UNL     1      -1.272  10.074  17.581  0.00  0.00    +0.000 A 
ATOM     23  C   UNL     1      -2.658  10.061  17.388  0.00  0.00    +0.000 A 
ATOM     24  C   UNL     1      -3.467  10.950  18.095  0.00  0.00    +0.000 A 
ATOM     25 CL   UNL     1      -5.172  10.934  17.865  0.00  0.00    +0.000 Cl
ATOM     26  C   UNL     1      -2.903  11.849  18.997  0.00  0.00    +0.000 A 
ATOM     27  C   UNL     1      -1.522  11.853  19.199  0.00  0.00    +0.000 A 
ENDBRANCH  20  21
ENDBRANCH   4  20
TORSDOF 6
ENDMDL
MODEL 3
REMARK VINA RESULT:      -8.0      0.340      1.023
REMARK  Name = 
REMARK  6 active torsions:
REMARK  status: ('A' for Active; 'I' for Inactive)
REMARK    1  A    between atoms: O_1  and  N_2
REMARK    2  A    between atoms: C_3  and  C_12
REMARK    3  A    between atoms: N_4  and  C_5
REMARK    4  A    between atoms: C_5  and  C_6
REMARK    5  A    between atoms: C_15  and  O_16
REMARK    6  A    between atoms: O_16  and  C_17
REMARK                            x       y       z     vdW  Elec       q    Type
REMARK                         _______ _______ _______ _____ _____    ______ ____
ROOT
ATOM      1  C   UNL     1       2.114   7.480  19.530  0.00  0.00    +0.000 A 
ATOM      2  C   UNL     1       2.246   7.948  18.218  0.00  0.00    +0.000 A 
ATOM      3  C   UNL     1       1.666   9.167  17.859  0.00  0.00    +0.000 A 
ATOM      4  C   UNL     1       0.963   9.871  18.837  0.00  0.00    +0.000 A 
ATOM      5  N   UNL     1       0.854   9.455  20.121  0.00  0.00    +0.000 NA
ATOM      6  C   UNL     1       1.406   8.260  20.431  0.00  0.00    +0.000 A 
ENDROOT
BRANCH   1   8
ATOM      7  N   UNL     1       1.860   5.386  20.606  0.00  0.00    +0.000 NA
ATOM      8  C   UNL     1       2.682   6.161  19.959  0.00  0.00    +0.000 C 
ATOM      9  N   UNL     1       3.991   5.934  19.602  0.00  0.00    +0.000 N 
ATOM     10  H   UNL     1       4.641   6.694  19.767  0.00  0.00    +0.000 HD
BRANCH   7  11
ATOM     11  O   UNL     1       2.449   4.204  21.057  0.00  0.00    +0.000 OA
ATOM     12  H   UNL     1       1.783   3.536  20.809  0.00  0.00    +0.000 HD
ENDBRANCH   7  11
BRANCH   9  13
ATOM     13  C   UNL     1       4.619   4.638  19.477  0.00  0.00    +0.000 C 
BRANCH  13  14
ATOM     14  C   UNL     1       5.365   4.580  18.163  0.00  0.00    +0.000 A 
ATOM     15  C   UNL     1       6.766   4.614  18.130  0.00  0.00    +0.000 A 
ATOM     16  C   UNL     1       7.446   4.581  16.910  0.00  0.00    +0.000 A 
ATOM     17  C   UNL     1       6.735   4.523  15.712  0.00  0.00    +0.000 A 
ATOM     18  C   UNL     1       5.341   4.496  15.732  0.00  0.00    +0.000 A 
ATOM     19  C   UNL     1       4.661   4.530  16.950  0.00  0.00    +0.000 A 
ENDBRANCH  13  14
ENDBRANCH   9  13
ENDBRANCH   1   8
BRANCH   4  20
ATOM     20  O   UNL     1       0.360  11.064  18.455  0.00  0.00    +0.000 OA
BRANCH  20  21
ATOM     21  C   UNL     1      -1.018  11.088  18.373  0.00  0.00    +0.000 A 
ATOM     22  C   UNL     1      -1.631  10.088  17.611  0.00  0.00    +0.000 A 
ATOM     23  C   UNL     1      -3.025  10.036  17.512  0.00  0.00    +0.000 A 
ATOM     24  C   UNL     1      -3.806  10.977  18.184  0.00  0.00    +0.000 A 
ATOM     25 CL   UNL     1      -5.521  10.914  18.069  0.00  0.00    +0.000 Cl
ATOM     26  C   UNL     1      -3.205  11.966  18.958  0.00  0.00    +0.000 A 
ATOM     27  C   UNL     1      -1.814  12.010  19.067  0.00  0.00    +0.000 A 
ENDBRANCH  20  21
ENDBRANCH   4  20
TORSDOF 6
ENDMDL
MODEL 4
REMARK VINA RESULT:      -7.9      0.620      1.388
REMARK  Name = 
REMARK  6 active torsions:
REMARK  status: ('A' for Active; 'I' for Inactive)
REMARK    1  A    between atoms: O_1  and  N_2
REMARK    2  A    between atoms: C_3  and  C_12
REMARK    3  A    between atoms: N_4  and  C_5
REMARK    4  A    between atoms: C_5  and  C_6
REMARK    5  A    between atoms: C_15  and  O_16
REMARK    6  A    between atoms: O_16  and  C_17
REMARK                            x       y       z     vdW  Elec       q    Type
REMARK                         _______ _______ _______ _____ _____    ______ ____
ROOT
ATOM      1  C   UNL     1       2.386   7.026  19.431  0.00  0.00    +0.000 A 
ATOM      2  C   UNL     1       1.671   7.709  20.420  0.00  0.00    +0.000 A 
ATOM      3  C   UNL     1       1.086   8.941  20.121  0.00  0.00    +0.000 A 
ATOM      4  C   UNL     1       1.250   9.449  18.832  0.00  0.00    +0.000 A 
ATOM      5  N   UNL     1       1.906   8.788  17.849  0.00  0.00    +0.000 NA
ATOM      6  C   UNL     1       2.481   7.609  18.177  0.00  0.00    +0.000 A 
ENDROOT
BRANCH   1   8
ATOM      7  N   UNL     1       2.279   4.744  20.056  0.00  0.00    +0.000 NA
ATOM      8  C   UNL     1       3.067   5.720  19.709  0.00  0.00    +0.000 C 
ATOM      9  N   UNL     1       4.434   5.717  19.547  0.00  0.00    +0.000 N 
ATOM     10  H   UNL     1       4.936   6.497  19.955  0.00  0.00    +0.000 HD
BRANCH   7  11
ATOM     11  O   UNL     1       2.957   3.570  20.382  0.00  0.00    +0.000 OA
ATOM     12  H   UNL     1       3.865   3.892  20.535  0.00  0.00    +0.000 HD
ENDBRANCH   7  11
BRANCH   9  13
ATOM     13  C   UNL     1       5.252   4.551  19.303  0.00  0.00    +0.000 C 
BRANCH  13  14
ATOM     14  C   UNL     1       5.662   4.538  17.848  0.00  0.00    +0.000 A 
ATOM     15  C   UNL     1       4.727   4.264  16.840  0.00  0.00    +0.000 A 
ATOM     16  C   UNL     1       5.120   4.232  15.500  0.00  0.00    +0.000 A 
ATOM     17  C   UNL     1       6.449   4.467  15.153  0.00  0.00    +0.000 A 
ATOM     18  C   UNL     1       7.390   4.734  16.146  0.00  0.00    +0.000 A 
ATOM     19  C   UNL     1       6.999   4.763  17.485  0.00  0.00    +0.000 A 
ENDBRANCH  13  14
ENDBRANCH   9  13
ENDBRANCH   1   8
BRANCH   4  20
ATOM     20  O   UNL     1       0.693  10.693  18.560  0.00  0.00    +0.000 OA
BRANCH  20  21
ATOM     21  C   UNL     1      -0.675  10.758  18.378  0.00  0.00    +0.000 A 
ATOM     22  C   UNL     1      -1.370  11.735  19.098  0.00  0.00    +0.000 A 
ATOM     23  C   UNL     1      -2.752  11.875  18.937  0.00  0.00    +0.000 A 
ATOM     24  C   UNL     1      -3.436  11.046  18.047  0.00  0.00    +0.000 A 
ATOM     25 CL   UNL     1      -5.135  11.219  17.842  0.00  0.00    +0.000 Cl
ATOM     26  C   UNL     1      -2.749  10.082  17.314  0.00  0.00    +0.000 A 
ATOM     27  C   UNL     1      -1.368   9.951  17.466  0.00  0.00    +0.000 A 
ENDBRANCH  20  21
ENDBRANCH   4  20
TORSDOF 6
ENDMDL
MODEL 5
REMARK VINA RESULT:      -7.8      0.709      1.423
REMARK  Name = 
REMARK  6 active torsions:
REMARK  status: ('A' for Active; 'I' for Inactive)
REMARK    1  A    between atoms: O_1  and  N_2
REMARK    2  A    between atoms: C_3  and  C_12
REMARK    3  A    between atoms: N_4  and  C_5
REMARK    4  A    between atoms: C_5  and  C_6
REMARK    5  A    between atoms: C_15  and  O_16
REMARK    6  A    between atoms: O_16  and  C_17
REMARK                            x       y       z     vdW  Elec       q    Type
REMARK                         _______ _______ _______ _____ _____    ______ ____
ROOT
ATOM      1  C   UNL     1       2.459   7.033  19.268  0.00  0.00    +0.000 A 
ATOM      2  C   UNL     1       1.738   7.714  20.255  0.00  0.00    +0.000 A 
ATOM      3  C   UNL     1       1.180   8.961  19.965  0.00  0.00    +0.000 A 
ATOM      4  C   UNL     1       1.374   9.484  18.687  0.00  0.00    +0.000 A 
ATOM      5  N   UNL     1       2.036   8.827  17.705  0.00  0.00    +0.000 NA
ATOM      6  C   UNL     1       2.585   7.633  18.025  0.00  0.00    +0.000 A 
ENDROOT
BRANCH   1   8
ATOM      7  N   UNL     1       2.306   4.757  19.901  0.00  0.00    +0.000 NA
ATOM      8  C   UNL     1       3.112   5.712  19.538  0.00  0.00    +0.000 C 
ATOM      9  N   UNL     1       4.476   5.676  19.354  0.00  0.00    +0.000 N 
ATOM     10  H   UNL     1       5.004   6.444  19.750  0.00  0.00    +0.000 HD
BRANCH   7  11
ATOM     11  O   UNL     1       2.962   3.566  20.219  0.00  0.00    +0.000 OA
ATOM     12  H   UNL     1       2.887   3.544  21.191  0.00  0.00    +0.000 HD
ENDBRANCH   7  11
BRANCH   9  13
ATOM     13  C   UNL     1       5.261   4.489  19.099  0.00  0.00    +0.000 C 
BRANCH  13  14
ATOM     14  C   UNL     1       5.677   4.481  17.645  0.00  0.00    +0.000 A 
ATOM     15  C   UNL     1       7.007   4.725  17.276  0.00  0.00    +0.000 A 
ATOM     16  C   UNL     1       7.377   4.737  15.929  0.00  0.00    +0.000 A 
ATOM     17  C   UNL     1       6.423   4.512  14.938  0.00  0.00    +0.000 A 
ATOM     18  C   UNL     1       5.095   4.275  15.291  0.00  0.00    +0.000 A 
ATOM     19  C   UNL     1       4.725   4.265  16.637  0.00  0.00    +0.000 A 
ENDBRANCH  13  14
ENDBRANCH   9  13
ENDBRANCH   1   8
BRANCH   4  20
ATOM     20  O   UNL     1       0.844  10.742  18.424  0.00  0.00    +0.000 OA
BRANCH  20  21
ATOM     21  C   UNL     1      -0.529  10.850  18.316  0.00  0.00    +0.000 A 
ATOM     22  C   UNL     1      -1.177   9.941  17.474  0.00  0.00    +0.000 A 
ATOM     23  C   UNL     1      -2.570   9.974  17.344  0.00  0.00    +0.000 A 
ATOM     24  C   UNL     1      -3.313  10.909  18.065  0.00  0.00    +0.000 A 
ATOM     25 CL   UNL     1      -5.026  10.950  17.912  0.00  0.00    +0.000 Cl
ATOM     26  C   UNL     1      -2.677  11.807  18.918  0.00  0.00    +0.000 A 
ATOM     27  C   UNL     1      -1.289  11.765  19.057  0.00  0.00    +0.000 A 
ENDBRANCH  20  21
ENDBRANCH   4  20
TORSDOF 6
ENDMDL
MODEL 6
REMARK VINA RESULT:      -7.5      3.566      4.970
REMARK  Name = 
REMARK  6 active torsions:
REMARK  status: ('A' for Active; 'I' for Inactive)
REMARK    1  A    between atoms: O_1  and  N_2
REMARK    2  A    between atoms: C_3  and  C_12
REMARK    3  A    between atoms: N_4  and  C_5
REMARK    4  A    between atoms: C_5  and  C_6
REMARK    5  A    between atoms: C_15  and  O_16
REMARK    6  A    between atoms: O_16  and  C_17
REMARK                            x       y       z     vdW  Elec       q    Type
REMARK                         _______ _______ _______ _____ _____    ______ ____
ROOT
ATOM      1  C   UNL     1       0.619   9.507  20.915  0.00  0.00    +0.000 A 
ATOM      2  C   UNL     1      -0.022   9.044  22.069  0.00  0.00    +0.000 A 
ATOM      3  C   UNL     1      -0.690   9.948  22.898  0.00  0.00    +0.000 A 
ATOM      4  C   UNL     1      -0.681  11.296  22.538  0.00  0.00    +0.000 A 
ATOM      5  N   UNL     1      -0.099  11.762  21.408  0.00  0.00    +0.000 NA
ATOM      6  C   UNL     1       0.560  10.865  20.639  0.00  0.00    +0.000 A 
ENDROOT
BRANCH   1   8
ATOM      7  N   UNL     1       1.726   9.094  18.863  0.00  0.00    +0.000 NA
ATOM      8  C   UNL     1       1.383   8.587  20.013  0.00  0.00    +0.000 C 
ATOM      9  N   UNL     1       1.637   7.333  20.520  0.00  0.00    +0.000 N 
ATOM     10  H   UNL     1       0.858   6.862  20.964  0.00  0.00    +0.000 HD
BRANCH   7  11
ATOM     11  O   UNL     1       2.365   8.182  18.022  0.00  0.00    +0.000 OA
ATOM     12  H   UNL     1       2.617   7.472  18.641  0.00  0.00    +0.000 HD
ENDBRANCH   7  11
BRANCH   9  13
ATOM     13  C   UNL     1       2.695   6.447  20.090  0.00  0.00    +0.000 C 
BRANCH  13  14
ATOM     14  C   UNL     1       2.095   5.106  19.735  0.00  0.00    +0.000 A 
ATOM     15  C   UNL     1       2.048   4.669  18.403  0.00  0.00    +0.000 A 
ATOM     16  C   UNL     1       1.473   3.438  18.083  0.00  0.00    +0.000 A 
ATOM     17  C   UNL     1       0.933   2.634  19.085  0.00  0.00    +0.000 A 
ATOM     18  C   UNL     1       0.967   3.059  20.412  0.00  0.00    +0.000 A 
ATOM     19  C   UNL     1       1.540   4.290  20.733  0.00  0.00    +0.000 A 
ENDBRANCH  13  14
ENDBRANCH   9  13
ENDBRANCH   1   8
BRANCH   4  20
ATOM     20  O   UNL     1      -1.318  12.189  23.392  0.00  0.00    +0.000 OA
BRANCH  20  21
ATOM     21  C   UNL     1      -2.663  12.426  23.184  0.00  0.00    +0.000 A 
ATOM     22  C   UNL     1      -3.479  12.513  24.316  0.00  0.00    +0.000 A 
ATOM     23  C   UNL     1      -4.845  12.782  24.178  0.00  0.00    +0.000 A 
ATOM     24  C   UNL     1      -5.391  12.976  22.909  0.00  0.00    +0.000 A 
ATOM     25 CL   UNL     1      -7.069  13.313  22.734  0.00  0.00    +0.000 Cl
ATOM     26  C   UNL     1      -4.582  12.908  21.777  0.00  0.00    +0.000 A 
ATOM     27  C   UNL     1      -3.217  12.652  21.917  0.00  0.00    +0.000 A 
ENDBRANCH  20  21
ENDBRANCH   4  20
TORSDOF 6
ENDMDL
MODEL 7
REMARK VINA RESULT:      -7.5      3.454      4.865
REMARK  Name = 
REMARK  6 active torsions:
REMARK  status: ('A' for Active; 'I' for Inactive)
REMARK    1  A    between atoms: O_1  and  N_2
REMARK    2  A    between atoms: C_3  and  C_12
REMARK    3  A    between atoms: N_4  and  C_5
REMARK    4  A    between atoms: C_5  and  C_6
REMARK    5  A    between atoms: C_15  and  O_16
REMARK    6  A    between atoms: O_16  and  C_17
REMARK                            x       y       z     vdW  Elec       q    Type
REMARK                         _______ _______ _______ _____ _____    ______ ____
ROOT
ATOM      1  C   UNL     1       0.691   9.430  20.858  0.00  0.00    +0.000 A 
ATOM      2  C   UNL     1      -0.125   8.957  21.890  0.00  0.00    +0.000 A 
ATOM      3  C   UNL     1      -0.761   9.866  22.739  0.00  0.00    +0.000 A 
ATOM      4  C   UNL     1      -0.545  11.226  22.522  0.00  0.00    +0.000 A 
ATOM      5  N   UNL     1       0.211  11.708  21.507  0.00  0.00    +0.000 NA
ATOM      6  C   UNL     1       0.832  10.802  20.718  0.00  0.00    +0.000 A 
ENDROOT
BRANCH   1   8
ATOM      7  N   UNL     1       1.727   8.989  18.775  0.00  0.00    +0.000 NA
ATOM      8  C   UNL     1       1.428   8.500  19.944  0.00  0.00    +0.000 C 
ATOM      9  N   UNL     1       1.706   7.255  20.461  0.00  0.00    +0.000 N 
ATOM     10  H   UNL     1       0.945   6.787  20.940  0.00  0.00    +0.000 HD
BRANCH   7  11
ATOM     11  O   UNL     1       2.341   8.067  17.926  0.00  0.00    +0.000 OA
ATOM     12  H   UNL     1       2.455   8.586  17.108  0.00  0.00    +0.000 HD
ENDBRANCH   7  11
BRANCH   9  13
ATOM     13  C   UNL     1       2.753   6.367  20.009  0.00  0.00    +0.000 C 
BRANCH  13  14
ATOM     14  C   UNL     1       2.134   5.049  19.602  0.00  0.00    +0.000 A 
ATOM     15  C   UNL     1       1.358   4.310  20.505  0.00  0.00    +0.000 A 
ATOM     16  C   UNL     1       0.809   3.083  20.127  0.00  0.00    +0.000 A 
ATOM     17  C   UNL     1       1.033   2.578  18.847  0.00  0.00    +0.000 A 
ATOM     18  C   UNL     1       1.809   3.301  17.941  0.00  0.00    +0.000 A 
ATOM     19  C   UNL     1       2.360   4.526  18.319  0.00  0.00    +0.000 A 
ENDBRANCH  13  14
ENDBRANCH   9  13
ENDBRANCH   1   8
BRANCH   4  20
ATOM     20  O   UNL     1      -1.155  12.118  23.397  0.00  0.00    +0.000 OA
BRANCH  20  21
ATOM     21  C   UNL     1      -2.481  12.430  23.173  0.00  0.00    +0.000 A 
ATOM     22  C   UNL     1      -2.872  12.647  21.848  0.00  0.00    +0.000 A 
ATOM     23  C   UNL     1      -4.207  12.937  21.549  0.00  0.00    +0.000 A 
ATOM     24  C   UNL     1      -5.153  12.997  22.573  0.00  0.00    +0.000 A 
ATOM     25 CL   UNL     1      -6.797  13.347  22.208  0.00  0.00    +0.000 Cl
ATOM     26  C   UNL     1      -4.775  12.766  23.893  0.00  0.00    +0.000 A 
ATOM     27  C   UNL     1      -3.445  12.465  24.190  0.00  0.00    +0.000 A 
ENDBRANCH  20  21
ENDBRANCH   4  20
TORSDOF 6
ENDMDL
MODEL 8
REMARK VINA RESULT:      -7.5      0.979      1.110
REMARK  Name = 
REMARK  6 active torsions:
REMARK  status: ('A' for Active; 'I' for Inactive)
REMARK    1  A    between atoms: O_1  and  N_2
REMARK    2  A    between atoms: C_3  and  C_12
REMARK    3  A    between atoms: N_4  and  C_5
REMARK    4  A    between atoms: C_5  and  C_6
REMARK    5  A    between atoms: C_15  and  O_16
REMARK    6  A    between atoms: O_16  and  C_17
REMARK                            x       y       z     vdW  Elec       q    Type
REMARK                         _______ _______ _______ _____ _____    ______ ____
ROOT
ATOM      1  C   UNL     1       1.886   7.857  19.445  0.00  0.00    +0.000 A 
ATOM      2  C   UNL     1       1.965   8.451  18.181  0.00  0.00    +0.000 A 
ATOM      3  C   UNL     1       1.274   9.639  17.933  0.00  0.00    +0.000 A 
ATOM      4  C   UNL     1       0.519  10.186  18.970  0.00  0.00    +0.000 A 
ATOM      5  N   UNL     1       0.459   9.650  20.212  0.00  0.00    +0.000 NA
ATOM      6  C   UNL     1       1.118   8.486  20.412  0.00  0.00    +0.000 A 
ENDROOT
BRANCH   1   8
ATOM      7  N   UNL     1       2.007   5.837  20.675  0.00  0.00    +0.000 NA
ATOM      8  C   UNL     1       2.574   6.562  19.753  0.00  0.00    +0.000 C 
ATOM      9  N   UNL     1       3.704   6.299  19.014  0.00  0.00    +0.000 N 
ATOM     10  H   UNL     1       4.365   7.060  18.916  0.00  0.00    +0.000 HD
BRANCH   7  11
ATOM     11  O   UNL     1       2.720   4.679  20.988  0.00  0.00    +0.000 OA
ATOM     12  H   UNL     1       2.730   4.207  20.135  0.00  0.00    +0.000 HD
ENDBRANCH   7  11
BRANCH   9  13
ATOM     13  C   UNL     1       4.273   4.991  18.777  0.00  0.00    +0.000 C 
BRANCH  13  14
ATOM     14  C   UNL     1       4.812   4.940  17.366  0.00  0.00    +0.000 A 
ATOM     15  C   UNL     1       5.328   3.749  16.836  0.00  0.00    +0.000 A 
ATOM     16  C   UNL     1       5.843   3.717  15.538  0.00  0.00    +0.000 A 
ATOM     17  C   UNL     1       5.855   4.873  14.759  0.00  0.00    +0.000 A 
ATOM     18  C   UNL     1       5.351   6.065  15.277  0.00  0.00    +0.000 A 
ATOM     19  C   UNL     1       4.838   6.098  16.574  0.00  0.00    +0.000 A 
ENDBRANCH  13  14
ENDBRANCH   9  13
ENDBRANCH   1   8
BRANCH   4  20
ATOM     20  O   UNL     1      -0.192  11.350  18.698  0.00  0.00    +0.000 OA
BRANCH  20  21
ATOM     21  C   UNL     1      -1.553  11.237  18.496  0.00  0.00    +0.000 A 
ATOM     22  C   UNL     1      -2.382  12.082  19.241  0.00  0.00    +0.000 A 
ATOM     23  C   UNL     1      -3.769  12.041  19.063  0.00  0.00    +0.000 A 
ATOM     24  C   UNL     1      -4.325  11.163  18.132  0.00  0.00    +0.000 A 
ATOM     25 CL   UNL     1      -6.029  11.112  17.906  0.00  0.00    +0.000 Cl
ATOM     26  C   UNL     1      -3.506  10.329  17.375  0.00  0.00    +0.000 A 
ATOM     27  C   UNL     1      -2.121  10.380  17.544  0.00  0.00    +0.000 A 
ENDBRANCH  20  21
ENDBRANCH   4  20
TORSDOF 6
ENDMDL
MODEL 9
REMARK VINA RESULT:      -7.5      2.929      3.571
REMARK  Name = 
REMARK  6 active torsions:
REMARK  status: ('A' for Active; 'I' for Inactive)
REMARK    1  A    between atoms: O_1  and  N_2
REMARK    2  A    between atoms: C_3  and  C_12
REMARK    3  A    between atoms: N_4  and  C_5
REMARK    4  A    between atoms: C_5  and  C_6
REMARK    5  A    between atoms: C_15  and  O_16
REMARK    6  A    between atoms: O_16  and  C_17
REMARK                            x       y       z     vdW  Elec       q    Type
REMARK                         _______ _______ _______ _____ _____    ______ ____
ROOT
ATOM      1  C   UNL     1       2.283   7.180  19.393  0.00  0.00    +0.000 A 
ATOM      2  C   UNL     1       2.454   7.793  18.147  0.00  0.00    +0.000 A 
ATOM      3  C   UNL     1       1.958   9.081  17.938  0.00  0.00    +0.000 A 
ATOM      4  C   UNL     1       1.297   9.708  18.995  0.00  0.00    +0.000 A 
ATOM      5  N   UNL     1       1.152   9.149  20.220  0.00  0.00    +0.000 NA
ATOM      6  C   UNL     1       1.622   7.892  20.382  0.00  0.00    +0.000 A 
ENDROOT
BRANCH   1   8
ATOM      7  N   UNL     1       1.822   4.910  19.883  0.00  0.00    +0.000 NA
ATOM      8  C   UNL     1       2.760   5.785  19.659  0.00  0.00    +0.000 C 
ATOM      9  N   UNL     1       4.123   5.605  19.618  0.00  0.00    +0.000 N 
ATOM     10  H   UNL     1       4.682   6.292  20.109  0.00  0.00    +0.000 HD
BRANCH   7  11
ATOM     11  O   UNL     1       2.308   3.642  20.205  0.00  0.00    +0.000 OA
ATOM     12  H   UNL     1       1.725   3.379  20.941  0.00  0.00    +0.000 HD
ENDBRANCH   7  11
BRANCH   9  13
ATOM     13  C   UNL     1       4.802   4.350  19.384  0.00  0.00    +0.000 C 
BRANCH  13  14
ATOM     14  C   UNL     1       5.439   4.387  18.013  0.00  0.00    +0.000 A 
ATOM     15  C   UNL     1       6.811   4.631  17.864  0.00  0.00    +0.000 A 
ATOM     16  C   UNL     1       7.386   4.684  16.592  0.00  0.00    +0.000 A 
ATOM     17  C   UNL     1       6.597   4.501  15.458  0.00  0.00    +0.000 A 
ATOM     18  C   UNL     1       5.230   4.264  15.592  0.00  0.00    +0.000 A 
ATOM     19  C   UNL     1       4.654   4.212  16.863  0.00  0.00    +0.000 A 
ENDBRANCH  13  14
ENDBRANCH   9  13
ENDBRANCH   1   8
BRANCH   4  20
ATOM     20  O   UNL     1       0.777  10.976  18.760  0.00  0.00    +0.000 OA
BRANCH  20  21
ATOM     21  C   UNL     1       1.547  12.062  19.125  0.00  0.00    +0.000 A 
ATOM     22  C   UNL     1       2.327  12.657  18.128  0.00  0.00    +0.000 A 
ATOM     23  C   UNL     1       3.106  13.780  18.423  0.00  0.00    +0.000 A 
ATOM     24  C   UNL     1       3.097  14.315  19.712  0.00  0.00    +0.000 A 
ATOM     25 CL   UNL     1       4.050  15.700  20.078  0.00  0.00    +0.000 Cl
ATOM     26  C   UNL     1       2.310  13.739  20.706  0.00  0.00    +0.000 A 
ATOM     27  C   UNL     1       1.523  12.626  20.408  0.00  0.00    +0.000 A 
ENDBRANCH  20  21
ENDBRANCH   4  20
TORSDOF 6
ENDMDL
