MODEL 1
REMARK VINA RESULT:      -8.4      0.000      0.000
REMARK  Name = 
REMARK  7 active torsions:
REMARK  status: ('A' for Active; 'I' for Inactive)
REMARK    1  A    between atoms: C_1  and  C_2
REMARK    2  A    between atoms: C_2  and  N_3
REMARK    3  A    between atoms: C_2  and  C_19
REMARK    4  A    between atoms: C_8  and  N_9
REMARK    5  A    between atoms: C_14  and  C_15
REMARK    6  A    between atoms: C_15  and  C_16
REMARK    7  A    between atoms: N_21  and  C_22
REMARK                            x       y       z     vdW  Elec       q    Type
REMARK                         _______ _______ _______ _____ _____    ______ ____
ROOT
ATOM      1  N   UNL     1       7.865   5.086  17.638  0.00  0.00    +0.000 N 
ATOM      2  C   UNL     1       6.731   4.595  17.011  0.00  0.00    +0.000 A 
ATOM      3  N   UNL     1       6.798   4.438  15.687  0.00  0.00    +0.000 NA
ATOM      4  C   UNL     1       5.700   3.954  15.074  0.00  0.00    +0.000 A 
ATOM      5  C   UNL     1       4.536   3.650  15.734  0.00  0.00    +0.000 A 
ATOM      6  C   UNL     1       4.555   3.844  17.092  0.00  0.00    +0.000 A 
ATOM      7  N   UNL     1       5.653   4.287  17.738  0.00  0.00    +0.000 NA
ATOM      8  H   UNL     1       8.441   5.492  16.904  0.00  0.00    +0.000 HD
ENDROOT
BRANCH   6   9
ATOM      9  N   UNL     1       3.415   3.608  17.887  0.00  0.00    +0.000 N 
ATOM     10  C   UNL     1       2.985   2.322  18.154  0.00  0.00    +0.000 C 
ATOM     11  O   UNL     1       3.631   1.287  18.077  0.00  0.00    +0.000 OA
ATOM     12  O   UNL     1       1.646   2.321  18.423  0.00  0.00    +0.000 OA
ATOM     13  C   UNL     1       1.166   3.666  18.419  0.00  0.00    +0.000 C 
ATOM     14  C   UNL     1       2.300   4.524  17.884  0.00  0.00    +0.000 C 
BRANCH  14  15
ATOM     15  C   UNL     1       2.447   5.791  18.746  0.00  0.00    +0.000 C 
ATOM     16  C   UNL     1       2.971   7.028  18.041  0.00  0.00    +0.000 C 
ATOM     17  F   UNL     1       3.284   5.529  19.793  0.00  0.00    +0.000 F 
ENDBRANCH  14  15
ENDBRANCH   6   9
BRANCH   1  19
ATOM     18  C   UNL     1       8.429   5.520  19.953  0.00  0.00    +0.000 C 
ATOM     19  C   UNL     1       7.629   6.018  18.741  0.00  0.00    +0.000 C 
BRANCH  19  20
ATOM     20  C   UNL     1       7.965   7.462  18.445  0.00  0.00    +0.000 A 
ATOM     21  C   UNL     1       8.758   8.320  19.179  0.00  0.00    +0.000 A 
ATOM     22  N   UNL     1       8.769   9.522  18.505  0.00  0.00    +0.000 N 
ATOM     23  C   UNL     1       7.974   9.327  17.397  0.00  0.00    +0.000 A 
ATOM     24  N   UNL     1       7.468   8.114  17.343  0.00  0.00    +0.000 NA
BRANCH  22  25
ATOM     25  C   UNL     1       9.468  10.706  18.877  0.00  0.00    +0.000 A 
ATOM     26  C   UNL     1      10.153  11.458  17.907  0.00  0.00    +0.000 A 
ATOM     27  C   UNL     1      10.833  12.628  18.263  0.00  0.00    +0.000 A 
ATOM     28  C   UNL     1      10.835  13.056  19.588  0.00  0.00    +0.000 A 
ATOM     29 CL   UNL     1      11.674  14.496  20.012  0.00  0.00    +0.000 Cl
ATOM     30  C   UNL     1      10.162  12.309  20.552  0.00  0.00    +0.000 A 
ATOM     31  F   UNL     1      10.152  12.703  21.834  0.00  0.00    +0.000 F 
ATOM     32  C   UNL     1       9.479  11.143  20.209  0.00  0.00    +0.000 A 
ENDBRANCH  22  25
ENDBRANCH  19  20
ENDBRANCH   1  19
TORSDOF 5
ENDMDL
MODEL 2
REMARK VINA RESULT:      -8.1      5.853      8.376
REMARK  Name = 
REMARK  7 active torsions:
REMARK  status: ('A' for Active; 'I' for Inactive)
REMARK    1  A    between atoms: C_1  and  C_2
REMARK    2  A    between atoms: C_2  and  N_3
REMARK    3  A    between atoms: C_2  and  C_19
REMARK    4  A    between atoms: C_8  and  N_9
REMARK    5  A    between atoms: C_14  and  C_15
REMARK    6  A    between atoms: C_15  and  C_16
REMARK    7  A    between atoms: N_21  and  C_22
REMARK                            x       y       z     vdW  Elec       q    Type
REMARK                         _______ _______ _______ _____ _____    ______ ____
ROOT
ATOM      1  N   UNL     1       1.667   6.347  19.393  0.00  0.00    +0.000 N 
ATOM      2  C   UNL     1       2.654   5.374  19.410  0.00  0.00    +0.000 A 
ATOM      3  N   UNL     1       2.377   4.251  20.075  0.00  0.00    +0.000 NA
ATOM      4  C   UNL     1       3.331   3.299  20.090  0.00  0.00    +0.000 A 
ATOM      5  C   UNL     1       4.556   3.445  19.488  0.00  0.00    +0.000 A 
ATOM      6  C   UNL     1       4.756   4.632  18.829  0.00  0.00    +0.000 A 
ATOM      7  N   UNL     1       3.804   5.585  18.762  0.00  0.00    +0.000 NA
ATOM      8  H   UNL     1       1.019   6.107  20.138  0.00  0.00    +0.000 HD
ENDROOT
BRANCH   6   9
ATOM      9  N   UNL     1       5.982   4.929  18.200  0.00  0.00    +0.000 N 
ATOM     10  C   UNL     1       7.038   5.465  18.915  0.00  0.00    +0.000 C 
ATOM     11  O   UNL     1       7.212   5.437  20.124  0.00  0.00    +0.000 OA
ATOM     12  O   UNL     1       7.859   6.170  18.081  0.00  0.00    +0.000 OA
ATOM     13  C   UNL     1       7.388   6.039  16.739  0.00  0.00    +0.000 C 
ATOM     14  C   UNL     1       6.031   5.361  16.825  0.00  0.00    +0.000 C 
BRANCH  14  15
ATOM     15  C   UNL     1       5.928   4.261  15.753  0.00  0.00    +0.000 C 
ATOM     16  C   UNL     1       6.490   4.599  14.385  0.00  0.00    +0.000 C 
ATOM     17  F   UNL     1       4.617   3.917  15.587  0.00  0.00    +0.000 F 
ENDBRANCH  14  15
ENDBRANCH   6   9
BRANCH   1  19
ATOM     18  C   UNL     1       2.070   8.342  18.079  0.00  0.00    +0.000 C 
ATOM     19  C   UNL     1       2.136   7.731  19.486  0.00  0.00    +0.000 C 
BRANCH  19  20
ATOM     20  C   UNL     1       1.388   8.597  20.473  0.00  0.00    +0.000 A 
ATOM     21  C   UNL     1       0.513   9.631  20.207  0.00  0.00    +0.000 A 
ATOM     22  N   UNL     1       0.083  10.107  21.426  0.00  0.00    +0.000 N 
ATOM     23  C   UNL     1       0.727   9.336  22.368  0.00  0.00    +0.000 A 
ATOM     24  N   UNL     1       1.523   8.438  21.830  0.00  0.00    +0.000 NA
BRANCH  22  25
ATOM     25  C   UNL     1      -0.842  11.166  21.654  0.00  0.00    +0.000 A 
ATOM     26  C   UNL     1      -1.053  12.147  20.669  0.00  0.00    +0.000 A 
ATOM     27  C   UNL     1      -1.968  13.184  20.881  0.00  0.00    +0.000 A 
ATOM     28  C   UNL     1      -2.678  13.251  22.076  0.00  0.00    +0.000 A 
ATOM     29 CL   UNL     1      -3.801  14.531  22.324  0.00  0.00    +0.000 Cl
ATOM     30  C   UNL     1      -2.468  12.284  23.056  0.00  0.00    +0.000 A 
ATOM     31  F   UNL     1      -3.142  12.330  24.214  0.00  0.00    +0.000 F 
ATOM     32  C   UNL     1      -1.561  11.244  22.856  0.00  0.00    +0.000 A 
ENDBRANCH  22  25
ENDBRANCH  19  20
ENDBRANCH   1  19
TORSDOF 5
ENDMDL
MODEL 3
REMARK VINA RESULT:      -8.1      5.873      8.445
REMARK  Name = 
REMARK  7 active torsions:
REMARK  status: ('A' for Active; 'I' for Inactive)
REMARK    1  A    between atoms: C_1  and  C_2
REMARK    2  A    between atoms: C_2  and  N_3
REMARK    3  A    between atoms: C_2  and  C_19
REMARK    4  A    between atoms: C_8  and  N_9
REMARK    5  A    between atoms: C_14  and  C_15
REMARK    6  A    between atoms: C_15  and  C_16
REMARK    7  A    between atoms: N_21  and  C_22
REMARK                            x       y       z     vdW  Elec       q    Type
REMARK                         _______ _______ _______ _____ _____    ______ ____
ROOT
ATOM      1  N   UNL     1       1.661   6.308  19.479  0.00  0.00    +0.000 N 
ATOM      2  C   UNL     1       2.654   5.340  19.477  0.00  0.00    +0.000 A 
ATOM      3  N   UNL     1       2.393   4.212  20.140  0.00  0.00    +0.000 NA
ATOM      4  C   UNL     1       3.352   3.265  20.135  0.00  0.00    +0.000 A 
ATOM      5  C   UNL     1       4.567   3.422  19.516  0.00  0.00    +0.000 A 
ATOM      6  C   UNL     1       4.751   4.613  18.861  0.00  0.00    +0.000 A 
ATOM      7  N   UNL     1       3.793   5.561  18.813  0.00  0.00    +0.000 NA
ATOM      8  H   UNL     1       1.025   6.059  20.233  0.00  0.00    +0.000 HD
ENDROOT
BRANCH   6   9
ATOM      9  N   UNL     1       5.967   4.921  18.217  0.00  0.00    +0.000 N 
ATOM     10  C   UNL     1       7.024   5.473  18.916  0.00  0.00    +0.000 C 
ATOM     11  O   UNL     1       7.213   5.453  20.123  0.00  0.00    +0.000 OA
ATOM     12  O   UNL     1       7.828   6.182  18.069  0.00  0.00    +0.000 OA
ATOM     13  C   UNL     1       7.342   6.038  16.733  0.00  0.00    +0.000 C 
ATOM     14  C   UNL     1       5.995   5.346  16.839  0.00  0.00    +0.000 C 
BRANCH  14  15
ATOM     15  C   UNL     1       5.892   4.239  15.774  0.00  0.00    +0.000 C 
ATOM     16  C   UNL     1       6.418   4.581  14.393  0.00  0.00    +0.000 C 
ATOM     17  F   UNL     1       4.584   3.868  15.636  0.00  0.00    +0.000 F 
ENDBRANCH  14  15
ENDBRANCH   6   9
BRANCH   1  19
ATOM     18  C   UNL     1       2.039   8.310  18.170  0.00  0.00    +0.000 C 
ATOM     19  C   UNL     1       2.123   7.693  19.573  0.00  0.00    +0.000 C 
BRANCH  19  20
ATOM     20  C   UNL     1       1.381   8.551  20.572  0.00  0.00    +0.000 A 
ATOM     21  C   UNL     1       0.449   9.537  20.322  0.00  0.00    +0.000 A 
ATOM     22  N   UNL     1       0.052  10.026  21.547  0.00  0.00    +0.000 N 
ATOM     23  C   UNL     1       0.774   9.310  22.477  0.00  0.00    +0.000 A 
ATOM     24  N   UNL     1       1.586   8.435  21.925  0.00  0.00    +0.000 NA
BRANCH  22  25
ATOM     25  C   UNL     1      -0.909  11.048  21.791  0.00  0.00    +0.000 A 
ATOM     26  C   UNL     1      -1.451  11.219  23.077  0.00  0.00    +0.000 A 
ATOM     27  C   UNL     1      -2.389  12.227  23.327  0.00  0.00    +0.000 A 
ATOM     28  C   UNL     1      -2.793  13.071  22.296  0.00  0.00    +0.000 A 
ATOM     29 CL   UNL     1      -3.946  14.307  22.616  0.00  0.00    +0.000 Cl
ATOM     30  C   UNL     1      -2.263  12.900  21.020  0.00  0.00    +0.000 A 
ATOM     31  F   UNL     1      -2.640  13.702  20.013  0.00  0.00    +0.000 F 
ATOM     32  C   UNL     1      -1.326  11.901  20.759  0.00  0.00    +0.000 A 
ENDBRANCH  22  25
ENDBRANCH  19  20
ENDBRANCH   1  19
TORSDOF 5
ENDMDL
MODEL 4
REMARK VINA RESULT:      -8.0      5.662      7.753
REMARK  Name = 
REMARK  7 active torsions:
REMARK  status: ('A' for Active; 'I' for Inactive)
REMARK    1  A    between atoms: C_1  and  C_2
REMARK    2  A    between atoms: C_2  and  N_3
REMARK    3  A    between atoms: C_2  and  C_19
REMARK    4  A    between atoms: C_8  and  N_9
REMARK    5  A    between atoms: C_14  and  C_15
REMARK    6  A    between atoms: C_15  and  C_16
REMARK    7  A    between atoms: N_21  and  C_22
REMARK                            x       y       z     vdW  Elec       q    Type
REMARK                         _______ _______ _______ _____ _____    ______ ____
ROOT
ATOM      1  N   UNL     1       1.692   6.186  18.168  0.00  0.00    +0.000 N 
ATOM      2  C   UNL     1       2.442   5.054  17.892  0.00  0.00    +0.000 A 
ATOM      3  N   UNL     1       1.870   3.877  18.151  0.00  0.00    +0.000 NA
ATOM      4  C   UNL     1       2.593   2.773  17.877  0.00  0.00    +0.000 A 
ATOM      5  C   UNL     1       3.872   2.810  17.382  0.00  0.00    +0.000 A 
ATOM      6  C   UNL     1       4.382   4.061  17.147  0.00  0.00    +0.000 A 
ATOM      7  N   UNL     1       3.666   5.182  17.371  0.00  0.00    +0.000 NA
ATOM      8  H   UNL     1       0.939   5.884  18.781  0.00  0.00    +0.000 HD
ENDROOT
BRANCH   6   9
ATOM      9  N   UNL     1       5.699   4.245  16.675  0.00  0.00    +0.000 N 
ATOM     10  C   UNL     1       6.733   4.537  17.545  0.00  0.00    +0.000 C 
ATOM     11  O   UNL     1       6.770   4.348  18.752  0.00  0.00    +0.000 OA
ATOM     12  O   UNL     1       7.726   5.203  16.886  0.00  0.00    +0.000 OA
ATOM     13  C   UNL     1       7.390   5.294  15.500  0.00  0.00    +0.000 C 
ATOM     14  C   UNL     1       5.953   4.816  15.376  0.00  0.00    +0.000 C 
BRANCH  14  15
ATOM     15  C   UNL     1       5.820   3.870  14.169  0.00  0.00    +0.000 C 
ATOM     16  C   UNL     1       6.880   4.000  13.091  0.00  0.00    +0.000 C 
ATOM     17  F   UNL     1       4.605   4.066  13.577  0.00  0.00    +0.000 F 
ENDBRANCH  14  15
ENDBRANCH   6   9
BRANCH   1  19
ATOM     18  C   UNL     1       2.737   8.283  17.554  0.00  0.00    +0.000 C 
ATOM     19  C   UNL     1       2.433   7.323  18.714  0.00  0.00    +0.000 C 
BRANCH  19  20
ATOM     20  C   UNL     1       1.744   8.059  19.840  0.00  0.00    +0.000 A 
ATOM     21  C   UNL     1       1.293   9.363  19.856  0.00  0.00    +0.000 A 
ATOM     22  N   UNL     1       0.729   9.571  21.096  0.00  0.00    +0.000 N 
ATOM     23  C   UNL     1       0.877   8.378  21.769  0.00  0.00    +0.000 A 
ATOM     24  N   UNL     1       1.491   7.463  21.051  0.00  0.00    +0.000 NA
BRANCH  22  25
ATOM     25  C   UNL     1       0.117  10.766  21.569  0.00  0.00    +0.000 A 
ATOM     26  C   UNL     1       0.559  12.019  21.109  0.00  0.00    +0.000 A 
ATOM     27  C   UNL     1      -0.044  13.198  21.560  0.00  0.00    +0.000 A 
ATOM     28  C   UNL     1      -1.092  13.136  22.475  0.00  0.00    +0.000 A 
ATOM     29 CL   UNL     1      -1.826  14.592  23.022  0.00  0.00    +0.000 Cl
ATOM     30  C   UNL     1      -1.529  11.897  22.937  0.00  0.00    +0.000 A 
ATOM     31  F   UNL     1      -2.536  11.815  23.818  0.00  0.00    +0.000 F 
ATOM     32  C   UNL     1      -0.937  10.715  22.493  0.00  0.00    +0.000 A 
ENDBRANCH  22  25
ENDBRANCH  19  20
ENDBRANCH   1  19
TORSDOF 5
ENDMDL
MODEL 5
REMARK VINA RESULT:      -7.9      5.526      7.635
REMARK  Name = 
REMARK  7 active torsions:
REMARK  status: ('A' for Active; 'I' for Inactive)
REMARK    1  A    between atoms: C_1  and  C_2
REMARK    2  A    between atoms: C_2  and  N_3
REMARK    3  A    between atoms: C_2  and  C_19
REMARK    4  A    between atoms: C_8  and  N_9
REMARK    5  A    between atoms: C_14  and  C_15
REMARK    6  A    between atoms: C_15  and  C_16
REMARK    7  A    between atoms: N_21  and  C_22
REMARK                            x       y       z     vdW  Elec       q    Type
REMARK                         _______ _______ _______ _____ _____    ______ ____
ROOT
ATOM      1  N   UNL     1       1.732   6.066  18.138  0.00  0.00    +0.000 N 
ATOM      2  C   UNL     1       2.485   4.943  17.834  0.00  0.00    +0.000 A 
ATOM      3  N   UNL     1       1.931   3.759  18.099  0.00  0.00    +0.000 NA
ATOM      4  C   UNL     1       2.657   2.664  17.798  0.00  0.00    +0.000 A 
ATOM      5  C   UNL     1       3.922   2.716  17.270  0.00  0.00    +0.000 A 
ATOM      6  C   UNL     1       4.415   3.974  17.032  0.00  0.00    +0.000 A 
ATOM      7  N   UNL     1       3.695   5.087  17.284  0.00  0.00    +0.000 NA
ATOM      8  H   UNL     1       0.998   5.752  18.768  0.00  0.00    +0.000 HD
ENDROOT
BRANCH   6   9
ATOM      9  N   UNL     1       5.717   4.174  16.529  0.00  0.00    +0.000 N 
ATOM     10  C   UNL     1       6.770   4.472  17.374  0.00  0.00    +0.000 C 
ATOM     11  O   UNL     1       6.840   4.277  18.578  0.00  0.00    +0.000 OA
ATOM     12  O   UNL     1       7.740   5.152  16.693  0.00  0.00    +0.000 OA
ATOM     13  C   UNL     1       7.367   5.246  15.317  0.00  0.00    +0.000 C 
ATOM     14  C   UNL     1       5.933   4.755  15.226  0.00  0.00    +0.000 C 
BRANCH  14  15
ATOM     15  C   UNL     1       5.779   3.814  14.018  0.00  0.00    +0.000 C 
ATOM     16  C   UNL     1       6.851   3.909  12.949  0.00  0.00    +0.000 C 
ATOM     17  F   UNL     1       4.575   4.048  13.416  0.00  0.00    +0.000 F 
ENDBRANCH  14  15
ENDBRANCH   6   9
BRANCH   1  19
ATOM     18  C   UNL     1       2.764   8.165  17.510  0.00  0.00    +0.000 C 
ATOM     19  C   UNL     1       2.477   7.206  18.674  0.00  0.00    +0.000 C 
BRANCH  19  20
ATOM     20  C   UNL     1       1.799   7.940  19.809  0.00  0.00    +0.000 A 
ATOM     21  C   UNL     1       1.339   9.241  19.827  0.00  0.00    +0.000 A 
ATOM     22  N   UNL     1       0.793   9.449  21.075  0.00  0.00    +0.000 N 
ATOM     23  C   UNL     1       0.959   8.260  21.749  0.00  0.00    +0.000 A 
ATOM     24  N   UNL     1       1.570   7.347  21.025  0.00  0.00    +0.000 NA
BRANCH  22  25
ATOM     25  C   UNL     1       0.180  10.642  21.553  0.00  0.00    +0.000 A 
ATOM     26  C   UNL     1      -0.775  10.584  22.583  0.00  0.00    +0.000 A 
ATOM     27  C   UNL     1      -1.375  11.753  23.066  0.00  0.00    +0.000 A 
ATOM     28  C   UNL     1      -1.027  12.987  22.523  0.00  0.00    +0.000 A 
ATOM     29 CL   UNL     1      -1.771  14.417  23.125  0.00  0.00    +0.000 Cl
ATOM     30  C   UNL     1      -0.086  13.047  21.499  0.00  0.00    +0.000 A 
ATOM     31  F   UNL     1       0.262  14.226  20.962  0.00  0.00    +0.000 F 
ATOM     32  C   UNL     1       0.520  11.890  21.011  0.00  0.00    +0.000 A 
ENDBRANCH  22  25
ENDBRANCH  19  20
ENDBRANCH   1  19
TORSDOF 5
ENDMDL
MODEL 6
REMARK VINA RESULT:      -7.7      5.811      8.323
REMARK  Name = 
REMARK  7 active torsions:
REMARK  status: ('A' for Active; 'I' for Inactive)
REMARK    1  A    between atoms: C_1  and  C_2
REMARK    2  A    between atoms: C_2  and  N_3
REMARK    3  A    between atoms: C_2  and  C_19
REMARK    4  A    between atoms: C_8  and  N_9
REMARK    5  A    between atoms: C_14  and  C_15
REMARK    6  A    between atoms: C_15  and  C_16
REMARK    7  A    between atoms: N_21  and  C_22
REMARK                            x       y       z     vdW  Elec       q    Type
REMARK                         _______ _______ _______ _____ _____    ______ ____
ROOT
ATOM      1  N   UNL     1       1.641   6.167  20.030  0.00  0.00    +0.000 N 
ATOM      2  C   UNL     1       2.601   5.189  19.821  0.00  0.00    +0.000 A 
ATOM      3  N   UNL     1       2.510   4.089  20.570  0.00  0.00    +0.000 NA
ATOM      4  C   UNL     1       3.437   3.132  20.365  0.00  0.00    +0.000 A 
ATOM      5  C   UNL     1       4.462   3.253  19.461  0.00  0.00    +0.000 A 
ATOM      6  C   UNL     1       4.481   4.418  18.737  0.00  0.00    +0.000 A 
ATOM      7  N   UNL     1       3.542   5.374  18.890  0.00  0.00    +0.000 NA
ATOM      8  H   UNL     1       1.209   5.953  20.926  0.00  0.00    +0.000 HD
ENDROOT
BRANCH   6   9
ATOM      9  N   UNL     1       5.501   4.689  17.802  0.00  0.00    +0.000 N 
ATOM     10  C   UNL     1       5.373   4.311  16.478  0.00  0.00    +0.000 C 
ATOM     11  O   UNL     1       4.346   4.046  15.873  0.00  0.00    +0.000 OA
ATOM     12  O   UNL     1       6.608   4.150  15.915  0.00  0.00    +0.000 OA
ATOM     13  C   UNL     1       7.608   4.510  16.869  0.00  0.00    +0.000 C 
ATOM     14  C   UNL     1       6.889   4.701  18.193  0.00  0.00    +0.000 C 
BRANCH  14  15
ATOM     15  C   UNL     1       7.400   5.978  18.885  0.00  0.00    +0.000 C 
ATOM     16  C   UNL     1       7.753   7.141  17.978  0.00  0.00    +0.000 C 
ATOM     17  F   UNL     1       8.511   5.677  19.620  0.00  0.00    +0.000 F 
ENDBRANCH  14  15
ENDBRANCH   6   9
BRANCH   1  19
ATOM     18  C   UNL     1       2.091   7.972  18.479  0.00  0.00    +0.000 C 
ATOM     19  C   UNL     1       2.113   7.550  19.955  0.00  0.00    +0.000 C 
BRANCH  19  20
ATOM     20  C   UNL     1       1.342   8.539  20.799  0.00  0.00    +0.000 A 
ATOM     21  C   UNL     1       0.445   9.499  20.379  0.00  0.00    +0.000 A 
ATOM     22  N   UNL     1      -0.001  10.146  21.511  0.00  0.00    +0.000 N 
ATOM     23  C   UNL     1       0.659   9.543  22.559  0.00  0.00    +0.000 A 
ATOM     24  N   UNL     1       1.478   8.592  22.164  0.00  0.00    +0.000 NA
BRANCH  22  25
ATOM     25  C   UNL     1      -0.951  11.204  21.574  0.00  0.00    +0.000 A 
ATOM     26  C   UNL     1      -1.379  11.844  20.398  0.00  0.00    +0.000 A 
ATOM     27  C   UNL     1      -2.320  12.878  20.451  0.00  0.00    +0.000 A 
ATOM     28  C   UNL     1      -2.840  13.282  21.678  0.00  0.00    +0.000 A 
ATOM     29 CL   UNL     1      -3.997  14.554  21.730  0.00  0.00    +0.000 Cl
ATOM     30  C   UNL     1      -2.414  12.654  22.845  0.00  0.00    +0.000 A 
ATOM     31  F   UNL     1      -2.902  13.029  24.037  0.00  0.00    +0.000 F 
ATOM     32  C   UNL     1      -1.479  11.621  22.805  0.00  0.00    +0.000 A 
ENDBRANCH  22  25
ENDBRANCH  19  20
ENDBRANCH   1  19
TORSDOF 5
ENDMDL
MODEL 7
REMARK VINA RESULT:      -7.7      1.208      1.293
REMARK  Name = 
REMARK  7 active torsions:
REMARK  status: ('A' for Active; 'I' for Inactive)
REMARK    1  A    between atoms: C_1  and  C_2
REMARK    2  A    between atoms: C_2  and  N_3
REMARK    3  A    between atoms: C_2  and  C_19
REMARK    4  A    between atoms: C_8  and  N_9
REMARK    5  A    between atoms: C_14  and  C_15
REMARK    6  A    between atoms: C_15  and  C_16
REMARK    7  A    between atoms: N_21  and  C_22
REMARK                            x       y       z     vdW  Elec       q    Type
REMARK                         _______ _______ _______ _____ _____    ______ ____
ROOT
ATOM      1  N   UNL     1       7.608   5.206  17.775  0.00  0.00    +0.000 N 
ATOM      2  C   UNL     1       6.373   4.623  17.538  0.00  0.00    +0.000 A 
ATOM      3  N   UNL     1       6.031   4.441  16.261  0.00  0.00    +0.000 NA
ATOM      4  C   UNL     1       4.834   3.867  16.025  0.00  0.00    +0.000 A 
ATOM      5  C   UNL     1       3.963   3.498  17.019  0.00  0.00    +0.000 A 
ATOM      6  C   UNL     1       4.395   3.723  18.302  0.00  0.00    +0.000 A 
ATOM      7  N   UNL     1       5.605   4.257  18.569  0.00  0.00    +0.000 NA
ATOM      8  H   UNL     1       7.892   5.634  16.898  0.00  0.00    +0.000 HD
ENDROOT
BRANCH   6   9
ATOM      9  N   UNL     1       3.583   3.427  19.416  0.00  0.00    +0.000 N 
ATOM     10  C   UNL     1       3.907   2.397  20.280  0.00  0.00    +0.000 C 
ATOM     11  O   UNL     1       4.997   1.867  20.435  0.00  0.00    +0.000 OA
ATOM     12  O   UNL     1       2.782   1.934  20.900  0.00  0.00    +0.000 OA
ATOM     13  C   UNL     1       1.666   2.732  20.503  0.00  0.00    +0.000 C 
ATOM     14  C   UNL     1       2.155   3.621  19.373  0.00  0.00    +0.000 C 
BRANCH  14  15
ATOM     15  C   UNL     1       1.648   5.060  19.583  0.00  0.00    +0.000 C 
ATOM     16  C   UNL     1       2.707   6.144  19.654  0.00  0.00    +0.000 C 
ATOM     17  F   UNL     1       0.921   5.116  20.738  0.00  0.00    +0.000 F 
ENDBRANCH  14  15
ENDBRANCH   6   9
BRANCH   1  19
ATOM     18  C   UNL     1       8.655   5.585  19.926  0.00  0.00    +0.000 C 
ATOM     19  C   UNL     1       7.663   6.145  18.897  0.00  0.00    +0.000 C 
BRANCH  19  20
ATOM     20  C   UNL     1       8.029   7.564  18.529  0.00  0.00    +0.000 A 
ATOM     21  C   UNL     1       8.856   8.435  19.210  0.00  0.00    +0.000 A 
ATOM     22  N   UNL     1       8.885   9.603  18.481  0.00  0.00    +0.000 N 
ATOM     23  C   UNL     1       8.066   9.378  17.396  0.00  0.00    +0.000 A 
ATOM     24  N   UNL     1       7.530   8.177  17.406  0.00  0.00    +0.000 NA
BRANCH  22  25
ATOM     25  C   UNL     1       9.619  10.785  18.786  0.00  0.00    +0.000 A 
ATOM     26  C   UNL     1      10.355  11.441  17.784  0.00  0.00    +0.000 A 
ATOM     27  C   UNL     1      11.070  12.608  18.074  0.00  0.00    +0.000 A 
ATOM     28  C   UNL     1      11.057  13.129  19.365  0.00  0.00    +0.000 A 
ATOM     29 CL   UNL     1      11.940  14.565  19.708  0.00  0.00    +0.000 Cl
ATOM     30  C   UNL     1      10.333  12.479  20.361  0.00  0.00    +0.000 A 
ATOM     31  F   UNL     1      10.308  12.963  21.611  0.00  0.00    +0.000 F 
ATOM     32  C   UNL     1       9.615  11.316  20.084  0.00  0.00    +0.000 A 
ENDBRANCH  22  25
ENDBRANCH  19  20
ENDBRANCH   1  19
TORSDOF 5
ENDMDL
MODEL 8
REMARK VINA RESULT:      -7.7      1.694      2.389
REMARK  Name = 
REMARK  7 active torsions:
REMARK  status: ('A' for Active; 'I' for Inactive)
REMARK    1  A    between atoms: C_1  and  C_2
REMARK    2  A    between atoms: C_2  and  N_3
REMARK    3  A    between atoms: C_2  and  C_19
REMARK    4  A    between atoms: C_8  and  N_9
REMARK    5  A    between atoms: C_14  and  C_15
REMARK    6  A    between atoms: C_15  and  C_16
REMARK    7  A    between atoms: N_21  and  C_22
REMARK                            x       y       z     vdW  Elec       q    Type
REMARK                         _______ _______ _______ _____ _____    ______ ____
ROOT
ATOM      1  N   UNL     1       7.711   5.029  17.812  0.00  0.00    +0.000 N 
ATOM      2  C   UNL     1       6.480   4.742  17.244  0.00  0.00    +0.000 A 
ATOM      3  N   UNL     1       6.452   4.584  15.920  0.00  0.00    +0.000 NA
ATOM      4  C   UNL     1       5.258   4.298  15.364  0.00  0.00    +0.000 A 
ATOM      5  C   UNL     1       4.094   4.193  16.082  0.00  0.00    +0.000 A 
ATOM      6  C   UNL     1       4.214   4.373  17.437  0.00  0.00    +0.000 A 
ATOM      7  N   UNL     1       5.402   4.618  18.026  0.00  0.00    +0.000 NA
ATOM      8  H   UNL     1       8.310   5.335  17.050  0.00  0.00    +0.000 HD
ENDROOT
BRANCH   6   9
ATOM      9  N   UNL     1       3.091   4.331  18.290  0.00  0.00    +0.000 N 
ATOM     10  C   UNL     1       2.375   5.477  18.580  0.00  0.00    +0.000 C 
ATOM     11  O   UNL     1       2.351   6.523  17.950  0.00  0.00    +0.000 OA
ATOM     12  O   UNL     1       1.742   5.342  19.784  0.00  0.00    +0.000 OA
ATOM     13  C   UNL     1       1.972   4.026  20.289  0.00  0.00    +0.000 C 
ATOM     14  C   UNL     1       3.022   3.398  19.387  0.00  0.00    +0.000 C 
BRANCH  14  15
ATOM     15  C   UNL     1       2.616   1.954  19.040  0.00  0.00    +0.000 C 
ATOM     16  C   UNL     1       3.690   1.084  18.416  0.00  0.00    +0.000 C 
ATOM     17  F   UNL     1       1.555   1.980  18.181  0.00  0.00    +0.000 F 
ENDBRANCH  14  15
ENDBRANCH   6   9
BRANCH   1  19
ATOM     18  C   UNL     1       8.669   5.471  19.992  0.00  0.00    +0.000 C 
ATOM     19  C   UNL     1       7.693   5.982  18.923  0.00  0.00    +0.000 C 
BRANCH  19  20
ATOM     20  C   UNL     1       8.019   7.410  18.551  0.00  0.00    +0.000 A 
ATOM     21  C   UNL     1       8.792   8.316  19.246  0.00  0.00    +0.000 A 
ATOM     22  N   UNL     1       8.802   9.478  18.505  0.00  0.00    +0.000 N 
ATOM     23  C   UNL     1       8.025   9.212  17.399  0.00  0.00    +0.000 A 
ATOM     24  N   UNL     1       7.532   7.992  17.406  0.00  0.00    +0.000 NA
BRANCH  22  25
ATOM     25  C   UNL     1       9.483  10.688  18.819  0.00  0.00    +0.000 A 
ATOM     26  C   UNL     1       9.849  10.972  20.146  0.00  0.00    +0.000 A 
ATOM     27  C   UNL     1      10.528  12.154  20.461  0.00  0.00    +0.000 A 
ATOM     28  C   UNL     1      10.846  13.062  19.454  0.00  0.00    +0.000 A 
ATOM     29 CL   UNL     1      11.682  14.512  19.854  0.00  0.00    +0.000 Cl
ATOM     30  C   UNL     1      10.480  12.787  18.140  0.00  0.00    +0.000 A 
ATOM     31  F   UNL     1      10.777  13.648  17.155  0.00  0.00    +0.000 F 
ATOM     32  C   UNL     1       9.806  11.611  17.813  0.00  0.00    +0.000 A 
ENDBRANCH  22  25
ENDBRANCH  19  20
ENDBRANCH   1  19
TORSDOF 5
ENDMDL
MODEL 9
REMARK VINA RESULT:      -7.6      5.686      8.108
REMARK  Name = 
REMARK  7 active torsions:
REMARK  status: ('A' for Active; 'I' for Inactive)
REMARK    1  A    between atoms: C_1  and  C_2
REMARK    2  A    between atoms: C_2  and  N_3
REMARK    3  A    between atoms: C_2  and  C_19
REMARK    4  A    between atoms: C_8  and  N_9
REMARK    5  A    between atoms: C_14  and  C_15
REMARK    6  A    between atoms: C_15  and  C_16
REMARK    7  A    between atoms: N_21  and  C_22
REMARK                            x       y       z     vdW  Elec       q    Type
REMARK                         _______ _______ _______ _____ _____    ______ ____
ROOT
ATOM      1  N   UNL     1       1.610   6.210  19.749  0.00  0.00    +0.000 N 
ATOM      2  C   UNL     1       2.570   5.225  19.585  0.00  0.00    +0.000 A 
ATOM      3  N   UNL     1       2.433   4.124  20.326  0.00  0.00    +0.000 NA
ATOM      4  C   UNL     1       3.361   3.160  20.165  0.00  0.00    +0.000 A 
ATOM      5  C   UNL     1       4.430   3.273  19.313  0.00  0.00    +0.000 A 
ATOM      6  C   UNL     1       4.495   4.439  18.592  0.00  0.00    +0.000 A 
ATOM      7  N   UNL     1       3.557   5.403  18.701  0.00  0.00    +0.000 NA
ATOM      8  H   UNL     1       1.133   5.998  20.622  0.00  0.00    +0.000 HD
ENDROOT
BRANCH   6   9
ATOM      9  N   UNL     1       5.562   4.703  17.709  0.00  0.00    +0.000 N 
ATOM     10  C   UNL     1       5.500   4.318  16.382  0.00  0.00    +0.000 C 
ATOM     11  O   UNL     1       4.504   4.051  15.727  0.00  0.00    +0.000 OA
ATOM     12  O   UNL     1       6.761   4.150  15.884  0.00  0.00    +0.000 OA
ATOM     13  C   UNL     1       7.713   4.514  16.885  0.00  0.00    +0.000 C 
ATOM     14  C   UNL     1       6.928   4.713  18.170  0.00  0.00    +0.000 C 
BRANCH  14  15
ATOM     15  C   UNL     1       7.406   5.993  18.880  0.00  0.00    +0.000 C 
ATOM     16  C   UNL     1       7.724   7.179  17.989  0.00  0.00    +0.000 C 
ATOM     17  F   UNL     1       8.526   5.711  19.608  0.00  0.00    +0.000 F 
ENDBRANCH  14  15
ENDBRANCH   6   9
BRANCH   1  19
ATOM     18  C   UNL     1       1.966   8.079  18.251  0.00  0.00    +0.000 C 
ATOM     19  C   UNL     1       2.097   7.589  19.700  0.00  0.00    +0.000 C 
BRANCH  19  20
ATOM     20  C   UNL     1       1.410   8.547  20.645  0.00  0.00    +0.000 A 
ATOM     21  C   UNL     1       0.662   9.664  20.332  0.00  0.00    +0.000 A 
ATOM     22  N   UNL     1       0.240  10.204  21.527  0.00  0.00    +0.000 N 
ATOM     23  C   UNL     1       0.763   9.386  22.503  0.00  0.00    +0.000 A 
ATOM     24  N   UNL     1       1.478   8.399  22.009  0.00  0.00    +0.000 NA
BRANCH  22  25
ATOM     25  C   UNL     1      -0.574  11.359  21.704  0.00  0.00    +0.000 A 
ATOM     26  C   UNL     1      -1.272  11.556  22.908  0.00  0.00    +0.000 A 
ATOM     27  C   UNL     1      -2.066  12.693  23.094  0.00  0.00    +0.000 A 
ATOM     28  C   UNL     1      -2.170  13.642  22.080  0.00  0.00    +0.000 A 
ATOM     29 CL   UNL     1      -3.148  15.036  22.321  0.00  0.00    +0.000 Cl
ATOM     30  C   UNL     1      -1.484  13.447  20.884  0.00  0.00    +0.000 A 
ATOM     31  F   UNL     1      -1.571  14.348  19.894  0.00  0.00    +0.000 F 
ATOM     32  C   UNL     1      -0.689  12.319  20.688  0.00  0.00    +0.000 A 
ENDBRANCH  22  25
ENDBRANCH  19  20
ENDBRANCH   1  19
TORSDOF 5
ENDMDL
