MODEL 1
REMARK VINA RESULT:      -9.3      0.000      0.000
REMARK  Name = 
REMARK  2 active torsions:
REMARK  status: ('A' for Active; 'I' for Inactive)
REMARK    1  A    between atoms: C_1  and  N_2
REMARK    2  A    between atoms: C_3  and  C_5
REMARK                            x       y       z     vdW  Elec       q    Type
REMARK                         _______ _______ _______ _____ _____    ______ ____
ROOT
ATOM      1  C   UNL     1       3.305   4.895  19.615  0.00  0.00    +0.000 C 
ATOM      2  F   UNL     1       4.582   5.195  20.027  0.00  0.00    +0.000 F 
ATOM      3  C   UNL     1       2.688   3.963  20.643  0.00  0.00    +0.000 C 
ATOM      4  F   UNL     1       3.535   2.917  20.861  0.00  0.00    +0.000 F 
ATOM      5  F   UNL     1       2.590   4.593  21.848  0.00  0.00    +0.000 F 
ATOM      6  C   UNL     1       1.336   3.423  20.209  0.00  0.00    +0.000 C 
ATOM      7  F   UNL     1       0.456   4.449  20.075  0.00  0.00    +0.000 F 
ATOM      8  F   UNL     1       0.824   2.616  21.178  0.00  0.00    +0.000 F 
ATOM      9  C   UNL     1       1.473   2.659  18.906  0.00  0.00    +0.000 C 
ATOM     10  F   UNL     1       0.264   2.167  18.522  0.00  0.00    +0.000 F 
ATOM     11  F   UNL     1       2.277   1.579  19.080  0.00  0.00    +0.000 F 
ATOM     12  C   UNL     1       2.036   3.566  17.827  0.00  0.00    +0.000 C 
ATOM     13  F   UNL     1       1.126   4.528  17.544  0.00  0.00    +0.000 F 
ATOM     14  F   UNL     1       2.202   2.867  16.671  0.00  0.00    +0.000 F 
ATOM     15  C   UNL     1       3.374   4.155  18.282  0.00  0.00    +0.000 C 
ATOM     16  F   UNL     1       3.916   4.944  17.320  0.00  0.00    +0.000 F 
ATOM     17  F   UNL     1       4.258   3.121  18.426  0.00  0.00    +0.000 F 
ENDROOT
BRANCH   1  20
ATOM     18  C   UNL     1       1.450   8.062  20.665  0.00  0.00    +0.000 C 
ATOM     19  N   UNL     1       2.175   6.814  20.675  0.00  0.00    +0.000 N 
ATOM     20  C   UNL     1       2.525   6.198  19.494  0.00  0.00    +0.000 C 
ATOM     21  O   UNL     1       2.233   6.693  18.410  0.00  0.00    +0.000 OA
ATOM     22  H   UNL     1       2.483   6.442  21.571  0.00  0.00    +0.000 HD
ENDBRANCH   1  20
TORSDOF 1
ENDMDL
MODEL 2
REMARK VINA RESULT:      -8.6      2.083      3.356
REMARK  Name = 
REMARK  2 active torsions:
REMARK  status: ('A' for Active; 'I' for Inactive)
REMARK    1  A    between atoms: C_1  and  N_2
REMARK    2  A    between atoms: C_3  and  C_5
REMARK                            x       y       z     vdW  Elec       q    Type
REMARK                         _______ _______ _______ _____ _____    ______ ____
ROOT
ATOM      1  C   UNL     1       3.545   2.638  18.707  0.00  0.00    +0.000 C 
ATOM      2  F   UNL     1       3.741   1.306  18.425  0.00  0.00    +0.000 F 
ATOM      3  C   UNL     1       3.128   2.751  20.162  0.00  0.00    +0.000 C 
ATOM      4  F   UNL     1       2.085   1.905  20.395  0.00  0.00    +0.000 F 
ATOM      5  F   UNL     1       4.131   2.308  20.973  0.00  0.00    +0.000 F 
ATOM      6  C   UNL     1       2.716   4.162  20.546  0.00  0.00    +0.000 C 
ATOM      7  F   UNL     1       3.774   5.003  20.403  0.00  0.00    +0.000 F 
ATOM      8  F   UNL     1       2.378   4.207  21.863  0.00  0.00    +0.000 F 
ATOM      9  C   UNL     1       1.550   4.617  19.687  0.00  0.00    +0.000 C 
ATOM     10  F   UNL     1       1.174   5.876  20.037  0.00  0.00    +0.000 F 
ATOM     11  F   UNL     1       0.468   3.827  19.914  0.00  0.00    +0.000 F 
ATOM     12  C   UNL     1       1.936   4.573  18.220  0.00  0.00    +0.000 C 
ATOM     13  F   UNL     1       2.890   5.506  17.990  0.00  0.00    +0.000 F 
ATOM     14  F   UNL     1       0.874   4.935  17.449  0.00  0.00    +0.000 F 
ATOM     15  C   UNL     1       2.404   3.165  17.842  0.00  0.00    +0.000 C 
ATOM     16  F   UNL     1       2.722   3.091  16.525  0.00  0.00    +0.000 F 
ATOM     17  F   UNL     1       1.340   2.317  17.994  0.00  0.00    +0.000 F 
ENDROOT
BRANCH   1  20
ATOM     18  C   UNL     1       6.335   4.357  16.749  0.00  0.00    +0.000 C 
ATOM     19  N   UNL     1       5.133   3.643  17.111  0.00  0.00    +0.000 N 
ATOM     20  C   UNL     1       4.847   3.380  18.432  0.00  0.00    +0.000 C 
ATOM     21  O   UNL     1       5.600   3.744  19.329  0.00  0.00    +0.000 OA
ATOM     22  H   UNL     1       4.472   3.408  16.374  0.00  0.00    +0.000 HD
ENDBRANCH   1  20
TORSDOF 1
ENDMDL
MODEL 3
REMARK VINA RESULT:      -8.6      1.946      3.733
REMARK  Name = 
REMARK  2 active torsions:
REMARK  status: ('A' for Active; 'I' for Inactive)
REMARK    1  A    between atoms: C_1  and  N_2
REMARK    2  A    between atoms: C_3  and  C_5
REMARK                            x       y       z     vdW  Elec       q    Type
REMARK                         _______ _______ _______ _____ _____    ______ ____
ROOT
ATOM      1  C   UNL     1       2.669   2.941  17.936  0.00  0.00    +0.000 C 
ATOM      2  F   UNL     1       2.306   2.141  16.878  0.00  0.00    +0.000 F 
ATOM      3  C   UNL     1       3.208   2.045  19.037  0.00  0.00    +0.000 C 
ATOM      4  F   UNL     1       2.307   1.053  19.287  0.00  0.00    +0.000 F 
ATOM      5  F   UNL     1       4.332   1.402  18.610  0.00  0.00    +0.000 F 
ATOM      6  C   UNL     1       3.482   2.802  20.326  0.00  0.00    +0.000 C 
ATOM      7  F   UNL     1       4.445   3.736  20.112  0.00  0.00    +0.000 F 
ATOM      8  F   UNL     1       3.985   1.955  21.265  0.00  0.00    +0.000 F 
ATOM      9  C   UNL     1       2.208   3.451  20.832  0.00  0.00    +0.000 C 
ATOM     10  F   UNL     1       2.450   4.119  21.991  0.00  0.00    +0.000 F 
ATOM     11  F   UNL     1       1.287   2.499  21.135  0.00  0.00    +0.000 F 
ATOM     12  C   UNL     1       1.656   4.400  19.784  0.00  0.00    +0.000 C 
ATOM     13  F   UNL     1       2.512   5.439  19.641  0.00  0.00    +0.000 F 
ATOM     14  F   UNL     1       0.488   4.946  20.220  0.00  0.00    +0.000 F 
ATOM     15  C   UNL     1       1.429   3.654  18.467  0.00  0.00    +0.000 C 
ATOM     16  F   UNL     1       0.903   4.475  17.522  0.00  0.00    +0.000 F 
ATOM     17  F   UNL     1       0.465   2.707  18.684  0.00  0.00    +0.000 F 
ENDROOT
BRANCH   1  20
ATOM     18  C   UNL     1       5.969   4.248  16.532  0.00  0.00    +0.000 C 
ATOM     19  N   UNL     1       4.917   3.394  17.030  0.00  0.00    +0.000 N 
ATOM     20  C   UNL     1       3.719   3.930  17.446  0.00  0.00    +0.000 C 
ATOM     21  O   UNL     1       3.515   5.139  17.403  0.00  0.00    +0.000 OA
ATOM     22  H   UNL     1       5.056   2.387  16.996  0.00  0.00    +0.000 HD
ENDBRANCH   1  20
TORSDOF 1
ENDMDL
MODEL 4
REMARK VINA RESULT:      -8.5      1.940      3.587
REMARK  Name = 
REMARK  2 active torsions:
REMARK  status: ('A' for Active; 'I' for Inactive)
REMARK    1  A    between atoms: C_1  and  N_2
REMARK    2  A    between atoms: C_3  and  C_5
REMARK                            x       y       z     vdW  Elec       q    Type
REMARK                         _______ _______ _______ _____ _____    ______ ____
ROOT
ATOM      1  C   UNL     1       3.596   4.808  17.876  0.00  0.00    +0.000 C 
ATOM      2  F   UNL     1       3.683   5.561  16.730  0.00  0.00    +0.000 F 
ATOM      3  C   UNL     1       3.633   3.343  17.478  0.00  0.00    +0.000 C 
ATOM      4  F   UNL     1       2.696   3.120  16.513  0.00  0.00    +0.000 F 
ATOM      5  F   UNL     1       4.825   3.048  16.887  0.00  0.00    +0.000 F 
ATOM      6  C   UNL     1       3.370   2.410  18.648  0.00  0.00    +0.000 C 
ATOM      7  F   UNL     1       4.348   2.558  19.579  0.00  0.00    +0.000 F 
ATOM      8  F   UNL     1       3.440   1.115  18.236  0.00  0.00    +0.000 F 
ATOM      9  C   UNL     1       2.008   2.699  19.250  0.00  0.00    +0.000 C 
ATOM     10  F   UNL     1       1.768   1.856  20.290  0.00  0.00    +0.000 F 
ATOM     11  F   UNL     1       1.032   2.451  18.337  0.00  0.00    +0.000 F 
ATOM     12  C   UNL     1       1.939   4.141  19.715  0.00  0.00    +0.000 C 
ATOM     13  F   UNL     1       2.792   4.308  20.753  0.00  0.00    +0.000 F 
ATOM     14  F   UNL     1       0.701   4.411  20.212  0.00  0.00    +0.000 F 
ATOM     15  C   UNL     1       2.256   5.084  18.551  0.00  0.00    +0.000 C 
ATOM     16  F   UNL     1       2.167   6.383  18.934  0.00  0.00    +0.000 F 
ATOM     17  F   UNL     1       1.275   4.929  17.609  0.00  0.00    +0.000 F 
ENDROOT
BRANCH   1  20
ATOM     18  C   UNL     1       7.191   5.457  18.984  0.00  0.00    +0.000 C 
ATOM     19  N   UNL     1       6.020   5.109  18.214  0.00  0.00    +0.000 N 
ATOM     20  C   UNL     1       4.766   5.177  18.779  0.00  0.00    +0.000 C 
ATOM     21  O   UNL     1       4.613   5.536  19.943  0.00  0.00    +0.000 OA
ATOM     22  H   UNL     1       6.139   4.885  17.229  0.00  0.00    +0.000 HD
ENDBRANCH   1  20
TORSDOF 1
ENDMDL
MODEL 5
REMARK VINA RESULT:      -8.4      1.916      3.494
REMARK  Name = 
REMARK  2 active torsions:
REMARK  status: ('A' for Active; 'I' for Inactive)
REMARK    1  A    between atoms: C_1  and  N_2
REMARK    2  A    between atoms: C_3  and  C_5
REMARK                            x       y       z     vdW  Elec       q    Type
REMARK                         _______ _______ _______ _____ _____    ______ ____
ROOT
ATOM      1  C   UNL     1       3.545   4.117  18.117  0.00  0.00    +0.000 C 
ATOM      2  F   UNL     1       3.782   4.398  16.792  0.00  0.00    +0.000 F 
ATOM      3  C   UNL     1       2.912   2.739  18.197  0.00  0.00    +0.000 C 
ATOM      4  F   UNL     1       1.847   2.687  17.348  0.00  0.00    +0.000 F 
ATOM      5  F   UNL     1       3.781   1.797  17.731  0.00  0.00    +0.000 F 
ATOM      6  C   UNL     1       2.446   2.388  19.600  0.00  0.00    +0.000 C 
ATOM      7  F   UNL     1       3.513   2.349  20.440  0.00  0.00    +0.000 F 
ATOM      8  F   UNL     1       1.913   1.136  19.614  0.00  0.00    +0.000 F 
ATOM      9  C   UNL     1       1.424   3.402  20.078  0.00  0.00    +0.000 C 
ATOM     10  F   UNL     1       0.998   3.082  21.330  0.00  0.00    +0.000 F 
ATOM     11  F   UNL     1       0.320   3.361  19.287  0.00  0.00    +0.000 F 
ATOM     12  C   UNL     1       2.027   4.794  20.068  0.00  0.00    +0.000 C 
ATOM     13  F   UNL     1       3.004   4.856  21.004  0.00  0.00    +0.000 F 
ATOM     14  F   UNL     1       1.094   5.708  20.453  0.00  0.00    +0.000 F 
ATOM     15  C   UNL     1       2.547   5.131  18.668  0.00  0.00    +0.000 C 
ATOM     16  F   UNL     1       3.061   6.387  18.625  0.00  0.00    +0.000 F 
ATOM     17  F   UNL     1       1.473   5.163  17.820  0.00  0.00    +0.000 F 
ENDROOT
BRANCH   1  20
ATOM     18  C   UNL     1       6.868   5.489  19.397  0.00  0.00    +0.000 C 
ATOM     19  N   UNL     1       5.605   5.332  18.717  0.00  0.00    +0.000 N 
ATOM     20  C   UNL     1       4.873   4.174  18.861  0.00  0.00    +0.000 C 
ATOM     21  O   UNL     1       5.272   3.254  19.567  0.00  0.00    +0.000 OA
ATOM     22  H   UNL     1       5.237   6.123  18.193  0.00  0.00    +0.000 HD
ENDBRANCH   1  20
TORSDOF 1
ENDMDL
MODEL 6
REMARK VINA RESULT:      -8.4      2.163      3.762
REMARK  Name = 
REMARK  2 active torsions:
REMARK  status: ('A' for Active; 'I' for Inactive)
REMARK    1  A    between atoms: C_1  and  N_2
REMARK    2  A    between atoms: C_3  and  C_5
REMARK                            x       y       z     vdW  Elec       q    Type
REMARK                         _______ _______ _______ _____ _____    ______ ____
ROOT
ATOM      1  C   UNL     1       3.566   3.835  17.734  0.00  0.00    +0.000 C 
ATOM      2  F   UNL     1       3.495   3.604  16.381  0.00  0.00    +0.000 F 
ATOM      3  C   UNL     1       2.852   2.696  18.442  0.00  0.00    +0.000 C 
ATOM      4  F   UNL     1       1.610   2.544  17.901  0.00  0.00    +0.000 F 
ATOM      5  F   UNL     1       3.492   1.518  18.196  0.00  0.00    +0.000 F 
ATOM      6  C   UNL     1       2.716   2.929  19.937  0.00  0.00    +0.000 C 
ATOM      7  F   UNL     1       3.949   2.994  20.504  0.00  0.00    +0.000 F 
ATOM      8  F   UNL     1       2.093   1.868  20.518  0.00  0.00    +0.000 F 
ATOM      9  C   UNL     1       1.938   4.205  20.198  0.00  0.00    +0.000 C 
ATOM     10  F   UNL     1       1.807   4.408  21.536  0.00  0.00    +0.000 F 
ATOM     11  F   UNL     1       0.674   4.089  19.712  0.00  0.00    +0.000 F 
ATOM     12  C   UNL     1       2.642   5.385  19.555  0.00  0.00    +0.000 C 
ATOM     13  F   UNL     1       3.821   5.591  20.189  0.00  0.00    +0.000 F 
ATOM     14  F   UNL     1       1.918   6.521  19.749  0.00  0.00    +0.000 F 
ATOM     15  C   UNL     1       2.830   5.132  18.056  0.00  0.00    +0.000 C 
ATOM     16  F   UNL     1       3.428   6.189  17.451  0.00  0.00    +0.000 F 
ATOM     17  F   UNL     1       1.588   5.058  17.487  0.00  0.00    +0.000 F 
ENDROOT
BRANCH   1  20
ATOM     18  C   UNL     1       7.314   4.496  17.444  0.00  0.00    +0.000 C 
ATOM     19  N   UNL     1       5.904   4.371  17.162  0.00  0.00    +0.000 N 
ATOM     20  C   UNL     1       5.036   3.911  18.127  0.00  0.00    +0.000 C 
ATOM     21  O   UNL     1       5.436   3.600  19.244  0.00  0.00    +0.000 OA
ATOM     22  H   UNL     1       5.560   4.700  16.262  0.00  0.00    +0.000 HD
ENDBRANCH   1  20
TORSDOF 1
ENDMDL
MODEL 7
REMARK VINA RESULT:      -8.3      1.451      1.661
REMARK  Name = 
REMARK  2 active torsions:
REMARK  status: ('A' for Active; 'I' for Inactive)
REMARK    1  A    between atoms: C_1  and  N_2
REMARK    2  A    between atoms: C_3  and  C_5
REMARK                            x       y       z     vdW  Elec       q    Type
REMARK                         _______ _______ _______ _____ _____    ______ ____
ROOT
ATOM      1  C   UNL     1       3.804   4.956  19.279  0.00  0.00    +0.000 C 
ATOM      2  F   UNL     1       4.788   5.468  20.091  0.00  0.00    +0.000 F 
ATOM      3  C   UNL     1       2.570   4.717  20.131  0.00  0.00    +0.000 C 
ATOM      4  F   UNL     1       2.919   3.983  21.226  0.00  0.00    +0.000 F 
ATOM      5  F   UNL     1       2.110   5.899  20.631  0.00  0.00    +0.000 F 
ATOM      6  C   UNL     1       1.469   3.991  19.378  0.00  0.00    +0.000 C 
ATOM      7  F   UNL     1       1.049   4.753  18.335  0.00  0.00    +0.000 F 
ATOM      8  F   UNL     1       0.384   3.828  20.182  0.00  0.00    +0.000 F 
ATOM      9  C   UNL     1       1.970   2.644  18.891  0.00  0.00    +0.000 C 
ATOM     10  F   UNL     1       0.981   1.989  18.226  0.00  0.00    +0.000 F 
ATOM     11  F   UNL     1       2.294   1.856  19.949  0.00  0.00    +0.000 F 
ATOM     12  C   UNL     1       3.175   2.833  17.988  0.00  0.00    +0.000 C 
ATOM     13  F   UNL     1       2.779   3.459  16.854  0.00  0.00    +0.000 F 
ATOM     14  F   UNL     1       3.652   1.622  17.590  0.00  0.00    +0.000 F 
ATOM     15  C   UNL     1       4.268   3.612  18.725  0.00  0.00    +0.000 C 
ATOM     16  F   UNL     1       5.371   3.764  17.949  0.00  0.00    +0.000 F 
ATOM     17  F   UNL     1       4.685   2.848  19.781  0.00  0.00    +0.000 F 
ENDROOT
BRANCH   1  20
ATOM     18  C   UNL     1       2.567   8.121  17.540  0.00  0.00    +0.000 C 
ATOM     19  N   UNL     1       2.854   7.102  18.521  0.00  0.00    +0.000 N 
ATOM     20  C   UNL     1       3.536   5.960  18.165  0.00  0.00    +0.000 C 
ATOM     21  O   UNL     1       3.918   5.782  17.012  0.00  0.00    +0.000 OA
ATOM     22  H   UNL     1       2.605   7.282  19.491  0.00  0.00    +0.000 HD
ENDBRANCH   1  20
TORSDOF 1
ENDMDL
MODEL 8
REMARK VINA RESULT:      -8.2      1.957      2.784
REMARK  Name = 
REMARK  2 active torsions:
REMARK  status: ('A' for Active; 'I' for Inactive)
REMARK    1  A    between atoms: C_1  and  N_2
REMARK    2  A    between atoms: C_3  and  C_5
REMARK                            x       y       z     vdW  Elec       q    Type
REMARK                         _______ _______ _______ _____ _____    ______ ____
ROOT
ATOM      1  C   UNL     1       4.064   3.184  18.260  0.00  0.00    +0.000 C 
ATOM      2  F   UNL     1       4.829   2.225  17.638  0.00  0.00    +0.000 F 
ATOM      3  C   UNL     1       3.640   2.639  19.613  0.00  0.00    +0.000 C 
ATOM      4  F   UNL     1       3.079   1.408  19.442  0.00  0.00    +0.000 F 
ATOM      5  F   UNL     1       4.735   2.423  20.395  0.00  0.00    +0.000 F 
ATOM      6  C   UNL     1       2.645   3.542  20.323  0.00  0.00    +0.000 C 
ATOM      7  F   UNL     1       3.222   4.745  20.579  0.00  0.00    +0.000 F 
ATOM      8  F   UNL     1       2.323   3.017  21.536  0.00  0.00    +0.000 F 
ATOM      9  C   UNL     1       1.399   3.715  19.475  0.00  0.00    +0.000 C 
ATOM     10  F   UNL     1       0.504   4.514  20.115  0.00  0.00    +0.000 F 
ATOM     11  F   UNL     1       0.778   2.518  19.309  0.00  0.00    +0.000 F 
ATOM     12  C   UNL     1       1.764   4.309  18.127  0.00  0.00    +0.000 C 
ATOM     13  F   UNL     1       2.206   5.575  18.312  0.00  0.00    +0.000 F 
ATOM     14  F   UNL     1       0.652   4.419  17.350  0.00  0.00    +0.000 F 
ATOM     15  C   UNL     1       2.807   3.430  17.431  0.00  0.00    +0.000 C 
ATOM     16  F   UNL     1       3.125   3.922  16.206  0.00  0.00    +0.000 F 
ATOM     17  F   UNL     1       2.229   2.215  17.180  0.00  0.00    +0.000 F 
ENDROOT
BRANCH   1  20
ATOM     18  C   UNL     1       6.896   5.493  19.364  0.00  0.00    +0.000 C 
ATOM     19  N   UNL     1       6.027   4.354  19.187  0.00  0.00    +0.000 N 
ATOM     20  C   UNL     1       4.903   4.448  18.397  0.00  0.00    +0.000 C 
ATOM     21  O   UNL     1       4.614   5.495  17.825  0.00  0.00    +0.000 OA
ATOM     22  H   UNL     1       6.305   3.466  19.598  0.00  0.00    +0.000 HD
ENDBRANCH   1  20
TORSDOF 1
ENDMDL
MODEL 9
REMARK VINA RESULT:      -8.2      2.210      3.450
REMARK  Name = 
REMARK  2 active torsions:
REMARK  status: ('A' for Active; 'I' for Inactive)
REMARK    1  A    between atoms: C_1  and  N_2
REMARK    2  A    between atoms: C_3  and  C_5
REMARK                            x       y       z     vdW  Elec       q    Type
REMARK                         _______ _______ _______ _____ _____    ______ ____
ROOT
ATOM      1  C   UNL     1       4.363   3.558  19.167  0.00  0.00    +0.000 C 
ATOM      2  F   UNL     1       5.082   3.132  20.259  0.00  0.00    +0.000 F 
ATOM      3  C   UNL     1       3.643   4.838  19.551  0.00  0.00    +0.000 C 
ATOM      4  F   UNL     1       2.953   4.632  20.708  0.00  0.00    +0.000 F 
ATOM      5  F   UNL     1       4.548   5.814  19.847  0.00  0.00    +0.000 F 
ATOM      6  C   UNL     1       2.678   5.313  18.477  0.00  0.00    +0.000 C 
ATOM      7  F   UNL     1       3.365   5.607  17.343  0.00  0.00    +0.000 F 
ATOM      8  F   UNL     1       2.083   6.473  18.865  0.00  0.00    +0.000 F 
ATOM      9  C   UNL     1       1.631   4.248  18.209  0.00  0.00    +0.000 C 
ATOM     10  F   UNL     1       0.761   4.676  17.255  0.00  0.00    +0.000 F 
ATOM     11  F   UNL     1       0.886   4.034  19.325  0.00  0.00    +0.000 F 
ATOM     12  C   UNL     1       2.300   2.959  17.768  0.00  0.00    +0.000 C 
ATOM     13  F   UNL     1       2.877   3.156  16.559  0.00  0.00    +0.000 F 
ATOM     14  F   UNL     1       1.363   1.991  17.574  0.00  0.00    +0.000 F 
ATOM     15  C   UNL     1       3.313   2.505  18.823  0.00  0.00    +0.000 C 
ATOM     16  F   UNL     1       3.901   1.335  18.468  0.00  0.00    +0.000 F 
ATOM     17  F   UNL     1       2.622   2.217  19.968  0.00  0.00    +0.000 F 
ENDROOT
BRANCH   1  20
ATOM     18  C   UNL     1       7.552   4.554  17.321  0.00  0.00    +0.000 C 
ATOM     19  N   UNL     1       6.557   4.323  18.341  0.00  0.00    +0.000 N 
ATOM     20  C   UNL     1       5.335   3.779  18.015  0.00  0.00    +0.000 C 
ATOM     21  O   UNL     1       5.063   3.477  16.857  0.00  0.00    +0.000 OA
ATOM     22  H   UNL     1       6.808   4.502  19.310  0.00  0.00    +0.000 HD
ENDBRANCH   1  20
TORSDOF 1
ENDMDL
