MODEL 1
REMARK VINA RESULT:      -8.1      0.000      0.000
REMARK  Name = 
REMARK  10 active torsions:
REMARK  status: ('A' for Active; 'I' for Inactive)
REMARK    1  A    between atoms: C_1  and  C_2
REMARK    2  A    between atoms: C_2  and  C_3
REMARK    3  A    between atoms: C_2  and  C_4
REMARK    4  A    between atoms: C_4  and  C_5
REMARK    5  A    between atoms: C_5  and  N_6
REMARK    6  A    between atoms: C_5  and  C_19
REMARK    7  A    between atoms: C_7  and  C_9
REMARK    8  A    between atoms: C_19  and  O_21
REMARK    9  A    between atoms: O_21  and  C_22
REMARK   10  A    between atoms: C_22  and  C_23
REMARK                            x       y       z     vdW  Elec       q    Type
REMARK                         _______ _______ _______ _____ _____    ______ ____
ROOT
ATOM      1  C   UNL     1       5.285   5.299  17.437  0.00  0.00    +0.000 C 
ENDROOT
BRANCH   1   2
ATOM      2  N   UNL     1       4.444   6.402  17.916  0.00  0.00    +0.000 N 
ATOM      3  C   UNL     1       3.070   6.327  17.942  0.00  0.00    +0.000 C 
ATOM      4  O   UNL     1       2.444   5.363  17.514  0.00  0.00    +0.000 OA
ATOM      5  H   UNL     1       4.877   7.214  18.354  0.00  0.00    +0.000 HD
BRANCH   3   6
ATOM      6  C   UNL     1       2.368   7.505  18.549  0.00  0.00    +0.000 A 
ATOM      7  C   UNL     1       2.029   7.459  19.897  0.00  0.00    +0.000 A 
ATOM      8  C   UNL     1       1.369   8.552  20.463  0.00  0.00    +0.000 A 
ATOM      9  C   UNL     1       1.005   8.564  21.819  0.00  0.00    +0.000 A 
ATOM     10  C   UNL     1       0.338   9.659  22.366  0.00  0.00    +0.000 A 
ATOM     11  C   UNL     1       0.026  10.757  21.565  0.00  0.00    +0.000 A 
ATOM     12  C   UNL     1       0.386  10.762  20.216  0.00  0.00    +0.000 A 
ATOM     13  C   UNL     1       1.064   9.661  19.653  0.00  0.00    +0.000 A 
ATOM     14  C   UNL     1       1.458   9.605  18.309  0.00  0.00    +0.000 A 
ATOM     15  N   UNL     1       2.106   8.561  17.733  0.00  0.00    +0.000 NA
ENDBRANCH   3   6
ENDBRANCH   1   2
BRANCH   1  16
ATOM     16  C   UNL     1       6.118   4.690  18.584  0.00  0.00    +0.000 C 
ATOM     17  O   UNL     1       7.321   4.466  18.520  0.00  0.00    +0.000 OA
BRANCH  16  18
ATOM     18  O   UNL     1       5.327   4.331  19.637  0.00  0.00    +0.000 OA
BRANCH  18  19
ATOM     19  C   UNL     1       4.802   3.001  19.580  0.00  0.00    +0.000 C 
BRANCH  19  20
ATOM     20  C   UNL     1       3.300   2.994  19.669  0.00  0.00    +0.000 A 
ATOM     21  C   UNL     1       2.640   3.766  20.637  0.00  0.00    +0.000 A 
ATOM     22  C   UNL     1       1.246   3.800  20.683  0.00  0.00    +0.000 A 
ATOM     23  C   UNL     1       0.499   3.058  19.769  0.00  0.00    +0.000 A 
ATOM     24  C   UNL     1       1.145   2.274  18.815  0.00  0.00    +0.000 A 
ATOM     25  C   UNL     1       2.540   2.238  18.768  0.00  0.00    +0.000 A 
ENDBRANCH  19  20
ENDBRANCH  18  19
ENDBRANCH  16  18
ENDBRANCH   1  16
BRANCH   1  26
ATOM     26  C   UNL     1       6.131   5.773  16.243  0.00  0.00    +0.000 C 
BRANCH  26  28
ATOM     27  C   UNL     1       5.754   3.563  15.000  0.00  0.00    +0.000 C 
ATOM     28  C   UNL     1       6.744   4.675  15.347  0.00  0.00    +0.000 C 
ATOM     29  C   UNL     1       7.290   5.300  14.060  0.00  0.00    +0.000 C 
ENDBRANCH  26  28
ENDBRANCH   1  26
TORSDOF 8
ENDMDL
MODEL 2
REMARK VINA RESULT:      -7.9      5.066      6.499
REMARK  Name = 
REMARK  10 active torsions:
REMARK  status: ('A' for Active; 'I' for Inactive)
REMARK    1  A    between atoms: C_1  and  C_2
REMARK    2  A    between atoms: C_2  and  C_3
REMARK    3  A    between atoms: C_2  and  C_4
REMARK    4  A    between atoms: C_4  and  C_5
REMARK    5  A    between atoms: C_5  and  N_6
REMARK    6  A    between atoms: C_5  and  C_19
REMARK    7  A    between atoms: C_7  and  C_9
REMARK    8  A    between atoms: C_19  and  O_21
REMARK    9  A    between atoms: O_21  and  C_22
REMARK   10  A    between atoms: C_22  and  C_23
REMARK                            x       y       z     vdW  Elec       q    Type
REMARK                         _______ _______ _______ _____ _____    ______ ____
ROOT
ATOM      1  C   UNL     1       7.116   6.405  18.165  0.00  0.00    +0.000 C 
ENDROOT
BRANCH   1   2
ATOM      2  N   UNL     1       8.028   7.500  18.519  0.00  0.00    +0.000 N 
ATOM      3  C   UNL     1       7.915   8.761  17.981  0.00  0.00    +0.000 C 
ATOM      4  O   UNL     1       7.087   9.051  17.123  0.00  0.00    +0.000 OA
ATOM      5  H   UNL     1       8.702   7.371  19.272  0.00  0.00    +0.000 HD
BRANCH   3   6
ATOM      6  C   UNL     1       8.868   9.784  18.522  0.00  0.00    +0.000 A 
ATOM      7  C   UNL     1       9.544  10.606  17.627  0.00  0.00    +0.000 A 
ATOM      8  C   UNL     1      10.437  11.555  18.129  0.00  0.00    +0.000 A 
ATOM      9  C   UNL     1      11.146  12.415  17.273  0.00  0.00    +0.000 A 
ATOM     10  C   UNL     1      12.041  13.351  17.790  0.00  0.00    +0.000 A 
ATOM     11  C   UNL     1      12.241  13.440  19.167  0.00  0.00    +0.000 A 
ATOM     12  C   UNL     1      11.540  12.595  20.030  0.00  0.00    +0.000 A 
ATOM     13  C   UNL     1      10.629  11.647  19.520  0.00  0.00    +0.000 A 
ATOM     14  C   UNL     1       9.890  10.775  20.330  0.00  0.00    +0.000 A 
ATOM     15  N   UNL     1       9.010   9.848  19.873  0.00  0.00    +0.000 NA
ENDBRANCH   3   6
ENDBRANCH   1   2
BRANCH   1  16
ATOM     16  C   UNL     1       6.909   5.442  19.351  0.00  0.00    +0.000 C 
ATOM     17  O   UNL     1       7.707   5.297  20.270  0.00  0.00    +0.000 OA
BRANCH  16  18
ATOM     18  O   UNL     1       5.779   4.693  19.192  0.00  0.00    +0.000 OA
BRANCH  18  19
ATOM     19  C   UNL     1       4.548   5.391  19.403  0.00  0.00    +0.000 C 
BRANCH  19  20
ATOM     20  C   UNL     1       3.359   4.517  19.113  0.00  0.00    +0.000 A 
ATOM     21  C   UNL     1       3.342   3.687  17.982  0.00  0.00    +0.000 A 
ATOM     22  C   UNL     1       2.261   2.837  17.745  0.00  0.00    +0.000 A 
ATOM     23  C   UNL     1       1.184   2.814  18.629  0.00  0.00    +0.000 A 
ATOM     24  C   UNL     1       1.183   3.646  19.747  0.00  0.00    +0.000 A 
ATOM     25  C   UNL     1       2.263   4.498  19.986  0.00  0.00    +0.000 A 
ENDBRANCH  19  20
ENDBRANCH  18  19
ENDBRANCH  16  18
ENDBRANCH   1  16
BRANCH   1  26
ATOM     26  C   UNL     1       7.611   5.712  16.884  0.00  0.00    +0.000 C 
BRANCH  26  28
ATOM     27  C   UNL     1       6.171   3.955  15.697  0.00  0.00    +0.000 C 
ATOM     28  C   UNL     1       6.554   5.432  15.794  0.00  0.00    +0.000 C 
ATOM     29  C   UNL     1       5.302   6.275  16.056  0.00  0.00    +0.000 C 
ENDBRANCH  26  28
ENDBRANCH   1  26
TORSDOF 8
ENDMDL
MODEL 3
REMARK VINA RESULT:      -7.9      1.563      2.440
REMARK  Name = 
REMARK  10 active torsions:
REMARK  status: ('A' for Active; 'I' for Inactive)
REMARK    1  A    between atoms: C_1  and  C_2
REMARK    2  A    between atoms: C_2  and  C_3
REMARK    3  A    between atoms: C_2  and  C_4
REMARK    4  A    between atoms: C_4  and  C_5
REMARK    5  A    between atoms: C_5  and  N_6
REMARK    6  A    between atoms: C_5  and  C_19
REMARK    7  A    between atoms: C_7  and  C_9
REMARK    8  A    between atoms: C_19  and  O_21
REMARK    9  A    between atoms: O_21  and  C_22
REMARK   10  A    between atoms: C_22  and  C_23
REMARK                            x       y       z     vdW  Elec       q    Type
REMARK                         _______ _______ _______ _____ _____    ______ ____
ROOT
ATOM      1  C   UNL     1       5.346   5.559  16.543  0.00  0.00    +0.000 C 
ENDROOT
BRANCH   1   2
ATOM      2  N   UNL     1       4.493   6.117  17.600  0.00  0.00    +0.000 N 
ATOM      3  C   UNL     1       3.619   7.155  17.374  0.00  0.00    +0.000 C 
ATOM      4  O   UNL     1       3.528   7.731  16.295  0.00  0.00    +0.000 OA
ATOM      5  H   UNL     1       4.451   5.658  18.509  0.00  0.00    +0.000 HD
BRANCH   3   6
ATOM      6  C   UNL     1       2.755   7.539  18.537  0.00  0.00    +0.000 A 
ATOM      7  C   UNL     1       2.081   8.754  18.496  0.00  0.00    +0.000 A 
ATOM      8  C   UNL     1       1.281   9.117  19.582  0.00  0.00    +0.000 A 
ATOM      9  C   UNL     1       0.573  10.331  19.595  0.00  0.00    +0.000 A 
ATOM     10  C   UNL     1      -0.213  10.683  20.692  0.00  0.00    +0.000 A 
ATOM     11  C   UNL     1      -0.302   9.828  21.789  0.00  0.00    +0.000 A 
ATOM     12  C   UNL     1       0.391   8.616  21.789  0.00  0.00    +0.000 A 
ATOM     13  C   UNL     1       1.187   8.248  20.685  0.00  0.00    +0.000 A 
ATOM     14  C   UNL     1       1.903   7.045  20.618  0.00  0.00    +0.000 A 
ATOM     15  N   UNL     1       2.682   6.661  19.574  0.00  0.00    +0.000 NA
ENDBRANCH   3   6
ENDBRANCH   1   2
BRANCH   1  16
ATOM     16  C   UNL     1       5.062   4.060  16.326  0.00  0.00    +0.000 C 
ATOM     17  O   UNL     1       5.808   3.295  15.724  0.00  0.00    +0.000 OA
BRANCH  16  18
ATOM     18  O   UNL     1       3.826   3.715  16.792  0.00  0.00    +0.000 OA
BRANCH  18  19
ATOM     19  C   UNL     1       3.790   2.552  17.625  0.00  0.00    +0.000 C 
BRANCH  19  20
ATOM     20  C   UNL     1       2.913   2.761  18.829  0.00  0.00    +0.000 A 
ATOM     21  C   UNL     1       3.432   2.612  20.124  0.00  0.00    +0.000 A 
ATOM     22  C   UNL     1       2.632   2.859  21.239  0.00  0.00    +0.000 A 
ATOM     23  C   UNL     1       1.304   3.248  21.073  0.00  0.00    +0.000 A 
ATOM     24  C   UNL     1       0.773   3.381  19.791  0.00  0.00    +0.000 A 
ATOM     25  C   UNL     1       1.572   3.134  18.674  0.00  0.00    +0.000 A 
ENDBRANCH  19  20
ENDBRANCH  18  19
ENDBRANCH  16  18
ENDBRANCH   1  16
BRANCH   1  26
ATOM     26  C   UNL     1       6.821   5.871  16.849  0.00  0.00    +0.000 C 
BRANCH  26  28
ATOM     27  C   UNL     1       7.920   5.969  19.163  0.00  0.00    +0.000 C 
ATOM     28  C   UNL     1       7.105   6.718  18.109  0.00  0.00    +0.000 C 
ATOM     29  C   UNL     1       7.831   8.007  17.714  0.00  0.00    +0.000 C 
ENDBRANCH  26  28
ENDBRANCH   1  26
TORSDOF 8
ENDMDL
MODEL 4
REMARK VINA RESULT:      -7.9      1.017      1.953
REMARK  Name = 
REMARK  10 active torsions:
REMARK  status: ('A' for Active; 'I' for Inactive)
REMARK    1  A    between atoms: C_1  and  C_2
REMARK    2  A    between atoms: C_2  and  C_3
REMARK    3  A    between atoms: C_2  and  C_4
REMARK    4  A    between atoms: C_4  and  C_5
REMARK    5  A    between atoms: C_5  and  N_6
REMARK    6  A    between atoms: C_5  and  C_19
REMARK    7  A    between atoms: C_7  and  C_9
REMARK    8  A    between atoms: C_19  and  O_21
REMARK    9  A    between atoms: O_21  and  C_22
REMARK   10  A    between atoms: C_22  and  C_23
REMARK                            x       y       z     vdW  Elec       q    Type
REMARK                         _______ _______ _______ _____ _____    ______ ____
ROOT
ATOM      1  C   UNL     1       4.962   5.429  17.991  0.00  0.00    +0.000 C 
ENDROOT
BRANCH   1   2
ATOM      2  N   UNL     1       4.128   6.479  18.592  0.00  0.00    +0.000 N 
ATOM      3  C   UNL     1       2.756   6.477  18.498  0.00  0.00    +0.000 C 
ATOM      4  O   UNL     1       2.129   5.639  17.858  0.00  0.00    +0.000 OA
ATOM      5  H   UNL     1       4.556   7.176  19.200  0.00  0.00    +0.000 HD
BRANCH   3   6
ATOM      6  C   UNL     1       2.054   7.569  19.249  0.00  0.00    +0.000 A 
ATOM      7  C   UNL     1       1.747   8.748  18.581  0.00  0.00    +0.000 A 
ATOM      8  C   UNL     1       1.100   9.770  19.280  0.00  0.00    +0.000 A 
ATOM      9  C   UNL     1       0.762  10.982  18.656  0.00  0.00    +0.000 A 
ATOM     10  C   UNL     1       0.124  11.995  19.371  0.00  0.00    +0.000 A 
ATOM     11  C   UNL     1      -0.184  11.810  20.718  0.00  0.00    +0.000 A 
ATOM     12  C   UNL     1       0.141  10.609  21.351  0.00  0.00    +0.000 A 
ATOM     13  C   UNL     1       0.783   9.576  20.638  0.00  0.00    +0.000 A 
ATOM     14  C   UNL     1       1.132   8.345  21.210  0.00  0.00    +0.000 A 
ATOM     15  N   UNL     1       1.754   7.332  20.555  0.00  0.00    +0.000 NA
ENDBRANCH   3   6
ENDBRANCH   1   2
BRANCH   1  16
ATOM     16  C   UNL     1       5.751   4.656  19.066  0.00  0.00    +0.000 C 
ATOM     17  O   UNL     1       6.592   5.160  19.802  0.00  0.00    +0.000 OA
BRANCH  16  18
ATOM     18  O   UNL     1       5.474   3.320  19.022  0.00  0.00    +0.000 OA
BRANCH  18  19
ATOM     19  C   UNL     1       4.736   2.811  20.137  0.00  0.00    +0.000 C 
BRANCH  19  20
ATOM     20  C   UNL     1       3.252   2.899  19.905  0.00  0.00    +0.000 A 
ATOM     21  C   UNL     1       2.663   2.258  18.805  0.00  0.00    +0.000 A 
ATOM     22  C   UNL     1       1.281   2.296  18.621  0.00  0.00    +0.000 A 
ATOM     23  C   UNL     1       0.475   2.982  19.529  0.00  0.00    +0.000 A 
ATOM     24  C   UNL     1       1.051   3.637  20.615  0.00  0.00    +0.000 A 
ATOM     25  C   UNL     1       2.434   3.600  20.801  0.00  0.00    +0.000 A 
ENDBRANCH  19  20
ENDBRANCH  18  19
ENDBRANCH  16  18
ENDBRANCH   1  16
BRANCH   1  26
ATOM     26  C   UNL     1       5.849   6.039  16.892  0.00  0.00    +0.000 C 
BRANCH  26  28
ATOM     27  C   UNL     1       7.135   5.028  14.919  0.00  0.00    +0.000 C 
ATOM     28  C   UNL     1       5.766   5.389  15.494  0.00  0.00    +0.000 C 
ATOM     29  C   UNL     1       4.885   4.138  15.555  0.00  0.00    +0.000 C 
ENDBRANCH  26  28
ENDBRANCH   1  26
TORSDOF 8
ENDMDL
MODEL 5
REMARK VINA RESULT:      -7.8      1.540      4.784
REMARK  Name = 
REMARK  10 active torsions:
REMARK  status: ('A' for Active; 'I' for Inactive)
REMARK    1  A    between atoms: C_1  and  C_2
REMARK    2  A    between atoms: C_2  and  C_3
REMARK    3  A    between atoms: C_2  and  C_4
REMARK    4  A    between atoms: C_4  and  C_5
REMARK    5  A    between atoms: C_5  and  N_6
REMARK    6  A    between atoms: C_5  and  C_19
REMARK    7  A    between atoms: C_7  and  C_9
REMARK    8  A    between atoms: C_19  and  O_21
REMARK    9  A    between atoms: O_21  and  C_22
REMARK   10  A    between atoms: C_22  and  C_23
REMARK                            x       y       z     vdW  Elec       q    Type
REMARK                         _______ _______ _______ _____ _____    ______ ____
ROOT
ATOM      1  C   UNL     1       3.398   4.851  18.254  0.00  0.00    +0.000 C 
ENDROOT
BRANCH   1   2
ATOM      2  N   UNL     1       2.681   6.071  18.644  0.00  0.00    +0.000 N 
ATOM      3  C   UNL     1       2.239   6.289  19.929  0.00  0.00    +0.000 C 
ATOM      4  O   UNL     1       2.354   5.462  20.827  0.00  0.00    +0.000 OA
ATOM      5  H   UNL     1       2.599   6.842  17.983  0.00  0.00    +0.000 HD
BRANCH   3   6
ATOM      6  C   UNL     1       1.609   7.627  20.178  0.00  0.00    +0.000 A 
ATOM      7  C   UNL     1       0.984   7.854  21.399  0.00  0.00    +0.000 A 
ATOM      8  C   UNL     1       0.391   9.097  21.631  0.00  0.00    +0.000 A 
ATOM      9  C   UNL     1      -0.252   9.385  22.846  0.00  0.00    +0.000 A 
ATOM     10  C   UNL     1      -0.847  10.628  23.058  0.00  0.00    +0.000 A 
ATOM     11  C   UNL     1      -0.809  11.599  22.059  0.00  0.00    +0.000 A 
ATOM     12  C   UNL     1      -0.170  11.330  20.847  0.00  0.00    +0.000 A 
ATOM     13  C   UNL     1       0.439  10.078  20.623  0.00  0.00    +0.000 A 
ATOM     14  C   UNL     1       1.101   9.745  19.433  0.00  0.00    +0.000 A 
ATOM     15  N   UNL     1       1.693   8.550  19.182  0.00  0.00    +0.000 NA
ENDBRANCH   3   6
ENDBRANCH   1   2
BRANCH   1  16
ATOM     16  C   UNL     1       4.783   5.180  17.661  0.00  0.00    +0.000 C 
ATOM     17  O   UNL     1       5.707   5.671  18.299  0.00  0.00    +0.000 OA
BRANCH  16  18
ATOM     18  O   UNL     1       4.814   4.958  16.315  0.00  0.00    +0.000 OA
BRANCH  18  19
ATOM     19  C   UNL     1       5.651   3.877  15.893  0.00  0.00    +0.000 C 
BRANCH  19  20
ATOM     20  C   UNL     1       6.221   4.121  14.522  0.00  0.00    +0.000 A 
ATOM     21  C   UNL     1       7.244   5.062  14.333  0.00  0.00    +0.000 A 
ATOM     22  C   UNL     1       7.808   5.248  13.070  0.00  0.00    +0.000 A 
ATOM     23  C   UNL     1       7.351   4.503  11.984  0.00  0.00    +0.000 A 
ATOM     24  C   UNL     1       6.323   3.578  12.158  0.00  0.00    +0.000 A 
ATOM     25  C   UNL     1       5.756   3.391  13.420  0.00  0.00    +0.000 A 
ENDBRANCH  19  20
ENDBRANCH  18  19
ENDBRANCH  16  18
ENDBRANCH   1  16
BRANCH   1  26
ATOM     26  C   UNL     1       2.512   4.005  17.323  0.00  0.00    +0.000 C 
BRANCH  26  28
ATOM     27  C   UNL     1       3.449   1.773  18.166  0.00  0.00    +0.000 C 
ATOM     28  C   UNL     1       2.199   2.565  17.783  0.00  0.00    +0.000 C 
ATOM     29  C   UNL     1       1.226   2.598  18.966  0.00  0.00    +0.000 C 
ENDBRANCH  26  28
ENDBRANCH   1  26
TORSDOF 8
ENDMDL
MODEL 6
REMARK VINA RESULT:      -7.7      1.583      2.335
REMARK  Name = 
REMARK  10 active torsions:
REMARK  status: ('A' for Active; 'I' for Inactive)
REMARK    1  A    between atoms: C_1  and  C_2
REMARK    2  A    between atoms: C_2  and  C_3
REMARK    3  A    between atoms: C_2  and  C_4
REMARK    4  A    between atoms: C_4  and  C_5
REMARK    5  A    between atoms: C_5  and  N_6
REMARK    6  A    between atoms: C_5  and  C_19
REMARK    7  A    between atoms: C_7  and  C_9
REMARK    8  A    between atoms: C_19  and  O_21
REMARK    9  A    between atoms: O_21  and  C_22
REMARK   10  A    between atoms: C_22  and  C_23
REMARK                            x       y       z     vdW  Elec       q    Type
REMARK                         _______ _______ _______ _____ _____    ______ ____
ROOT
ATOM      1  C   UNL     1       5.277   5.398  17.407  0.00  0.00    +0.000 C 
ENDROOT
BRANCH   1   2
ATOM      2  N   UNL     1       4.301   6.306  18.023  0.00  0.00    +0.000 N 
ATOM      3  C   UNL     1       3.746   7.365  17.344  0.00  0.00    +0.000 C 
ATOM      4  O   UNL     1       4.066   7.670  16.199  0.00  0.00    +0.000 OA
ATOM      5  H   UNL     1       3.925   6.091  18.945  0.00  0.00    +0.000 HD
BRANCH   3   6
ATOM      6  C   UNL     1       2.696   8.134  18.089  0.00  0.00    +0.000 A 
ATOM      7  C   UNL     1       2.356   7.726  19.374  0.00  0.00    +0.000 A 
ATOM      8  C   UNL     1       1.373   8.436  20.068  0.00  0.00    +0.000 A 
ATOM      9  C   UNL     1       0.991   8.073  21.370  0.00  0.00    +0.000 A 
ATOM     10  C   UNL     1       0.002   8.786  22.045  0.00  0.00    +0.000 A 
ATOM     11  C   UNL     1      -0.619   9.872  21.428  0.00  0.00    +0.000 A 
ATOM     12  C   UNL     1      -0.247  10.248  20.136  0.00  0.00    +0.000 A 
ATOM     13  C   UNL     1       0.755   9.536  19.445  0.00  0.00    +0.000 A 
ATOM     14  C   UNL     1       1.180   9.864  18.150  0.00  0.00    +0.000 A 
ATOM     15  N   UNL     1       2.136   9.199  17.454  0.00  0.00    +0.000 NA
ENDBRANCH   3   6
ENDBRANCH   1   2
BRANCH   1  16
ATOM     16  C   UNL     1       4.577   4.259  16.639  0.00  0.00    +0.000 C 
ATOM     17  O   UNL     1       5.089   3.630  15.719  0.00  0.00    +0.000 OA
BRANCH  16  18
ATOM     18  O   UNL     1       3.279   4.115  17.037  0.00  0.00    +0.000 OA
BRANCH  18  19
ATOM     19  C   UNL     1       2.926   2.810  17.507  0.00  0.00    +0.000 C 
BRANCH  19  20
ATOM     20  C   UNL     1       2.479   2.841  18.942  0.00  0.00    +0.000 A 
ATOM     21  C   UNL     1       3.379   2.545  19.976  0.00  0.00    +0.000 A 
ATOM     22  C   UNL     1       2.977   2.627  21.310  0.00  0.00    +0.000 A 
ATOM     23  C   UNL     1       1.669   2.996  21.623  0.00  0.00    +0.000 A 
ATOM     24  C   UNL     1       0.762   3.276  20.602  0.00  0.00    +0.000 A 
ATOM     25  C   UNL     1       1.162   3.194  19.268  0.00  0.00    +0.000 A 
ENDBRANCH  19  20
ENDBRANCH  18  19
ENDBRANCH  16  18
ENDBRANCH   1  16
BRANCH   1  26
ATOM     26  C   UNL     1       6.271   4.905  18.473  0.00  0.00    +0.000 C 
BRANCH  26  28
ATOM     27  C   UNL     1       7.653   6.984  17.890  0.00  0.00    +0.000 C 
ATOM     28  C   UNL     1       7.661   5.577  18.489  0.00  0.00    +0.000 C 
ATOM     29  C   UNL     1       8.196   5.629  19.923  0.00  0.00    +0.000 C 
ENDBRANCH  26  28
ENDBRANCH   1  26
TORSDOF 8
ENDMDL
MODEL 7
REMARK VINA RESULT:      -7.6      1.088      1.746
REMARK  Name = 
REMARK  10 active torsions:
REMARK  status: ('A' for Active; 'I' for Inactive)
REMARK    1  A    between atoms: C_1  and  C_2
REMARK    2  A    between atoms: C_2  and  C_3
REMARK    3  A    between atoms: C_2  and  C_4
REMARK    4  A    between atoms: C_4  and  C_5
REMARK    5  A    between atoms: C_5  and  N_6
REMARK    6  A    between atoms: C_5  and  C_19
REMARK    7  A    between atoms: C_7  and  C_9
REMARK    8  A    between atoms: C_19  and  O_21
REMARK    9  A    between atoms: O_21  and  C_22
REMARK   10  A    between atoms: C_22  and  C_23
REMARK                            x       y       z     vdW  Elec       q    Type
REMARK                         _______ _______ _______ _____ _____    ______ ____
ROOT
ATOM      1  C   UNL     1       5.119   5.732  18.246  0.00  0.00    +0.000 C 
ENDROOT
BRANCH   1   2
ATOM      2  N   UNL     1       4.192   6.706  18.835  0.00  0.00    +0.000 N 
ATOM      3  C   UNL     1       2.849   6.721  18.540  0.00  0.00    +0.000 C 
ATOM      4  O   UNL     1       2.334   5.966  17.721  0.00  0.00    +0.000 OA
ATOM      5  H   UNL     1       4.516   7.326  19.576  0.00  0.00    +0.000 HD
BRANCH   3   6
ATOM      6  C   UNL     1       2.029   7.720  19.301  0.00  0.00    +0.000 A 
ATOM      7  C   UNL     1       1.589   8.863  18.643  0.00  0.00    +0.000 A 
ATOM      8  C   UNL     1       0.832   9.798  19.352  0.00  0.00    +0.000 A 
ATOM      9  C   UNL     1       0.357  10.969  18.739  0.00  0.00    +0.000 A 
ATOM     10  C   UNL     1      -0.390  11.897  19.463  0.00  0.00    +0.000 A 
ATOM     11  C   UNL     1      -0.672  11.668  20.809  0.00  0.00    +0.000 A 
ATOM     12  C   UNL     1      -0.211  10.506  21.431  0.00  0.00    +0.000 A 
ATOM     13  C   UNL     1       0.542   9.558  20.708  0.00  0.00    +0.000 A 
ATOM     14  C   UNL     1       1.029   8.370  21.269  0.00  0.00    +0.000 A 
ATOM     15  N   UNL     1       1.761   7.440  20.605  0.00  0.00    +0.000 NA
ENDBRANCH   3   6
ENDBRANCH   1   2
BRANCH   1  16
ATOM     16  C   UNL     1       5.952   5.023  19.332  0.00  0.00    +0.000 C 
ATOM     17  O   UNL     1       7.010   5.450  19.780  0.00  0.00    +0.000 OA
BRANCH  16  18
ATOM     18  O   UNL     1       5.421   3.807  19.653  0.00  0.00    +0.000 OA
BRANCH  18  19
ATOM     19  C   UNL     1       4.587   3.221  18.648  0.00  0.00    +0.000 C 
BRANCH  19  20
ATOM     20  C   UNL     1       3.168   3.072  19.125  0.00  0.00    +0.000 A 
ATOM     21  C   UNL     1       2.788   3.541  20.391  0.00  0.00    +0.000 A 
ATOM     22  C   UNL     1       1.460   3.451  20.810  0.00  0.00    +0.000 A 
ATOM     23  C   UNL     1       0.501   2.883  19.972  0.00  0.00    +0.000 A 
ATOM     24  C   UNL     1       0.871   2.398  18.719  0.00  0.00    +0.000 A 
ATOM     25  C   UNL     1       2.199   2.487  18.298  0.00  0.00    +0.000 A 
ENDBRANCH  19  20
ENDBRANCH  18  19
ENDBRANCH  16  18
ENDBRANCH   1  16
BRANCH   1  26
ATOM     26  C   UNL     1       5.970   6.416  17.162  0.00  0.00    +0.000 C 
BRANCH  26  28
ATOM     27  C   UNL     1       7.391   4.477  16.273  0.00  0.00    +0.000 C 
ATOM     28  C   UNL     1       6.360   5.556  15.941  0.00  0.00    +0.000 C 
ATOM     29  C   UNL     1       5.109   4.907  15.342  0.00  0.00    +0.000 C 
ENDBRANCH  26  28
ENDBRANCH   1  26
TORSDOF 8
ENDMDL
MODEL 8
REMARK VINA RESULT:      -7.5      1.637      2.533
REMARK  Name = 
REMARK  10 active torsions:
REMARK  status: ('A' for Active; 'I' for Inactive)
REMARK    1  A    between atoms: C_1  and  C_2
REMARK    2  A    between atoms: C_2  and  C_3
REMARK    3  A    between atoms: C_2  and  C_4
REMARK    4  A    between atoms: C_4  and  C_5
REMARK    5  A    between atoms: C_5  and  N_6
REMARK    6  A    between atoms: C_5  and  C_19
REMARK    7  A    between atoms: C_7  and  C_9
REMARK    8  A    between atoms: C_19  and  O_21
REMARK    9  A    between atoms: O_21  and  C_22
REMARK   10  A    between atoms: C_22  and  C_23
REMARK                            x       y       z     vdW  Elec       q    Type
REMARK                         _______ _______ _______ _____ _____    ______ ____
ROOT
ATOM      1  C   UNL     1       4.786   4.907  17.672  0.00  0.00    +0.000 C 
ENDROOT
BRANCH   1   2
ATOM      2  N   UNL     1       3.908   5.771  18.471  0.00  0.00    +0.000 N 
ATOM      3  C   UNL     1       3.398   6.954  17.989  0.00  0.00    +0.000 C 
ATOM      4  O   UNL     1       3.684   7.408  16.886  0.00  0.00    +0.000 OA
ATOM      5  H   UNL     1       3.562   5.443  19.371  0.00  0.00    +0.000 HD
BRANCH   3   6
ATOM      6  C   UNL     1       2.443   7.666  18.900  0.00  0.00    +0.000 A 
ATOM      7  C   UNL     1       1.892   8.871  18.481  0.00  0.00    +0.000 A 
ATOM      8  C   UNL     1       1.007   9.539  19.330  0.00  0.00    +0.000 A 
ATOM      9  C   UNL     1       0.416  10.758  18.958  0.00  0.00    +0.000 A 
ATOM     10  C   UNL     1      -0.458  11.417  19.822  0.00  0.00    +0.000 A 
ATOM     11  C   UNL     1      -0.752  10.867  21.069  0.00  0.00    +0.000 A 
ATOM     12  C   UNL     1      -0.177   9.653  21.451  0.00  0.00    +0.000 A 
ATOM     13  C   UNL     1       0.705   8.976  20.584  0.00  0.00    +0.000 A 
ATOM     14  C   UNL     1       1.312   7.754  20.903  0.00  0.00    +0.000 A 
ATOM     15  N   UNL     1       2.169   7.078  20.096  0.00  0.00    +0.000 NA
ENDBRANCH   3   6
ENDBRANCH   1   2
BRANCH   1  16
ATOM     16  C   UNL     1       4.011   3.712  17.081  0.00  0.00    +0.000 C 
ATOM     17  O   UNL     1       3.075   3.816  16.297  0.00  0.00    +0.000 OA
BRANCH  16  18
ATOM     18  O   UNL     1       4.426   2.531  17.626  0.00  0.00    +0.000 OA
BRANCH  18  19
ATOM     19  C   UNL     1       3.381   1.676  18.099  0.00  0.00    +0.000 C 
BRANCH  19  20
ATOM     20  C   UNL     1       2.641   2.292  19.254  0.00  0.00    +0.000 A 
ATOM     21  C   UNL     1       3.294   2.535  20.471  0.00  0.00    +0.000 A 
ATOM     22  C   UNL     1       2.621   3.157  21.524  0.00  0.00    +0.000 A 
ATOM     23  C   UNL     1       1.287   3.533  21.373  0.00  0.00    +0.000 A 
ATOM     24  C   UNL     1       0.623   3.280  20.174  0.00  0.00    +0.000 A 
ATOM     25  C   UNL     1       1.295   2.658  19.120  0.00  0.00    +0.000 A 
ENDBRANCH  19  20
ENDBRANCH  18  19
ENDBRANCH  16  18
ENDBRANCH   1  16
BRANCH   1  26
ATOM     26  C   UNL     1       6.010   4.497  18.508  0.00  0.00    +0.000 C 
BRANCH  26  28
ATOM     27  C   UNL     1       7.208   6.276  17.103  0.00  0.00    +0.000 C 
ATOM     28  C   UNL     1       7.353   5.169  18.148  0.00  0.00    +0.000 C 
ATOM     29  C   UNL     1       8.006   5.736  19.412  0.00  0.00    +0.000 C 
ENDBRANCH  26  28
ENDBRANCH   1  26
TORSDOF 8
ENDMDL
MODEL 9
REMARK VINA RESULT:      -7.5      1.504      4.749
REMARK  Name = 
REMARK  10 active torsions:
REMARK  status: ('A' for Active; 'I' for Inactive)
REMARK    1  A    between atoms: C_1  and  C_2
REMARK    2  A    between atoms: C_2  and  C_3
REMARK    3  A    between atoms: C_2  and  C_4
REMARK    4  A    between atoms: C_4  and  C_5
REMARK    5  A    between atoms: C_5  and  N_6
REMARK    6  A    between atoms: C_5  and  C_19
REMARK    7  A    between atoms: C_7  and  C_9
REMARK    8  A    between atoms: C_19  and  O_21
REMARK    9  A    between atoms: O_21  and  C_22
REMARK   10  A    between atoms: C_22  and  C_23
REMARK                            x       y       z     vdW  Elec       q    Type
REMARK                         _______ _______ _______ _____ _____    ______ ____
ROOT
ATOM      1  C   UNL     1       4.171   5.131  18.554  0.00  0.00    +0.000 C 
ENDROOT
BRANCH   1   2
ATOM      2  N   UNL     1       3.316   6.292  18.832  0.00  0.00    +0.000 N 
ATOM      3  C   UNL     1       2.507   6.364  19.943  0.00  0.00    +0.000 C 
ATOM      4  O   UNL     1       2.390   5.447  20.749  0.00  0.00    +0.000 OA
ATOM      5  H   UNL     1       3.397   7.128  18.256  0.00  0.00    +0.000 HD
BRANCH   3   6
ATOM      6  C   UNL     1       1.771   7.659  20.125  0.00  0.00    +0.000 A 
ATOM      7  C   UNL     1       1.162   7.914  21.347  0.00  0.00    +0.000 A 
ATOM      8  C   UNL     1       0.470   9.116  21.517  0.00  0.00    +0.000 A 
ATOM      9  C   UNL     1      -0.162   9.431  22.731  0.00  0.00    +0.000 A 
ATOM     10  C   UNL     1      -0.856  10.630  22.880  0.00  0.00    +0.000 A 
ATOM     11  C   UNL     1      -0.928  11.532  21.819  0.00  0.00    +0.000 A 
ATOM     12  C   UNL     1      -0.300  11.236  20.607  0.00  0.00    +0.000 A 
ATOM     13  C   UNL     1       0.408  10.027  20.446  0.00  0.00    +0.000 A 
ATOM     14  C   UNL     1       1.064   9.671  19.260  0.00  0.00    +0.000 A 
ATOM     15  N   UNL     1       1.750   8.515  19.068  0.00  0.00    +0.000 NA
ENDBRANCH   3   6
ENDBRANCH   1   2
BRANCH   1  16
ATOM     16  C   UNL     1       5.488   5.555  17.873  0.00  0.00    +0.000 C 
ATOM     17  O   UNL     1       6.256   6.398  18.322  0.00  0.00    +0.000 OA
BRANCH  16  18
ATOM     18  O   UNL     1       5.635   4.955  16.656  0.00  0.00    +0.000 OA
BRANCH  18  19
ATOM     19  C   UNL     1       6.882   5.203  15.999  0.00  0.00    +0.000 C 
BRANCH  19  20
ATOM     20  C   UNL     1       6.851   4.750  14.565  0.00  0.00    +0.000 A 
ATOM     21  C   UNL     1       5.939   3.771  14.146  0.00  0.00    +0.000 A 
ATOM     22  C   UNL     1       5.876   3.391  12.804  0.00  0.00    +0.000 A 
ATOM     23  C   UNL     1       6.729   3.979  11.872  0.00  0.00    +0.000 A 
ATOM     24  C   UNL     1       7.652   4.941  12.282  0.00  0.00    +0.000 A 
ATOM     25  C   UNL     1       7.717   5.321  13.623  0.00  0.00    +0.000 A 
ENDBRANCH  19  20
ENDBRANCH  18  19
ENDBRANCH  16  18
ENDBRANCH   1  16
BRANCH   1  26
ATOM     26  C   UNL     1       3.375   4.080  17.761  0.00  0.00    +0.000 C 
BRANCH  26  28
ATOM     27  C   UNL     1       1.308   2.734  18.458  0.00  0.00    +0.000 C 
ATOM     28  C   UNL     1       2.827   2.877  18.559  0.00  0.00    +0.000 C 
ATOM     29  C   UNL     1       3.500   1.587  18.080  0.00  0.00    +0.000 C 
ENDBRANCH  26  28
ENDBRANCH   1  26
TORSDOF 8
ENDMDL
