MODEL 1
REMARK VINA RESULT:      -7.8      0.000      0.000
REMARK  Name = 
REMARK  2 active torsions:
REMARK  status: ('A' for Active; 'I' for Inactive)
REMARK    1  A    between atoms: C_1  and  N_2
REMARK    2  A    between atoms: N_2  and  C_3
REMARK                            x       y       z     vdW  Elec       q    Type
REMARK                         _______ _______ _______ _____ _____    ______ ____
ROOT
ATOM      1  C   UNL     1       2.603   2.148  21.628  0.00  0.00    +0.000 C 
ATOM      2  N   UNL     1       3.335   2.891  20.612  0.00  0.00    +0.000 N 
ATOM      3  C   UNL     1       4.329   2.103  19.872  0.00  0.00    +0.000 C 
ATOM      4  C   UNL     1       2.857   4.183  20.370  0.00  0.00    +0.000 C 
ATOM      5  O   UNL     1       1.946   4.611  21.084  0.00  0.00    +0.000 OA
ATOM      6  N   UNL     1       3.421   4.957  19.379  0.00  0.00    +0.000 N 
ATOM      7  C   UNL     1       4.584   4.626  18.578  0.00  0.00    +0.000 C 
ATOM      8  C   UNL     1       4.888   5.741  17.559  0.00  0.00    +0.000 C 
ATOM      9  C   UNL     1       4.837   5.131  16.142  0.00  0.00    +0.000 C 
ATOM     10  C   UNL     1       5.954   4.073  15.968  0.00  0.00    +0.000 C 
ATOM     11  N   UNL     1       7.276   4.640  16.223  0.00  0.00    +0.000 NA
ATOM     12  C   UNL     1       7.387   5.251  17.545  0.00  0.00    +0.000 C 
ATOM     13  C   UNL     1       6.303   6.309  17.797  0.00  0.00    +0.000 C 
ATOM     14  C   UNL     1       3.795   6.721  17.919  0.00  0.00    +0.000 A 
ATOM     15  C   UNL     1       3.565   7.986  17.382  0.00  0.00    +0.000 A 
ATOM     16  C   UNL     1       2.557   8.767  17.938  0.00  0.00    +0.000 A 
ATOM     17  F   UNL     1       2.327   9.994  17.447  0.00  0.00    +0.000 F 
ATOM     18  C   UNL     1       1.772   8.304  18.998  0.00  0.00    +0.000 A 
ATOM     19  C   UNL     1       1.988   7.033  19.522  0.00  0.00    +0.000 A 
ATOM     20  C   UNL     1       3.006   6.252  18.981  0.00  0.00    +0.000 A 
ATOM     21  H   UNL     1       7.484   5.342  15.514  0.00  0.00    +0.000 HD
ENDROOT
TORSDOF 0
ENDMDL
MODEL 2
REMARK VINA RESULT:      -7.2      2.175      4.549
REMARK  Name = 
REMARK  2 active torsions:
REMARK  status: ('A' for Active; 'I' for Inactive)
REMARK    1  A    between atoms: C_1  and  N_2
REMARK    2  A    between atoms: N_2  and  C_3
REMARK                            x       y       z     vdW  Elec       q    Type
REMARK                         _______ _______ _______ _____ _____    ______ ____
ROOT
ATOM      1  C   UNL     1       6.790   5.075  14.452  0.00  0.00    +0.000 C 
ATOM      2  N   UNL     1       5.813   4.749  15.481  0.00  0.00    +0.000 N 
ATOM      3  C   UNL     1       5.866   3.361  15.959  0.00  0.00    +0.000 C 
ATOM      4  C   UNL     1       5.103   5.843  15.985  0.00  0.00    +0.000 C 
ATOM      5  O   UNL     1       5.285   6.946  15.463  0.00  0.00    +0.000 OA
ATOM      6  N   UNL     1       4.203   5.670  17.015  0.00  0.00    +0.000 N 
ATOM      7  C   UNL     1       3.795   4.411  17.607  0.00  0.00    +0.000 C 
ATOM      8  C   UNL     1       2.788   4.640  18.750  0.00  0.00    +0.000 C 
ATOM      9  C   UNL     1       3.379   4.043  20.045  0.00  0.00    +0.000 C 
ATOM     10  C   UNL     1       3.536   2.508  19.911  0.00  0.00    +0.000 C 
ATOM     11  N   UNL     1       2.264   1.863  19.595  0.00  0.00    +0.000 NA
ATOM     12  C   UNL     1       1.641   2.395  18.387  0.00  0.00    +0.000 C 
ATOM     13  C   UNL     1       1.459   3.918  18.441  0.00  0.00    +0.000 C 
ATOM     14  C   UNL     1       2.666   6.146  18.687  0.00  0.00    +0.000 A 
ATOM     15  C   UNL     1       1.842   6.972  19.447  0.00  0.00    +0.000 A 
ATOM     16  C   UNL     1       1.815   8.331  19.149  0.00  0.00    +0.000 A 
ATOM     17  F   UNL     1       1.016   9.145  19.857  0.00  0.00    +0.000 F 
ATOM     18  C   UNL     1       2.601   8.873  18.128  0.00  0.00    +0.000 A 
ATOM     19  C   UNL     1       3.439   8.051  17.383  0.00  0.00    +0.000 A 
ATOM     20  C   UNL     1       3.460   6.688  17.664  0.00  0.00    +0.000 A 
ATOM     21  H   UNL     1       1.623   1.980  20.380  0.00  0.00    +0.000 HD
ENDROOT
TORSDOF 0
ENDMDL
MODEL 3
REMARK VINA RESULT:      -6.9      2.757      5.178
REMARK  Name = 
REMARK  2 active torsions:
REMARK  status: ('A' for Active; 'I' for Inactive)
REMARK    1  A    between atoms: C_1  and  N_2
REMARK    2  A    between atoms: N_2  and  C_3
REMARK                            x       y       z     vdW  Elec       q    Type
REMARK                         _______ _______ _______ _____ _____    ______ ____
ROOT
ATOM      1  C   UNL     1       1.299   9.794  19.809  0.00  0.00    +0.000 C 
ATOM      2  N   UNL     1       1.569   8.364  19.780  0.00  0.00    +0.000 N 
ATOM      3  C   UNL     1       0.702   7.559  20.651  0.00  0.00    +0.000 C 
ATOM      4  C   UNL     1       2.479   7.956  18.799  0.00  0.00    +0.000 C 
ATOM      5  O   UNL     1       3.038   8.826  18.126  0.00  0.00    +0.000 OA
ATOM      6  N   UNL     1       2.758   6.618  18.626  0.00  0.00    +0.000 N 
ATOM      7  C   UNL     1       2.282   5.520  19.446  0.00  0.00    +0.000 C 
ATOM      8  C   UNL     1       2.797   4.170  18.912  0.00  0.00    +0.000 C 
ATOM      9  C   UNL     1       1.578   3.283  18.577  0.00  0.00    +0.000 C 
ATOM     10  C   UNL     1       0.775   2.961  19.861  0.00  0.00    +0.000 C 
ATOM     11  N   UNL     1       1.609   2.308  20.867  0.00  0.00    +0.000 NA
ATOM     12  C   UNL     1       2.793   3.088  21.218  0.00  0.00    +0.000 C 
ATOM     13  C   UNL     1       3.639   3.456  19.991  0.00  0.00    +0.000 C 
ATOM     14  C   UNL     1       3.628   4.655  17.746  0.00  0.00    +0.000 A 
ATOM     15  C   UNL     1       4.414   3.899  16.879  0.00  0.00    +0.000 A 
ATOM     16  C   UNL     1       5.183   4.569  15.931  0.00  0.00    +0.000 A 
ATOM     17  F   UNL     1       5.959   3.862  15.095  0.00  0.00    +0.000 F 
ATOM     18  C   UNL     1       5.166   5.962  15.827  0.00  0.00    +0.000 A 
ATOM     19  C   UNL     1       4.367   6.716  16.680  0.00  0.00    +0.000 A 
ATOM     20  C   UNL     1       3.607   6.055  17.641  0.00  0.00    +0.000 A 
ATOM     21  H   UNL     1       1.903   1.395  20.521  0.00  0.00    +0.000 HD
ENDROOT
TORSDOF 0
ENDMDL
MODEL 4
REMARK VINA RESULT:      -6.8      1.075      1.075
REMARK  Name = 
REMARK  2 active torsions:
REMARK  status: ('A' for Active; 'I' for Inactive)
REMARK    1  A    between atoms: C_1  and  N_2
REMARK    2  A    between atoms: N_2  and  C_3
REMARK                            x       y       z     vdW  Elec       q    Type
REMARK                         _______ _______ _______ _____ _____    ______ ____
ROOT
ATOM      1  C   UNL     1       1.651   1.404  19.615  0.00  0.00    +0.000 C 
ATOM      2  N   UNL     1       2.646   2.281  19.016  0.00  0.00    +0.000 N 
ATOM      3  C   UNL     1       3.755   1.585  18.349  0.00  0.00    +0.000 C 
ATOM      4  C   UNL     1       2.305   3.638  19.006  0.00  0.00    +0.000 C 
ATOM      5  O   UNL     1       1.267   3.981  19.577  0.00  0.00    +0.000 OA
ATOM      6  N   UNL     1       3.135   4.556  18.400  0.00  0.00    +0.000 N 
ATOM      7  C   UNL     1       4.443   4.299  17.830  0.00  0.00    +0.000 C 
ATOM      8  C   UNL     1       5.043   5.583  17.225  0.00  0.00    +0.000 C 
ATOM      9  C   UNL     1       5.318   5.331  15.727  0.00  0.00    +0.000 C 
ATOM     10  C   UNL     1       6.392   4.229  15.552  0.00  0.00    +0.000 C 
ATOM     11  N   UNL     1       7.634   4.575  16.239  0.00  0.00    +0.000 NA
ATOM     12  C   UNL     1       7.441   4.844  17.661  0.00  0.00    +0.000 C 
ATOM     13  C   UNL     1       6.380   5.923  17.917  0.00  0.00    +0.000 C 
ATOM     14  C   UNL     1       3.942   6.563  17.561  0.00  0.00    +0.000 A 
ATOM     15  C   UNL     1       3.914   7.935  17.323  0.00  0.00    +0.000 A 
ATOM     16  C   UNL     1       2.837   8.668  17.812  0.00  0.00    +0.000 A 
ATOM     17  F   UNL     1       2.795   9.994  17.608  0.00  0.00    +0.000 F 
ATOM     18  C   UNL     1       1.792   8.057  18.511  0.00  0.00    +0.000 A 
ATOM     19  C   UNL     1       1.811   6.683  18.732  0.00  0.00    +0.000 A 
ATOM     20  C   UNL     1       2.893   5.946  18.259  0.00  0.00    +0.000 A 
ATOM     21  H   UNL     1       8.046   5.397  15.797  0.00  0.00    +0.000 HD
ENDROOT
TORSDOF 0
ENDMDL
MODEL 5
REMARK VINA RESULT:      -6.4      2.180      4.706
REMARK  Name = 
REMARK  2 active torsions:
REMARK  status: ('A' for Active; 'I' for Inactive)
REMARK    1  A    between atoms: C_1  and  N_2
REMARK    2  A    between atoms: N_2  and  C_3
REMARK                            x       y       z     vdW  Elec       q    Type
REMARK                         _______ _______ _______ _____ _____    ______ ____
ROOT
ATOM      1  C   UNL     1       5.689   5.333  15.499  0.00  0.00    +0.000 C 
ATOM      2  N   UNL     1       4.807   5.016  16.613  0.00  0.00    +0.000 N 
ATOM      3  C   UNL     1       4.939   3.647  17.129  0.00  0.00    +0.000 C 
ATOM      4  C   UNL     1       4.106   6.107  17.137  0.00  0.00    +0.000 C 
ATOM      5  O   UNL     1       4.212   7.196  16.568  0.00  0.00    +0.000 OA
ATOM      6  N   UNL     1       3.296   5.945  18.241  0.00  0.00    +0.000 N 
ATOM      7  C   UNL     1       2.975   4.696  18.904  0.00  0.00    +0.000 C 
ATOM      8  C   UNL     1       2.055   4.935  20.117  0.00  0.00    +0.000 C 
ATOM      9  C   UNL     1       2.765   4.400  21.378  0.00  0.00    +0.000 C 
ATOM     10  C   UNL     1       2.958   2.866  21.280  0.00  0.00    +0.000 C 
ATOM     11  N   UNL     1       1.685   2.176  21.089  0.00  0.00    +0.000 NA
ATOM     12  C   UNL     1       0.952   2.649  19.919  0.00  0.00    +0.000 C 
ATOM     13  C   UNL     1       0.728   4.167  19.939  0.00  0.00    +0.000 C 
ATOM     14  C   UNL     1       1.884   6.434  20.015  0.00  0.00    +0.000 A 
ATOM     15  C   UNL     1       1.097   7.263  20.812  0.00  0.00    +0.000 A 
ATOM     16  C   UNL     1       1.005   8.610  20.474  0.00  0.00    +0.000 A 
ATOM     17  F   UNL     1       0.242   9.425  21.218  0.00  0.00    +0.000 F 
ATOM     18  C   UNL     1       1.691   9.138  19.377  0.00  0.00    +0.000 A 
ATOM     19  C   UNL     1       2.492   8.314  18.592  0.00  0.00    +0.000 A 
ATOM     20  C   UNL     1       2.576   6.963  18.915  0.00  0.00    +0.000 A 
ATOM     21  H   UNL     1       1.105   2.302  21.919  0.00  0.00    +0.000 HD
ENDROOT
TORSDOF 0
ENDMDL
MODEL 6
REMARK VINA RESULT:      -6.3      2.559      4.623
REMARK  Name = 
REMARK  2 active torsions:
REMARK  status: ('A' for Active; 'I' for Inactive)
REMARK    1  A    between atoms: C_1  and  N_2
REMARK    2  A    between atoms: N_2  and  C_3
REMARK                            x       y       z     vdW  Elec       q    Type
REMARK                         _______ _______ _______ _____ _____    ______ ____
ROOT
ATOM      1  C   UNL     1       0.994   9.340  19.370  0.00  0.00    +0.000 C 
ATOM      2  N   UNL     1       1.994   8.425  18.840  0.00  0.00    +0.000 N 
ATOM      3  C   UNL     1       2.890   9.010  17.834  0.00  0.00    +0.000 C 
ATOM      4  C   UNL     1       2.070   7.192  19.497  0.00  0.00    +0.000 C 
ATOM      5  O   UNL     1       1.241   6.950  20.379  0.00  0.00    +0.000 OA
ATOM      6  N   UNL     1       3.029   6.271  19.134  0.00  0.00    +0.000 N 
ATOM      7  C   UNL     1       3.956   6.377  18.024  0.00  0.00    +0.000 C 
ATOM      8  C   UNL     1       4.887   5.150  17.964  0.00  0.00    +0.000 C 
ATOM      9  C   UNL     1       6.346   5.641  18.078  0.00  0.00    +0.000 C 
ATOM     10  C   UNL     1       6.716   6.523  16.861  0.00  0.00    +0.000 C 
ATOM     11  N   UNL     1       6.524   5.809  15.601  0.00  0.00    +0.000 NA
ATOM     12  C   UNL     1       5.165   5.301  15.437  0.00  0.00    +0.000 C 
ATOM     13  C   UNL     1       4.720   4.421  16.614  0.00  0.00    +0.000 C 
ATOM     14  C   UNL     1       4.341   4.357  19.130  0.00  0.00    +0.000 A 
ATOM     15  C   UNL     1       4.733   3.094  19.567  0.00  0.00    +0.000 A 
ATOM     16  C   UNL     1       4.020   2.503  20.605  0.00  0.00    +0.000 A 
ATOM     17  F   UNL     1       4.370   1.281  21.033  0.00  0.00    +0.000 F 
ATOM     18  C   UNL     1       2.944   3.153  21.217  0.00  0.00    +0.000 A 
ATOM     19  C   UNL     1       2.564   4.422  20.793  0.00  0.00    +0.000 A 
ATOM     20  C   UNL     1       3.263   5.013  19.745  0.00  0.00    +0.000 A 
ATOM     21  H   UNL     1       7.180   5.029  15.553  0.00  0.00    +0.000 HD
ENDROOT
TORSDOF 0
ENDMDL
MODEL 7
REMARK VINA RESULT:      -6.3      3.345      4.758
REMARK  Name = 
REMARK  2 active torsions:
REMARK  status: ('A' for Active; 'I' for Inactive)
REMARK    1  A    between atoms: C_1  and  N_2
REMARK    2  A    between atoms: N_2  and  C_3
REMARK                            x       y       z     vdW  Elec       q    Type
REMARK                         _______ _______ _______ _____ _____    ______ ____
ROOT
ATOM      1  C   UNL     1       1.498   3.470  18.725  0.00  0.00    +0.000 C 
ATOM      2  N   UNL     1       2.813   4.041  18.477  0.00  0.00    +0.000 N 
ATOM      3  C   UNL     1       3.519   4.501  19.681  0.00  0.00    +0.000 C 
ATOM      4  C   UNL     1       3.279   3.899  17.166  0.00  0.00    +0.000 C 
ATOM      5  O   UNL     1       2.519   3.406  16.328  0.00  0.00    +0.000 OA
ATOM      6  N   UNL     1       4.542   4.335  16.828  0.00  0.00    +0.000 N 
ATOM      7  C   UNL     1       5.466   5.059  17.680  0.00  0.00    +0.000 C 
ATOM      8  C   UNL     1       6.788   5.346  16.941  0.00  0.00    +0.000 C 
ATOM      9  C   UNL     1       7.940   4.700  17.741  0.00  0.00    +0.000 C 
ATOM     10  C   UNL     1       8.071   5.366  19.133  0.00  0.00    +0.000 C 
ATOM     11  N   UNL     1       8.282   6.807  19.022  0.00  0.00    +0.000 NA
ATOM     12  C   UNL     1       7.233   7.478  18.260  0.00  0.00    +0.000 C 
ATOM     13  C   UNL     1       7.037   6.867  16.866  0.00  0.00    +0.000 C 
ATOM     14  C   UNL     1       6.467   4.736  15.596  0.00  0.00    +0.000 A 
ATOM     15  C   UNL     1       7.258   4.724  14.449  0.00  0.00    +0.000 A 
ATOM     16  C   UNL     1       6.719   4.193  13.281  0.00  0.00    +0.000 A 
ATOM     17  F   UNL     1       7.457   4.185  12.160  0.00  0.00    +0.000 F 
ATOM     18  C   UNL     1       5.425   3.667  13.244  0.00  0.00    +0.000 A 
ATOM     19  C   UNL     1       4.642   3.661  14.394  0.00  0.00    +0.000 A 
ATOM     20  C   UNL     1       5.169   4.204  15.563  0.00  0.00    +0.000 A 
ATOM     21  H   UNL     1       9.182   6.983  18.576  0.00  0.00    +0.000 HD
ENDROOT
TORSDOF 0
ENDMDL
MODEL 8
REMARK VINA RESULT:      -6.2      7.897      9.926
REMARK  Name = 
REMARK  2 active torsions:
REMARK  status: ('A' for Active; 'I' for Inactive)
REMARK    1  A    between atoms: C_1  and  N_2
REMARK    2  A    between atoms: N_2  and  C_3
REMARK                            x       y       z     vdW  Elec       q    Type
REMARK                         _______ _______ _______ _____ _____    ______ ____
ROOT
ATOM      1  C   UNL     1      -6.311  13.669  21.447  0.00  0.00    +0.000 C 
ATOM      2  N   UNL     1      -4.997  13.207  21.023  0.00  0.00    +0.000 N 
ATOM      3  C   UNL     1      -3.980  13.193  22.083  0.00  0.00    +0.000 C 
ATOM      4  C   UNL     1      -4.950  12.675  19.730  0.00  0.00    +0.000 C 
ATOM      5  O   UNL     1      -5.971  12.732  19.039  0.00  0.00    +0.000 OA
ATOM      6  N   UNL     1      -3.778  12.137  19.245  0.00  0.00    +0.000 N 
ATOM      7  C   UNL     1      -2.484  12.146  19.899  0.00  0.00    +0.000 C 
ATOM      8  C   UNL     1      -1.427  11.422  19.042  0.00  0.00    +0.000 C 
ATOM      9  C   UNL     1      -0.850  10.253  19.869  0.00  0.00    +0.000 C 
ATOM     10  C   UNL     1      -0.101  10.789  21.114  0.00  0.00    +0.000 C 
ATOM     11  N   UNL     1       0.965  11.716  20.742  0.00  0.00    +0.000 NA
ATOM     12  C   UNL     1       0.488  12.839  19.941  0.00  0.00    +0.000 C 
ATOM     13  C   UNL     1      -0.276  12.387  18.689  0.00  0.00    +0.000 C 
ATOM     14  C   UNL     1      -2.275  11.057  17.845  0.00  0.00    +0.000 A 
ATOM     15  C   UNL     1      -1.874  10.423  16.671  0.00  0.00    +0.000 A 
ATOM     16  C   UNL     1      -2.806  10.277  15.648  0.00  0.00    +0.000 A 
ATOM     17  F   UNL     1      -2.438   9.683  14.502  0.00  0.00    +0.000 F 
ATOM     18  C   UNL     1      -4.120  10.733  15.783  0.00  0.00    +0.000 A 
ATOM     19  C   UNL     1      -4.526  11.349  16.963  0.00  0.00    +0.000 A 
ATOM     20  C   UNL     1      -3.595  11.513  17.985  0.00  0.00    +0.000 A 
ATOM     21  H   UNL     1       1.681  11.213  20.218  0.00  0.00    +0.000 HD
ENDROOT
TORSDOF 0
ENDMDL
MODEL 9
REMARK VINA RESULT:      -6.2      2.623      4.674
REMARK  Name = 
REMARK  2 active torsions:
REMARK  status: ('A' for Active; 'I' for Inactive)
REMARK    1  A    between atoms: C_1  and  N_2
REMARK    2  A    between atoms: N_2  and  C_3
REMARK                            x       y       z     vdW  Elec       q    Type
REMARK                         _______ _______ _______ _____ _____    ______ ____
ROOT
ATOM      1  C   UNL     1       1.859   9.588  18.245  0.00  0.00    +0.000 C 
ATOM      2  N   UNL     1       2.625   8.359  18.091  0.00  0.00    +0.000 N 
ATOM      3  C   UNL     1       3.759   8.455  17.162  0.00  0.00    +0.000 C 
ATOM      4  C   UNL     1       2.281   7.336  18.981  0.00  0.00    +0.000 C 
ATOM      5  O   UNL     1       1.320   7.517  19.733  0.00  0.00    +0.000 OA
ATOM      6  N   UNL     1       2.985   6.152  18.981  0.00  0.00    +0.000 N 
ATOM      7  C   UNL     1       4.030   5.765  18.053  0.00  0.00    +0.000 C 
ATOM      8  C   UNL     1       4.588   4.371  18.400  0.00  0.00    +0.000 C 
ATOM      9  C   UNL     1       6.102   4.508  18.670  0.00  0.00    +0.000 C 
ATOM     10  C   UNL     1       6.841   4.960  17.387  0.00  0.00    +0.000 C 
ATOM     11  N   UNL     1       6.611   4.037  16.279  0.00  0.00    +0.000 NA
ATOM     12  C   UNL     1       5.194   3.848  15.982  0.00  0.00    +0.000 C 
ATOM     13  C   UNL     1       4.389   3.406  17.212  0.00  0.00    +0.000 C 
ATOM     14  C   UNL     1       3.712   4.033  19.585  0.00  0.00    +0.000 A 
ATOM     15  C   UNL     1       3.688   2.852  20.325  0.00  0.00    +0.000 A 
ATOM     16  C   UNL     1       2.723   2.714  21.317  0.00  0.00    +0.000 A 
ATOM     17  F   UNL     1       2.671   1.580  22.032  0.00  0.00    +0.000 F 
ATOM     18  C   UNL     1       1.802   3.730  21.590  0.00  0.00    +0.000 A 
ATOM     19  C   UNL     1       1.838   4.917  20.864  0.00  0.00    +0.000 A 
ATOM     20  C   UNL     1       2.792   5.056  19.859  0.00  0.00    +0.000 A 
ATOM     21  H   UNL     1       7.027   3.133  16.502  0.00  0.00    +0.000 HD
ENDROOT
TORSDOF 0
ENDMDL
