MODEL 1
REMARK VINA RESULT:      -6.6      0.000      0.000
REMARK  Name = 
REMARK  6 active torsions:
REMARK  status: ('A' for Active; 'I' for Inactive)
REMARK    1  A    between atoms: C_2  and  C_3
REMARK    2  A    between atoms: C_2  and  C_13
REMARK    3  A    between atoms: C_3  and  S_4
REMARK    4  A    between atoms: S_4  and  C_5
REMARK    5  A    between atoms: C_5  and  C_6
REMARK    6  A    between atoms: C_6  and  C_7
REMARK                            x       y       z     vdW  Elec       q    Type
REMARK                         _______ _______ _______ _____ _____    ______ ____
ROOT
ATOM      1  S   UNL     1       5.541   5.330  18.687  0.00  0.00    +0.000 S 
ENDROOT
BRANCH   1   2
ATOM      2  C   UNL     1       6.727   4.560  17.549  0.00  0.00    +0.000 C 
BRANCH   2   4
ATOM      3  O   UNL     1       7.544   6.526  16.471  0.00  0.00    +0.000 OA
ATOM      4  C   UNL     1       6.985   5.428  16.343  0.00  0.00    +0.000 C 
BRANCH   4   5
ATOM      5  C   UNL     1       6.546   4.873  15.003  0.00  0.00    +0.000 C 
ATOM      6  F   UNL     1       5.394   5.430  14.541  0.00  0.00    +0.000 F 
ATOM      7  F   UNL     1       7.479   5.092  14.034  0.00  0.00    +0.000 F 
ATOM      8  F   UNL     1       6.333   3.530  15.039  0.00  0.00    +0.000 F 
ENDBRANCH   4   5
ENDBRANCH   2   4
ENDBRANCH   1   2
BRANCH   1   9
ATOM      9  C   UNL     1       4.295   5.961  17.499  0.00  0.00    +0.000 C 
BRANCH   9  10
ATOM     10  C   UNL     1       3.029   6.362  18.267  0.00  0.00    +0.000 C 
BRANCH  10  11
ATOM     11  C   UNL     1       2.249   5.185  18.808  0.00  0.00    +0.000 A 
ATOM     12  C   UNL     1       1.880   4.123  17.969  0.00  0.00    +0.000 A 
ATOM     13  C   UNL     1       1.179   3.025  18.481  0.00  0.00    +0.000 A 
ATOM     14  C   UNL     1       0.849   2.973  19.832  0.00  0.00    +0.000 A 
ATOM     15  C   UNL     1       1.230   4.014  20.679  0.00  0.00    +0.000 A 
ATOM     16  C   UNL     1       1.930   5.110  20.171  0.00  0.00    +0.000 A 
ENDBRANCH  10  11
ENDBRANCH   9  10
ENDBRANCH   1   9
TORSDOF 6
ENDMDL
MODEL 2
REMARK VINA RESULT:      -6.6      2.655      3.156
REMARK  Name = 
REMARK  6 active torsions:
REMARK  status: ('A' for Active; 'I' for Inactive)
REMARK    1  A    between atoms: C_2  and  C_3
REMARK    2  A    between atoms: C_2  and  C_13
REMARK    3  A    between atoms: C_3  and  S_4
REMARK    4  A    between atoms: S_4  and  C_5
REMARK    5  A    between atoms: C_5  and  C_6
REMARK    6  A    between atoms: C_6  and  C_7
REMARK                            x       y       z     vdW  Elec       q    Type
REMARK                         _______ _______ _______ _____ _____    ______ ____
ROOT
ATOM      1  S   UNL     1       5.501   5.189  15.565  0.00  0.00    +0.000 S 
ENDROOT
BRANCH   1   2
ATOM      2  C   UNL     1       6.447   6.190  16.747  0.00  0.00    +0.000 C 
BRANCH   2   4
ATOM      3  O   UNL     1       7.949   4.353  16.996  0.00  0.00    +0.000 OA
ATOM      4  C   UNL     1       7.438   5.354  17.516  0.00  0.00    +0.000 C 
BRANCH   4   5
ATOM      5  C   UNL     1       7.773   5.820  18.919  0.00  0.00    +0.000 C 
ATOM      6  F   UNL     1       8.738   5.073  19.518  0.00  0.00    +0.000 F 
ATOM      7  F   UNL     1       8.235   7.103  18.930  0.00  0.00    +0.000 F 
ATOM      8  F   UNL     1       6.696   5.791  19.749  0.00  0.00    +0.000 F 
ENDBRANCH   4   5
ENDBRANCH   2   4
ENDBRANCH   1   2
BRANCH   1   9
ATOM      9  C   UNL     1       4.438   4.229  16.711  0.00  0.00    +0.000 C 
BRANCH   9  10
ATOM     10  C   UNL     1       3.673   5.202  17.617  0.00  0.00    +0.000 C 
BRANCH  10  11
ATOM     11  C   UNL     1       2.638   4.531  18.493  0.00  0.00    +0.000 A 
ATOM     12  C   UNL     1       2.293   5.074  19.739  0.00  0.00    +0.000 A 
ATOM     13  C   UNL     1       1.318   4.461  20.535  0.00  0.00    +0.000 A 
ATOM     14  C   UNL     1       0.675   3.309  20.091  0.00  0.00    +0.000 A 
ATOM     15  C   UNL     1       0.995   2.773  18.843  0.00  0.00    +0.000 A 
ATOM     16  C   UNL     1       1.967   3.383  18.048  0.00  0.00    +0.000 A 
ENDBRANCH  10  11
ENDBRANCH   9  10
ENDBRANCH   1   9
TORSDOF 6
ENDMDL
MODEL 3
REMARK VINA RESULT:      -6.4      2.218      2.569
REMARK  Name = 
REMARK  6 active torsions:
REMARK  status: ('A' for Active; 'I' for Inactive)
REMARK    1  A    between atoms: C_2  and  C_3
REMARK    2  A    between atoms: C_2  and  C_13
REMARK    3  A    between atoms: C_3  and  S_4
REMARK    4  A    between atoms: S_4  and  C_5
REMARK    5  A    between atoms: C_5  and  C_6
REMARK    6  A    between atoms: C_6  and  C_7
REMARK                            x       y       z     vdW  Elec       q    Type
REMARK                         _______ _______ _______ _____ _____    ______ ____
ROOT
ATOM      1  S   UNL     1       4.566   6.848  17.308  0.00  0.00    +0.000 S 
ENDROOT
BRANCH   1   2
ATOM      2  C   UNL     1       5.111   5.120  17.221  0.00  0.00    +0.000 C 
BRANCH   2   4
ATOM      3  O   UNL     1       5.686   4.221  19.355  0.00  0.00    +0.000 OA
ATOM      4  C   UNL     1       6.082   4.786  18.326  0.00  0.00    +0.000 C 
BRANCH   4   5
ATOM      5  C   UNL     1       7.532   5.157  18.089  0.00  0.00    +0.000 C 
ATOM      6  F   UNL     1       7.686   6.220  17.255  0.00  0.00    +0.000 F 
ATOM      7  F   UNL     1       8.162   5.501  19.248  0.00  0.00    +0.000 F 
ATOM      8  F   UNL     1       8.250   4.137  17.546  0.00  0.00    +0.000 F 
ENDBRANCH   4   5
ENDBRANCH   2   4
ENDBRANCH   1   2
BRANCH   1   9
ATOM      9  C   UNL     1       3.087   6.682  18.380  0.00  0.00    +0.000 C 
BRANCH   9  10
ATOM     10  C   UNL     1       2.296   5.439  17.952  0.00  0.00    +0.000 C 
BRANCH  10  11
ATOM     11  C   UNL     1       1.956   4.512  19.098  0.00  0.00    +0.000 A 
ATOM     12  C   UNL     1       1.242   3.325  18.871  0.00  0.00    +0.000 A 
ATOM     13  C   UNL     1       0.952   2.459  19.932  0.00  0.00    +0.000 A 
ATOM     14  C   UNL     1       1.377   2.764  21.222  0.00  0.00    +0.000 A 
ATOM     15  C   UNL     1       2.106   3.930  21.454  0.00  0.00    +0.000 A 
ATOM     16  C   UNL     1       2.398   4.796  20.398  0.00  0.00    +0.000 A 
ENDBRANCH  10  11
ENDBRANCH   9  10
ENDBRANCH   1   9
TORSDOF 6
ENDMDL
MODEL 4
REMARK VINA RESULT:      -6.4      1.915      2.636
REMARK  Name = 
REMARK  6 active torsions:
REMARK  status: ('A' for Active; 'I' for Inactive)
REMARK    1  A    between atoms: C_2  and  C_3
REMARK    2  A    between atoms: C_2  and  C_13
REMARK    3  A    between atoms: C_3  and  S_4
REMARK    4  A    between atoms: S_4  and  C_5
REMARK    5  A    between atoms: C_5  and  C_6
REMARK    6  A    between atoms: C_6  and  C_7
REMARK                            x       y       z     vdW  Elec       q    Type
REMARK                         _______ _______ _______ _____ _____    ______ ____
ROOT
ATOM      1  S   UNL     1       4.444   6.830  17.383  0.00  0.00    +0.000 S 
ENDROOT
BRANCH   1   2
ATOM      2  C   UNL     1       4.819   5.078  17.099  0.00  0.00    +0.000 C 
BRANCH   2   4
ATOM      3  O   UNL     1       5.777   4.067  19.037  0.00  0.00    +0.000 OA
ATOM      4  C   UNL     1       5.979   4.613  17.943  0.00  0.00    +0.000 C 
BRANCH   4   5
ATOM      5  C   UNL     1       7.365   4.833  17.370  0.00  0.00    +0.000 C 
ATOM      6  F   UNL     1       8.330   4.116  18.005  0.00  0.00    +0.000 F 
ATOM      7  F   UNL     1       7.434   4.469  16.058  0.00  0.00    +0.000 F 
ATOM      8  F   UNL     1       7.753   6.135  17.431  0.00  0.00    +0.000 F 
ENDBRANCH   4   5
ENDBRANCH   2   4
ENDBRANCH   1   2
BRANCH   1   9
ATOM      9  C   UNL     1       2.909   6.690  18.377  0.00  0.00    +0.000 C 
BRANCH   9  10
ATOM     10  C   UNL     1       2.174   5.403  17.983  0.00  0.00    +0.000 C 
BRANCH  10  11
ATOM     11  C   UNL     1       1.940   4.459  19.142  0.00  0.00    +0.000 A 
ATOM     12  C   UNL     1       2.410   4.771  20.426  0.00  0.00    +0.000 A 
ATOM     13  C   UNL     1       2.170   3.905  21.499  0.00  0.00    +0.000 A 
ATOM     14  C   UNL     1       1.454   2.727  21.302  0.00  0.00    +0.000 A 
ATOM     15  C   UNL     1       0.964   2.418  20.033  0.00  0.00    +0.000 A 
ATOM     16  C   UNL     1       1.201   3.281  18.961  0.00  0.00    +0.000 A 
ENDBRANCH  10  11
ENDBRANCH   9  10
ENDBRANCH   1   9
TORSDOF 6
ENDMDL
MODEL 5
REMARK VINA RESULT:      -6.4      2.679      3.151
REMARK  Name = 
REMARK  6 active torsions:
REMARK  status: ('A' for Active; 'I' for Inactive)
REMARK    1  A    between atoms: C_2  and  C_3
REMARK    2  A    between atoms: C_2  and  C_13
REMARK    3  A    between atoms: C_3  and  S_4
REMARK    4  A    between atoms: S_4  and  C_5
REMARK    5  A    between atoms: C_5  and  C_6
REMARK    6  A    between atoms: C_6  and  C_7
REMARK                            x       y       z     vdW  Elec       q    Type
REMARK                         _______ _______ _______ _____ _____    ______ ____
ROOT
ATOM      1  S   UNL     1       5.523   4.076  15.868  0.00  0.00    +0.000 S 
ENDROOT
BRANCH   1   2
ATOM      2  C   UNL     1       7.163   4.634  16.409  0.00  0.00    +0.000 C 
BRANCH   2   4
ATOM      3  O   UNL     1       6.598   6.941  16.630  0.00  0.00    +0.000 OA
ATOM      4  C   UNL     1       7.086   5.936  17.164  0.00  0.00    +0.000 C 
BRANCH   4   5
ATOM      5  C   UNL     1       7.613   5.927  18.585  0.00  0.00    +0.000 C 
ATOM      6  F   UNL     1       8.448   4.885  18.843  0.00  0.00    +0.000 F 
ATOM      7  F   UNL     1       8.327   7.054  18.868  0.00  0.00    +0.000 F 
ATOM      8  F   UNL     1       6.618   5.858  19.510  0.00  0.00    +0.000 F 
ENDBRANCH   4   5
ENDBRANCH   2   4
ENDBRANCH   1   2
BRANCH   1   9
ATOM      9  C   UNL     1       4.582   4.225  17.434  0.00  0.00    +0.000 C 
BRANCH   9  10
ATOM     10  C   UNL     1       3.772   2.941  17.656  0.00  0.00    +0.000 C 
BRANCH  10  11
ATOM     11  C   UNL     1       2.923   2.967  18.907  0.00  0.00    +0.000 A 
ATOM     12  C   UNL     1       3.477   2.644  20.155  0.00  0.00    +0.000 A 
ATOM     13  C   UNL     1       2.693   2.693  21.313  0.00  0.00    +0.000 A 
ATOM     14  C   UNL     1       1.355   3.071  21.238  0.00  0.00    +0.000 A 
ATOM     15  C   UNL     1       0.800   3.414  20.005  0.00  0.00    +0.000 A 
ATOM     16  C   UNL     1       1.581   3.367  18.848  0.00  0.00    +0.000 A 
ENDBRANCH  10  11
ENDBRANCH   9  10
ENDBRANCH   1   9
TORSDOF 6
ENDMDL
MODEL 6
REMARK VINA RESULT:      -6.3      2.290      2.575
REMARK  Name = 
REMARK  6 active torsions:
REMARK  status: ('A' for Active; 'I' for Inactive)
REMARK    1  A    between atoms: C_2  and  C_3
REMARK    2  A    between atoms: C_2  and  C_13
REMARK    3  A    between atoms: C_3  and  S_4
REMARK    4  A    between atoms: S_4  and  C_5
REMARK    5  A    between atoms: C_5  and  C_6
REMARK    6  A    between atoms: C_6  and  C_7
REMARK                            x       y       z     vdW  Elec       q    Type
REMARK                         _______ _______ _______ _____ _____    ______ ____
ROOT
ATOM      1  S   UNL     1       4.762   4.459  17.117  0.00  0.00    +0.000 S 
ENDROOT
BRANCH   1   2
ATOM      2  C   UNL     1       6.275   5.136  16.380  0.00  0.00    +0.000 C 
BRANCH   2   4
ATOM      3  O   UNL     1       6.769   7.420  16.864  0.00  0.00    +0.000 OA
ATOM      4  C   UNL     1       6.861   6.239  17.226  0.00  0.00    +0.000 C 
BRANCH   4   5
ATOM      5  C   UNL     1       7.531   5.818  18.518  0.00  0.00    +0.000 C 
ATOM      6  F   UNL     1       6.658   5.654  19.549  0.00  0.00    +0.000 F 
ATOM      7  F   UNL     1       8.180   4.626  18.388  0.00  0.00    +0.000 F 
ATOM      8  F   UNL     1       8.458   6.719  18.942  0.00  0.00    +0.000 F 
ENDBRANCH   4   5
ENDBRANCH   2   4
ENDBRANCH   1   2
BRANCH   1   9
ATOM      9  C   UNL     1       4.014   5.982  17.813  0.00  0.00    +0.000 C 
BRANCH   9  10
ATOM     10  C   UNL     1       2.499   5.783  17.939  0.00  0.00    +0.000 C 
BRANCH  10  11
ATOM     11  C   UNL     1       2.104   4.776  18.996  0.00  0.00    +0.000 A 
ATOM     12  C   UNL     1       1.362   3.635  18.657  0.00  0.00    +0.000 A 
ATOM     13  C   UNL     1       1.020   2.695  19.635  0.00  0.00    +0.000 A 
ATOM     14  C   UNL     1       1.422   2.879  20.955  0.00  0.00    +0.000 A 
ATOM     15  C   UNL     1       2.179   3.999  21.299  0.00  0.00    +0.000 A 
ATOM     16  C   UNL     1       2.522   4.939  20.325  0.00  0.00    +0.000 A 
ENDBRANCH  10  11
ENDBRANCH   9  10
ENDBRANCH   1   9
TORSDOF 6
ENDMDL
MODEL 7
REMARK VINA RESULT:      -6.3      1.521      1.692
REMARK  Name = 
REMARK  6 active torsions:
REMARK  status: ('A' for Active; 'I' for Inactive)
REMARK    1  A    between atoms: C_2  and  C_3
REMARK    2  A    between atoms: C_2  and  C_13
REMARK    3  A    between atoms: C_3  and  S_4
REMARK    4  A    between atoms: S_4  and  C_5
REMARK    5  A    between atoms: C_5  and  C_6
REMARK    6  A    between atoms: C_6  and  C_7
REMARK                            x       y       z     vdW  Elec       q    Type
REMARK                         _______ _______ _______ _____ _____    ______ ____
ROOT
ATOM      1  S   UNL     1       6.960   5.527  18.950  0.00  0.00    +0.000 S 
ENDROOT
BRANCH   1   2
ATOM      2  C   UNL     1       6.959   6.334  17.325  0.00  0.00    +0.000 C 
BRANCH   2   4
ATOM      3  O   UNL     1       7.813   4.563  15.972  0.00  0.00    +0.000 OA
ATOM      4  C   UNL     1       6.867   5.329  16.204  0.00  0.00    +0.000 C 
BRANCH   4   5
ATOM      5  C   UNL     1       5.571   5.307  15.418  0.00  0.00    +0.000 C 
ATOM      6  F   UNL     1       5.041   6.544  15.221  0.00  0.00    +0.000 F 
ATOM      7  F   UNL     1       5.742   4.774  14.175  0.00  0.00    +0.000 F 
ATOM      8  F   UNL     1       4.605   4.568  16.026  0.00  0.00    +0.000 F 
ENDBRANCH   4   5
ENDBRANCH   2   4
ENDBRANCH   1   2
BRANCH   1   9
ATOM      9  C   UNL     1       5.159   5.322  19.226  0.00  0.00    +0.000 C 
BRANCH   9  10
ATOM     10  C   UNL     1       4.829   3.826  19.291  0.00  0.00    +0.000 C 
BRANCH  10  11
ATOM     11  C   UNL     1       3.352   3.535  19.433  0.00  0.00    +0.000 A 
ATOM     12  C   UNL     1       2.567   3.244  18.308  0.00  0.00    +0.000 A 
ATOM     13  C   UNL     1       1.205   2.952  18.448  0.00  0.00    +0.000 A 
ATOM     14  C   UNL     1       0.619   2.940  19.711  0.00  0.00    +0.000 A 
ATOM     15  C   UNL     1       1.395   3.206  20.839  0.00  0.00    +0.000 A 
ATOM     16  C   UNL     1       2.754   3.497  20.701  0.00  0.00    +0.000 A 
ENDBRANCH  10  11
ENDBRANCH   9  10
ENDBRANCH   1   9
TORSDOF 6
ENDMDL
MODEL 8
REMARK VINA RESULT:      -6.3      1.568      1.949
REMARK  Name = 
REMARK  6 active torsions:
REMARK  status: ('A' for Active; 'I' for Inactive)
REMARK    1  A    between atoms: C_2  and  C_3
REMARK    2  A    between atoms: C_2  and  C_13
REMARK    3  A    between atoms: C_3  and  S_4
REMARK    4  A    between atoms: S_4  and  C_5
REMARK    5  A    between atoms: C_5  and  C_6
REMARK    6  A    between atoms: C_6  and  C_7
REMARK                            x       y       z     vdW  Elec       q    Type
REMARK                         _______ _______ _______ _____ _____    ______ ____
ROOT
ATOM      1  S   UNL     1       6.935   5.414  18.414  0.00  0.00    +0.000 S 
ENDROOT
BRANCH   1   2
ATOM      2  C   UNL     1       6.465   6.249  16.873  0.00  0.00    +0.000 C 
BRANCH   2   4
ATOM      3  O   UNL     1       7.753   5.478  15.018  0.00  0.00    +0.000 OA
ATOM      4  C   UNL     1       6.704   5.372  15.670  0.00  0.00    +0.000 C 
BRANCH   4   5
ATOM      5  C   UNL     1       5.617   4.371  15.334  0.00  0.00    +0.000 C 
ATOM      6  F   UNL     1       5.949   3.091  15.651  0.00  0.00    +0.000 F 
ATOM      7  F   UNL     1       4.462   4.633  16.009  0.00  0.00    +0.000 F 
ATOM      8  F   UNL     1       5.301   4.369  14.012  0.00  0.00    +0.000 F 
ENDBRANCH   4   5
ENDBRANCH   2   4
ENDBRANCH   1   2
BRANCH   1   9
ATOM      9  C   UNL     1       5.293   5.222  19.208  0.00  0.00    +0.000 C 
BRANCH   9  10
ATOM     10  C   UNL     1       4.907   3.737  19.206  0.00  0.00    +0.000 C 
BRANCH  10  11
ATOM     11  C   UNL     1       3.425   3.495  19.391  0.00  0.00    +0.000 A 
ATOM     12  C   UNL     1       2.559   3.479  18.288  0.00  0.00    +0.000 A 
ATOM     13  C   UNL     1       1.192   3.230  18.462  0.00  0.00    +0.000 A 
ATOM     14  C   UNL     1       0.681   2.988  19.735  0.00  0.00    +0.000 A 
ATOM     15  C   UNL     1       1.538   2.981  20.835  0.00  0.00    +0.000 A 
ATOM     16  C   UNL     1       2.901   3.228  20.664  0.00  0.00    +0.000 A 
ENDBRANCH  10  11
ENDBRANCH   9  10
ENDBRANCH   1   9
TORSDOF 6
ENDMDL
MODEL 9
REMARK VINA RESULT:      -6.3      2.679      3.174
REMARK  Name = 
REMARK  6 active torsions:
REMARK  status: ('A' for Active; 'I' for Inactive)
REMARK    1  A    between atoms: C_2  and  C_3
REMARK    2  A    between atoms: C_2  and  C_13
REMARK    3  A    between atoms: C_3  and  S_4
REMARK    4  A    between atoms: S_4  and  C_5
REMARK    5  A    between atoms: C_5  and  C_6
REMARK    6  A    between atoms: C_6  and  C_7
REMARK                            x       y       z     vdW  Elec       q    Type
REMARK                         _______ _______ _______ _____ _____    ______ ____
ROOT
ATOM      1  S   UNL     1       5.427   4.194  15.765  0.00  0.00    +0.000 S 
ENDROOT
BRANCH   1   2
ATOM      2  C   UNL     1       6.813   5.335  16.024  0.00  0.00    +0.000 C 
BRANCH   2   4
ATOM      3  O   UNL     1       8.142   4.104  17.577  0.00  0.00    +0.000 OA
ATOM      4  C   UNL     1       7.468   5.121  17.366  0.00  0.00    +0.000 C 
BRANCH   4   5
ATOM      5  C   UNL     1       7.267   6.212  18.399  0.00  0.00    +0.000 C 
ATOM      6  F   UNL     1       6.392   7.174  18.003  0.00  0.00    +0.000 F 
ATOM      7  F   UNL     1       6.771   5.716  19.569  0.00  0.00    +0.000 F 
ATOM      8  F   UNL     1       8.425   6.853  18.712  0.00  0.00    +0.000 F 
ENDBRANCH   4   5
ENDBRANCH   2   4
ENDBRANCH   1   2
BRANCH   1   9
ATOM      9  C   UNL     1       4.597   4.295  17.397  0.00  0.00    +0.000 C 
BRANCH   9  10
ATOM     10  C   UNL     1       3.969   2.935  17.724  0.00  0.00    +0.000 C 
BRANCH  10  11
ATOM     11  C   UNL     1       3.033   2.968  18.912  0.00  0.00    +0.000 A 
ATOM     12  C   UNL     1       3.489   2.624  20.193  0.00  0.00    +0.000 A 
ATOM     13  C   UNL     1       2.625   2.679  21.293  0.00  0.00    +0.000 A 
ATOM     14  C   UNL     1       1.304   3.086  21.125  0.00  0.00    +0.000 A 
ATOM     15  C   UNL     1       0.846   3.451  19.859  0.00  0.00    +0.000 A 
ATOM     16  C   UNL     1       1.707   3.397  18.761  0.00  0.00    +0.000 A 
ENDBRANCH  10  11
ENDBRANCH   9  10
ENDBRANCH   1   9
TORSDOF 6
ENDMDL
