MODEL 1
REMARK VINA RESULT:      -8.3      0.000      0.000
REMARK  Name = 
REMARK  6 active torsions:
REMARK  status: ('A' for Active; 'I' for Inactive)
REMARK    1  A    between atoms: C_1  and  N_2
REMARK    2  A    between atoms: C_3  and  C_5
REMARK    3  A    between atoms: C_9  and  C_10
REMARK    4  A    between atoms: C_10  and  N_11
REMARK    5  A    between atoms: C_14  and  C_15
REMARK    6  A    between atoms: C_15  and  N_16
REMARK                            x       y       z     vdW  Elec       q    Type
REMARK                         _______ _______ _______ _____ _____    ______ ____
ROOT
ATOM      1  N   UNL     1       2.558   7.734  18.754  0.00  0.00    +0.000 NA
ATOM      2  C   UNL     1       2.001   8.623  17.721  0.00  0.00    +0.000 C 
ATOM      3  C   UNL     1       1.704  10.055  18.222  0.00  0.00    +0.000 C 
ATOM      4  C   UNL     1       0.818  10.189  19.473  0.00  0.00    +0.000 C 
ATOM      5  C   UNL     1       1.307   9.105  20.492  0.00  0.00    +0.000 C 
ATOM      6  C   UNL     1       1.654   7.709  19.918  0.00  0.00    +0.000 C 
ENDROOT
BRANCH   1   7
ATOM      7  C   UNL     1       2.765   6.346  18.240  0.00  0.00    +0.000 C 
BRANCH   7  12
ATOM      8  C   UNL     1       6.015   5.178  16.500  0.00  0.00    +0.000 A 
ATOM      9  C   UNL     1       6.786   4.804  17.604  0.00  0.00    +0.000 A 
ATOM     10  C   UNL     1       6.290   4.965  18.894  0.00  0.00    +0.000 A 
ATOM     11  C   UNL     1       5.007   5.502  19.101  0.00  0.00    +0.000 A 
ATOM     12  C   UNL     1       4.207   5.892  18.015  0.00  0.00    +0.000 A 
ATOM     13  C   UNL     1       4.727   5.718  16.716  0.00  0.00    +0.000 A 
BRANCH   8  16
ATOM     14  C   UNL     1       6.289   3.700  13.015  0.00  0.00    +0.000 C 
ATOM     15  N   UNL     1       5.823   4.090  14.319  0.00  0.00    +0.000 N 
ATOM     16  C   UNL     1       6.562   4.912  15.136  0.00  0.00    +0.000 C 
ATOM     17  O   UNL     1       7.617   5.430  14.789  0.00  0.00    +0.000 OA
ATOM     18  H   UNL     1       4.917   3.752  14.627  0.00  0.00    +0.000 HD
ENDBRANCH   8  16
ENDBRANCH   7  12
ENDBRANCH   1   7
BRANCH   4  19
ATOM     19  C   UNL     1      -0.722  10.115  19.325  0.00  0.00    +0.000 C 
BRANCH  19  20
ATOM     20  N   UNL     1      -1.544  10.949  18.358  0.00  0.00    +0.000 N 
ATOM     21  C   UNL     1      -1.872  10.017  17.196  0.00  0.00    +0.000 C 
ATOM     22  C   UNL     1      -3.128  10.489  16.503  0.00  0.00    +0.000 C 
ATOM     23  C   UNL     1      -3.843  10.918  17.731  0.00  0.00    +0.000 A 
ATOM     24  C   UNL     1      -5.220  11.037  17.872  0.00  0.00    +0.000 A 
ATOM     25  C   UNL     1      -5.682  11.860  18.884  0.00  0.00    +0.000 A 
ATOM     26  C   UNL     1      -4.748  12.584  19.641  0.00  0.00    +0.000 A 
ATOM     27  C   UNL     1      -3.349  12.332  19.550  0.00  0.00    +0.000 A 
ATOM     28  C   UNL     1      -2.887  11.382  18.658  0.00  0.00    +0.000 A 
ENDBRANCH  19  20
ENDBRANCH   4  19
TORSDOF 5
ENDMDL
MODEL 2
REMARK VINA RESULT:      -8.2      3.029      9.460
REMARK  Name = 
REMARK  6 active torsions:
REMARK  status: ('A' for Active; 'I' for Inactive)
REMARK    1  A    between atoms: C_1  and  N_2
REMARK    2  A    between atoms: C_3  and  C_5
REMARK    3  A    between atoms: C_9  and  C_10
REMARK    4  A    between atoms: C_10  and  N_11
REMARK    5  A    between atoms: C_14  and  C_15
REMARK    6  A    between atoms: C_15  and  N_16
REMARK                            x       y       z     vdW  Elec       q    Type
REMARK                         _______ _______ _______ _____ _____    ______ ____
ROOT
ATOM      1  N   UNL     1       1.542   6.902  20.351  0.00  0.00    +0.000 NA
ATOM      2  C   UNL     1       2.607   7.033  19.345  0.00  0.00    +0.000 C 
ATOM      3  C   UNL     1       2.539   5.974  18.220  0.00  0.00    +0.000 C 
ATOM      4  C   UNL     1       2.489   4.497  18.651  0.00  0.00    +0.000 C 
ATOM      5  C   UNL     1       1.486   4.410  19.850  0.00  0.00    +0.000 C 
ATOM      6  C   UNL     1       1.559   5.537  20.909  0.00  0.00    +0.000 C 
ENDROOT
BRANCH   1   7
ATOM      7  C   UNL     1       1.689   7.903  21.450  0.00  0.00    +0.000 C 
BRANCH   7  12
ATOM      8  C   UNL     1      -0.745  10.749  20.483  0.00  0.00    +0.000 A 
ATOM      9  C   UNL     1      -1.143  11.197  21.745  0.00  0.00    +0.000 A 
ATOM     10  C   UNL     1      -0.673  10.567  22.894  0.00  0.00    +0.000 A 
ATOM     11  C   UNL     1       0.209   9.476  22.798  0.00  0.00    +0.000 A 
ATOM     12  C   UNL     1       0.627   8.997  21.546  0.00  0.00    +0.000 A 
ATOM     13  C   UNL     1       0.142   9.652  20.394  0.00  0.00    +0.000 A 
BRANCH   8  16
ATOM     14  C   UNL     1      -2.544  11.462  17.218  0.00  0.00    +0.000 C 
ATOM     15  N   UNL     1      -2.087  10.861  18.442  0.00  0.00    +0.000 N 
ATOM     16  C   UNL     1      -1.215  11.507  19.286  0.00  0.00    +0.000 C 
ATOM     17  O   UNL     1      -0.831  12.656  19.101  0.00  0.00    +0.000 OA
ATOM     18  H   UNL     1      -2.435   9.938  18.685  0.00  0.00    +0.000 HD
ENDBRANCH   8  16
ENDBRANCH   7  12
ENDBRANCH   1   7
BRANCH   4  19
ATOM     19  C   UNL     1       3.807   3.766  19.013  0.00  0.00    +0.000 C 
BRANCH  19  20
ATOM     20  N   UNL     1       5.056   3.746  18.149  0.00  0.00    +0.000 N 
ATOM     21  C   UNL     1       4.555   3.827  16.710  0.00  0.00    +0.000 C 
ATOM     22  C   UNL     1       5.633   4.411  15.828  0.00  0.00    +0.000 C 
ATOM     23  C   UNL     1       6.137   5.398  16.814  0.00  0.00    +0.000 A 
ATOM     24  C   UNL     1       6.828   6.566  16.517  0.00  0.00    +0.000 A 
ATOM     25  C   UNL     1       7.603   7.114  17.523  0.00  0.00    +0.000 A 
ATOM     26  C   UNL     1       7.715   6.423  18.739  0.00  0.00    +0.000 A 
ATOM     27  C   UNL     1       6.890   5.302  19.045  0.00  0.00    +0.000 A 
ATOM     28  C   UNL     1       5.983   4.849  18.105  0.00  0.00    +0.000 A 
ENDBRANCH  19  20
ENDBRANCH   4  19
TORSDOF 5
ENDMDL
MODEL 3
REMARK VINA RESULT:      -8.1      3.469      9.499
REMARK  Name = 
REMARK  6 active torsions:
REMARK  status: ('A' for Active; 'I' for Inactive)
REMARK    1  A    between atoms: C_1  and  N_2
REMARK    2  A    between atoms: C_3  and  C_5
REMARK    3  A    between atoms: C_9  and  C_10
REMARK    4  A    between atoms: C_10  and  N_11
REMARK    5  A    between atoms: C_14  and  C_15
REMARK    6  A    between atoms: C_15  and  N_16
REMARK                            x       y       z     vdW  Elec       q    Type
REMARK                         _______ _______ _______ _____ _____    ______ ____
ROOT
ATOM      1  N   UNL     1       1.570   6.878  20.336  0.00  0.00    +0.000 NA
ATOM      2  C   UNL     1       2.591   7.079  19.295  0.00  0.00    +0.000 C 
ATOM      3  C   UNL     1       2.497   6.071  18.126  0.00  0.00    +0.000 C 
ATOM      4  C   UNL     1       2.495   4.575  18.489  0.00  0.00    +0.000 C 
ATOM      5  C   UNL     1       1.544   4.411  19.722  0.00  0.00    +0.000 C 
ATOM      6  C   UNL     1       1.637   5.490  20.829  0.00  0.00    +0.000 C 
ENDROOT
BRANCH   1   7
ATOM      7  C   UNL     1       1.742   7.832  21.474  0.00  0.00    +0.000 C 
BRANCH   7  12
ATOM      8  C   UNL     1      -0.489  10.896  20.707  0.00  0.00    +0.000 A 
ATOM      9  C   UNL     1      -1.032  11.150  21.970  0.00  0.00    +0.000 A 
ATOM     10  C   UNL     1      -0.723  10.323  23.046  0.00  0.00    +0.000 A 
ATOM     11  C   UNL     1       0.140   9.226  22.877  0.00  0.00    +0.000 A 
ATOM     12  C   UNL     1       0.700   8.939  21.621  0.00  0.00    +0.000 A 
ATOM     13  C   UNL     1       0.378   9.791  20.544  0.00  0.00    +0.000 A 
BRANCH   8  16
ATOM     14  C   UNL     1      -0.189  13.971  18.504  0.00  0.00    +0.000 C 
ATOM     15  N   UNL     1       0.048  12.939  19.477  0.00  0.00    +0.000 N 
ATOM     16  C   UNL     1      -0.790  11.857  19.605  0.00  0.00    +0.000 C 
ATOM     17  O   UNL     1      -1.740  11.653  18.858  0.00  0.00    +0.000 OA
ATOM     18  H   UNL     1       0.867  13.018  20.073  0.00  0.00    +0.000 HD
ENDBRANCH   8  16
ENDBRANCH   7  12
ENDBRANCH   1   7
BRANCH   4  19
ATOM     19  C   UNL     1       3.840   3.858  18.763  0.00  0.00    +0.000 C 
BRANCH  19  20
ATOM     20  N   UNL     1       5.071   3.949  17.878  0.00  0.00    +0.000 N 
ATOM     21  C   UNL     1       4.548   4.314  16.493  0.00  0.00    +0.000 C 
ATOM     22  C   UNL     1       5.633   5.009  15.704  0.00  0.00    +0.000 C 
ATOM     23  C   UNL     1       6.197   5.777  16.842  0.00  0.00    +0.000 A 
ATOM     24  C   UNL     1       6.931   6.953  16.747  0.00  0.00    +0.000 A 
ATOM     25  C   UNL     1       7.746   7.276  17.816  0.00  0.00    +0.000 A 
ATOM     26  C   UNL     1       7.852   6.368  18.881  0.00  0.00    +0.000 A 
ATOM     27  C   UNL     1       6.986   5.242  18.998  0.00  0.00    +0.000 A 
ATOM     28  C   UNL     1       6.044   5.006  18.013  0.00  0.00    +0.000 A 
ENDBRANCH  19  20
ENDBRANCH   4  19
TORSDOF 5
ENDMDL
MODEL 4
REMARK VINA RESULT:      -8.1      3.782     10.111
REMARK  Name = 
REMARK  6 active torsions:
REMARK  status: ('A' for Active; 'I' for Inactive)
REMARK    1  A    between atoms: C_1  and  N_2
REMARK    2  A    between atoms: C_3  and  C_5
REMARK    3  A    between atoms: C_9  and  C_10
REMARK    4  A    between atoms: C_10  and  N_11
REMARK    5  A    between atoms: C_14  and  C_15
REMARK    6  A    between atoms: C_15  and  N_16
REMARK                            x       y       z     vdW  Elec       q    Type
REMARK                         _______ _______ _______ _____ _____    ______ ____
ROOT
ATOM      1  N   UNL     1       1.442   7.111  20.208  0.00  0.00    +0.000 NA
ATOM      2  C   UNL     1       2.535   7.134  19.224  0.00  0.00    +0.000 C 
ATOM      3  C   UNL     1       2.519   5.939  18.243  0.00  0.00    +0.000 C 
ATOM      4  C   UNL     1       2.481   4.529  18.859  0.00  0.00    +0.000 C 
ATOM      5  C   UNL     1       1.443   4.575  20.030  0.00  0.00    +0.000 C 
ATOM      6  C   UNL     1       1.465   5.829  20.937  0.00  0.00    +0.000 C 
ENDROOT
BRANCH   1   7
ATOM      7  C   UNL     1       1.538   8.248  21.173  0.00  0.00    +0.000 C 
BRANCH   7  12
ATOM      8  C   UNL     1      -0.705  11.357  21.677  0.00  0.00    +0.000 A 
ATOM      9  C   UNL     1      -1.099  11.615  20.362  0.00  0.00    +0.000 A 
ATOM     10  C   UNL     1      -0.618  10.830  19.318  0.00  0.00    +0.000 A 
ATOM     11  C   UNL     1       0.267   9.768  19.576  0.00  0.00    +0.000 A 
ATOM     12  C   UNL     1       0.688   9.484  20.885  0.00  0.00    +0.000 A 
ATOM     13  C   UNL     1       0.185  10.289  21.929  0.00  0.00    +0.000 A 
BRANCH   8  16
ATOM     14  C   UNL     1      -3.358  12.783  23.987  0.00  0.00    +0.000 C 
ATOM     15  N   UNL     1      -2.650  11.993  23.016  0.00  0.00    +0.000 N 
ATOM     16  C   UNL     1      -1.310  12.178  22.768  0.00  0.00    +0.000 C 
ATOM     17  O   UNL     1      -0.614  12.962  23.402  0.00  0.00    +0.000 OA
ATOM     18  H   UNL     1      -3.162  11.274  22.515  0.00  0.00    +0.000 HD
ENDBRANCH   8  16
ENDBRANCH   7  12
ENDBRANCH   1   7
BRANCH   4  19
ATOM     19  C   UNL     1       3.799   3.878  19.348  0.00  0.00    +0.000 C 
BRANCH  19  20
ATOM     20  N   UNL     1       5.059   3.728  18.512  0.00  0.00    +0.000 N 
ATOM     21  C   UNL     1       4.575   3.573  17.075  0.00  0.00    +0.000 C 
ATOM     22  C   UNL     1       5.660   4.016  16.121  0.00  0.00    +0.000 C 
ATOM     23  C   UNL     1       6.146   5.153  16.941  0.00  0.00    +0.000 A 
ATOM     24  C   UNL     1       6.833   6.264  16.467  0.00  0.00    +0.000 A 
ATOM     25  C   UNL     1       7.592   6.973  17.381  0.00  0.00    +0.000 A 
ATOM     26  C   UNL     1       7.694   6.487  18.693  0.00  0.00    +0.000 A 
ATOM     27  C   UNL     1       6.872   5.424  19.167  0.00  0.00    +0.000 A 
ATOM     28  C   UNL     1       5.980   4.818  18.302  0.00  0.00    +0.000 A 
ENDBRANCH  19  20
ENDBRANCH   4  19
TORSDOF 5
ENDMDL
MODEL 5
REMARK VINA RESULT:      -8.0      3.154      9.528
REMARK  Name = 
REMARK  6 active torsions:
REMARK  status: ('A' for Active; 'I' for Inactive)
REMARK    1  A    between atoms: C_1  and  N_2
REMARK    2  A    between atoms: C_3  and  C_5
REMARK    3  A    between atoms: C_9  and  C_10
REMARK    4  A    between atoms: C_10  and  N_11
REMARK    5  A    between atoms: C_14  and  C_15
REMARK    6  A    between atoms: C_15  and  N_16
REMARK                            x       y       z     vdW  Elec       q    Type
REMARK                         _______ _______ _______ _____ _____    ______ ____
ROOT
ATOM      1  N   UNL     1       1.142   8.225  20.164  0.00  0.00    +0.000 NA
ATOM      2  C   UNL     1       2.104   8.321  19.055  0.00  0.00    +0.000 C 
ATOM      3  C   UNL     1       2.269   7.008  18.255  0.00  0.00    +0.000 C 
ATOM      4  C   UNL     1       2.612   5.739  19.056  0.00  0.00    +0.000 C 
ATOM      5  C   UNL     1       1.705   5.752  20.333  0.00  0.00    +0.000 C 
ATOM      6  C   UNL     1       1.525   7.112  21.052  0.00  0.00    +0.000 C 
ENDROOT
BRANCH   1   7
ATOM      7  C   UNL     1       1.067   9.497  20.946  0.00  0.00    +0.000 C 
BRANCH   7  12
ATOM      8  C   UNL     1      -1.296  11.561  18.685  0.00  0.00    +0.000 A 
ATOM      9  C   UNL     1      -0.796  12.850  18.888  0.00  0.00    +0.000 A 
ATOM     10  C   UNL     1       0.256  13.064  19.773  0.00  0.00    +0.000 A 
ATOM     11  C   UNL     1       0.831  11.986  20.470  0.00  0.00    +0.000 A 
ATOM     12  C   UNL     1       0.351  10.678  20.293  0.00  0.00    +0.000 A 
ATOM     13  C   UNL     1      -0.714  10.482  19.389  0.00  0.00    +0.000 A 
BRANCH   8  16
ATOM     14  C   UNL     1      -2.935  10.684  15.376  0.00  0.00    +0.000 C 
ATOM     15  N   UNL     1      -2.000  10.836  16.459  0.00  0.00    +0.000 N 
ATOM     16  C   UNL     1      -2.372  11.374  17.668  0.00  0.00    +0.000 C 
ATOM     17  O   UNL     1      -3.527  11.685  17.935  0.00  0.00    +0.000 OA
ATOM     18  H   UNL     1      -1.045  10.522  16.317  0.00  0.00    +0.000 HD
ENDBRANCH   8  16
ENDBRANCH   7  12
ENDBRANCH   1   7
BRANCH   4  19
ATOM     19  C   UNL     1       4.083   5.469  19.458  0.00  0.00    +0.000 C 
BRANCH  19  20
ATOM     20  N   UNL     1       5.299   5.995  18.715  0.00  0.00    +0.000 N 
ATOM     21  C   UNL     1       6.500   5.331  19.381  0.00  0.00    +0.000 C 
ATOM     22  C   UNL     1       7.655   5.275  18.410  0.00  0.00    +0.000 C 
ATOM     23  C   UNL     1       6.842   4.989  17.203  0.00  0.00    +0.000 A 
ATOM     24  C   UNL     1       7.297   4.379  16.040  0.00  0.00    +0.000 A 
ATOM     25  C   UNL     1       6.568   4.598  14.885  0.00  0.00    +0.000 A 
ATOM     26  C   UNL     1       5.479   5.482  14.935  0.00  0.00    +0.000 A 
ATOM     27  C   UNL     1       4.971   5.981  16.168  0.00  0.00    +0.000 A 
ATOM     28  C   UNL     1       5.592   5.625  17.352  0.00  0.00    +0.000 A 
ENDBRANCH  19  20
ENDBRANCH   4  19
TORSDOF 5
ENDMDL
MODEL 6
REMARK VINA RESULT:      -8.0      3.665      8.975
REMARK  Name = 
REMARK  6 active torsions:
REMARK  status: ('A' for Active; 'I' for Inactive)
REMARK    1  A    between atoms: C_1  and  N_2
REMARK    2  A    between atoms: C_3  and  C_5
REMARK    3  A    between atoms: C_9  and  C_10
REMARK    4  A    between atoms: C_10  and  N_11
REMARK    5  A    between atoms: C_14  and  C_15
REMARK    6  A    between atoms: C_15  and  N_16
REMARK                            x       y       z     vdW  Elec       q    Type
REMARK                         _______ _______ _______ _____ _____    ______ ____
ROOT
ATOM      1  N   UNL     1       1.628   8.876  20.002  0.00  0.00    +0.000 NA
ATOM      2  C   UNL     1       1.720   7.491  20.491  0.00  0.00    +0.000 C 
ATOM      3  C   UNL     1       2.873   6.679  19.857  0.00  0.00    +0.000 C 
ATOM      4  C   UNL     1       2.932   6.632  18.320  0.00  0.00    +0.000 C 
ATOM      5  C   UNL     1       2.645   8.085  17.811  0.00  0.00    +0.000 C 
ATOM      6  C   UNL     1       1.523   8.872  18.532  0.00  0.00    +0.000 C 
ENDROOT
BRANCH   1   7
ATOM      7  C   UNL     1       0.461   9.598  20.594  0.00  0.00    +0.000 C 
BRANCH   7  12
ATOM      8  C   UNL     1      -1.687  11.514  18.011  0.00  0.00    +0.000 A 
ATOM      9  C   UNL     1      -1.098  12.780  18.065  0.00  0.00    +0.000 A 
ATOM     10  C   UNL     1      -0.054  13.032  18.949  0.00  0.00    +0.000 A 
ATOM     11  C   UNL     1       0.422  12.015  19.797  0.00  0.00    +0.000 A 
ATOM     12  C   UNL     1      -0.149  10.732  19.772  0.00  0.00    +0.000 A 
ATOM     13  C   UNL     1      -1.204  10.497  18.866  0.00  0.00    +0.000 A 
BRANCH   8  16
ATOM     14  C   UNL     1      -3.295  10.393  14.761  0.00  0.00    +0.000 C 
ATOM     15  N   UNL     1      -2.377  10.610  15.846  0.00  0.00    +0.000 N 
ATOM     16  C   UNL     1      -2.751  11.273  16.991  0.00  0.00    +0.000 C 
ATOM     17  O   UNL     1      -3.897  11.652  17.202  0.00  0.00    +0.000 OA
ATOM     18  H   UNL     1      -1.432  10.248  15.757  0.00  0.00    +0.000 HD
ENDBRANCH   8  16
ENDBRANCH   7  12
ENDBRANCH   1   7
BRANCH   4  19
ATOM     19  C   UNL     1       2.040   5.621  17.556  0.00  0.00    +0.000 C 
BRANCH  19  20
ATOM     20  N   UNL     1       1.984   4.129  17.831  0.00  0.00    +0.000 N 
ATOM     21  C   UNL     1       3.333   3.582  17.377  0.00  0.00    +0.000 C 
ATOM     22  C   UNL     1       3.640   2.302  18.118  0.00  0.00    +0.000 C 
ATOM     23  C   UNL     1       3.071   2.726  19.421  0.00  0.00    +0.000 A 
ATOM     24  C   UNL     1       3.411   2.209  20.666  0.00  0.00    +0.000 A 
ATOM     25  C   UNL     1       2.495   2.374  21.689  0.00  0.00    +0.000 A 
ATOM     26  C   UNL     1       1.258   2.967  21.396  0.00  0.00    +0.000 A 
ATOM     27  C   UNL     1       1.004   3.598  20.144  0.00  0.00    +0.000 A 
ATOM     28  C   UNL     1       1.984   3.589  19.169  0.00  0.00    +0.000 A 
ENDBRANCH  19  20
ENDBRANCH   4  19
TORSDOF 5
ENDMDL
MODEL 7
REMARK VINA RESULT:      -7.9      2.598      3.795
REMARK  Name = 
REMARK  6 active torsions:
REMARK  status: ('A' for Active; 'I' for Inactive)
REMARK    1  A    between atoms: C_1  and  N_2
REMARK    2  A    between atoms: C_3  and  C_5
REMARK    3  A    between atoms: C_9  and  C_10
REMARK    4  A    between atoms: C_10  and  N_11
REMARK    5  A    between atoms: C_14  and  C_15
REMARK    6  A    between atoms: C_15  and  N_16
REMARK                            x       y       z     vdW  Elec       q    Type
REMARK                         _______ _______ _______ _____ _____    ______ ____
ROOT
ATOM      1  N   UNL     1       1.853   9.231  18.644  0.00  0.00    +0.000 NA
ATOM      2  C   UNL     1       1.857  10.488  17.878  0.00  0.00    +0.000 C 
ATOM      3  C   UNL     1       1.909  11.757  18.760  0.00  0.00    +0.000 C 
ATOM      4  C   UNL     1       0.840  11.889  19.860  0.00  0.00    +0.000 C 
ATOM      5  C   UNL     1       0.717  10.485  20.542  0.00  0.00    +0.000 C 
ATOM      6  C   UNL     1       0.740   9.248  19.610  0.00  0.00    +0.000 C 
ENDROOT
BRANCH   1   7
ATOM      7  C   UNL     1       1.736   8.037  17.753  0.00  0.00    +0.000 C 
BRANCH   7  12
ATOM      8  C   UNL     1       3.337   4.742  18.992  0.00  0.00    +0.000 A 
ATOM      9  C   UNL     1       4.663   4.925  18.590  0.00  0.00    +0.000 A 
ATOM     10  C   UNL     1       5.033   6.070  17.891  0.00  0.00    +0.000 A 
ATOM     11  C   UNL     1       4.079   7.056  17.584  0.00  0.00    +0.000 A 
ATOM     12  C   UNL     1       2.737   6.903  17.969  0.00  0.00    +0.000 A 
ATOM     13  C   UNL     1       2.383   5.738  18.679  0.00  0.00    +0.000 A 
BRANCH   8  16
ATOM     14  C   UNL     1       1.788   2.634  21.742  0.00  0.00    +0.000 C 
ATOM     15  N   UNL     1       2.119   3.706  20.841  0.00  0.00    +0.000 N 
ATOM     16  C   UNL     1       3.007   3.535  19.806  0.00  0.00    +0.000 C 
ATOM     17  O   UNL     1       3.514   2.454  19.530  0.00  0.00    +0.000 OA
ATOM     18  H   UNL     1       1.668   4.606  20.977  0.00  0.00    +0.000 HD
ENDBRANCH   8  16
ENDBRANCH   7  12
ENDBRANCH   1   7
BRANCH   4  19
ATOM     19  C   UNL     1      -0.568  12.420  19.491  0.00  0.00    +0.000 C 
BRANCH  19  20
ATOM     20  N   UNL     1      -1.819  11.566  19.382  0.00  0.00    +0.000 N 
ATOM     21  C   UNL     1      -2.969  12.478  19.798  0.00  0.00    +0.000 C 
ATOM     22  C   UNL     1      -4.257  11.988  19.178  0.00  0.00    +0.000 C 
ATOM     23  C   UNL     1      -3.669  11.576  17.879  0.00  0.00    +0.000 A 
ATOM     24  C   UNL     1      -4.355  11.452  16.677  0.00  0.00    +0.000 A 
ATOM     25  C   UNL     1      -3.788  10.644  15.708  0.00  0.00    +0.000 A 
ATOM     26  C   UNL     1      -2.617   9.937  16.021  0.00  0.00    +0.000 A 
ATOM     27  C   UNL     1      -1.880  10.194  17.213  0.00  0.00    +0.000 A 
ATOM     28  C   UNL     1      -2.350  11.132  18.113  0.00  0.00    +0.000 A 
ENDBRANCH  19  20
ENDBRANCH   4  19
TORSDOF 5
ENDMDL
MODEL 8
REMARK VINA RESULT:      -7.9      2.758      9.459
REMARK  Name = 
REMARK  6 active torsions:
REMARK  status: ('A' for Active; 'I' for Inactive)
REMARK    1  A    between atoms: C_1  and  N_2
REMARK    2  A    between atoms: C_3  and  C_5
REMARK    3  A    between atoms: C_9  and  C_10
REMARK    4  A    between atoms: C_10  and  N_11
REMARK    5  A    between atoms: C_14  and  C_15
REMARK    6  A    between atoms: C_15  and  N_16
REMARK                            x       y       z     vdW  Elec       q    Type
REMARK                         _______ _______ _______ _____ _____    ______ ____
ROOT
ATOM      1  N   UNL     1       1.426   7.325  20.040  0.00  0.00    +0.000 NA
ATOM      2  C   UNL     1       2.497   7.244  19.034  0.00  0.00    +0.000 C 
ATOM      3  C   UNL     1       2.467   5.947  18.192  0.00  0.00    +0.000 C 
ATOM      4  C   UNL     1       2.451   4.614  18.960  0.00  0.00    +0.000 C 
ATOM      5  C   UNL     1       1.439   4.785  20.143  0.00  0.00    +0.000 C 
ATOM      6  C   UNL     1       1.472   6.133  20.905  0.00  0.00    +0.000 C 
ENDROOT
BRANCH   1   7
ATOM      7  C   UNL     1       1.536   8.563  20.870  0.00  0.00    +0.000 C 
BRANCH   7  12
ATOM      8  C   UNL     1      -1.110  10.732  19.069  0.00  0.00    +0.000 A 
ATOM      9  C   UNL     1      -0.942  11.954  19.726  0.00  0.00    +0.000 A 
ATOM     10  C   UNL     1      -0.023  12.072  20.765  0.00  0.00    +0.000 A 
ATOM     11  C   UNL     1       0.747  10.965  21.163  0.00  0.00    +0.000 A 
ATOM     12  C   UNL     1       0.602   9.721  20.527  0.00  0.00    +0.000 A 
ATOM     13  C   UNL     1      -0.332   9.624  19.474  0.00  0.00    +0.000 A 
BRANCH   8  16
ATOM     14  C   UNL     1      -4.174  11.463  16.952  0.00  0.00    +0.000 C 
ATOM     15  N   UNL     1      -3.160  11.488  17.971  0.00  0.00    +0.000 N 
ATOM     16  C   UNL     1      -2.051  10.678  17.910  0.00  0.00    +0.000 C 
ATOM     17  O   UNL     1      -1.808   9.944  16.960  0.00  0.00    +0.000 OA
ATOM     18  H   UNL     1      -3.271  12.136  18.745  0.00  0.00    +0.000 HD
ENDBRANCH   8  16
ENDBRANCH   7  12
ENDBRANCH   1   7
BRANCH   4  19
ATOM     19  C   UNL     1       3.783   4.026  19.489  0.00  0.00    +0.000 C 
BRANCH  19  20
ATOM     20  N   UNL     1       5.032   3.810  18.651  0.00  0.00    +0.000 N 
ATOM     21  C   UNL     1       4.532   3.594  17.227  0.00  0.00    +0.000 C 
ATOM     22  C   UNL     1       5.617   3.967  16.244  0.00  0.00    +0.000 C 
ATOM     23  C   UNL     1       6.133   5.133  17.003  0.00  0.00    +0.000 A 
ATOM     24  C   UNL     1       6.838   6.206  16.470  0.00  0.00    +0.000 A 
ATOM     25  C   UNL     1       7.619   6.944  17.341  0.00  0.00    +0.000 A 
ATOM     26  C   UNL     1       7.723   6.521  18.675  0.00  0.00    +0.000 A 
ATOM     27  C   UNL     1       6.885   5.499  19.207  0.00  0.00    +0.000 A 
ATOM     28  C   UNL     1       5.973   4.869  18.380  0.00  0.00    +0.000 A 
ENDBRANCH  19  20
ENDBRANCH   4  19
TORSDOF 5
ENDMDL
MODEL 9
REMARK VINA RESULT:      -7.9      1.458      2.132
REMARK  Name = 
REMARK  6 active torsions:
REMARK  status: ('A' for Active; 'I' for Inactive)
REMARK    1  A    between atoms: C_1  and  N_2
REMARK    2  A    between atoms: C_3  and  C_5
REMARK    3  A    between atoms: C_9  and  C_10
REMARK    4  A    between atoms: C_10  and  N_11
REMARK    5  A    between atoms: C_14  and  C_15
REMARK    6  A    between atoms: C_15  and  N_16
REMARK                            x       y       z     vdW  Elec       q    Type
REMARK                         _______ _______ _______ _____ _____    ______ ____
ROOT
ATOM      1  N   UNL     1       2.042   7.939  20.014  0.00  0.00    +0.000 NA
ATOM      2  C   UNL     1       1.952   8.034  18.548  0.00  0.00    +0.000 C 
ATOM      3  C   UNL     1       1.792   9.480  18.024  0.00  0.00    +0.000 C 
ATOM      4  C   UNL     1       0.642  10.316  18.613  0.00  0.00    +0.000 C 
ATOM      5  C   UNL     1       0.637  10.054  20.157  0.00  0.00    +0.000 C 
ATOM      6  C   UNL     1       0.870   8.595  20.622  0.00  0.00    +0.000 C 
ENDROOT
BRANCH   1   7
ATOM      7  C   UNL     1       2.128   6.520  20.475  0.00  0.00    +0.000 C 
BRANCH   7  12
ATOM      8  C   UNL     1       4.319   4.554  17.967  0.00  0.00    +0.000 A 
ATOM      9  C   UNL     1       3.363   3.727  17.372  0.00  0.00    +0.000 A 
ATOM     10  C   UNL     1       2.038   3.766  17.798  0.00  0.00    +0.000 A 
ATOM     11  C   UNL     1       1.648   4.638  18.830  0.00  0.00    +0.000 A 
ATOM     12  C   UNL     1       2.583   5.480  19.452  0.00  0.00    +0.000 A 
ATOM     13  C   UNL     1       3.919   5.429  19.003  0.00  0.00    +0.000 A 
BRANCH   8  16
ATOM     14  C   UNL     1       7.129   4.656  15.417  0.00  0.00    +0.000 C 
ATOM     15  N   UNL     1       5.849   4.735  16.068  0.00  0.00    +0.000 N 
ATOM     16  C   UNL     1       5.708   4.531  17.420  0.00  0.00    +0.000 C 
ATOM     17  O   UNL     1       6.659   4.350  18.172  0.00  0.00    +0.000 OA
ATOM     18  H   UNL     1       5.035   4.960  15.503  0.00  0.00    +0.000 HD
ENDBRANCH   8  16
ENDBRANCH   7  12
ENDBRANCH   1   7
BRANCH   4  19
ATOM     19  C   UNL     1      -0.790  10.144  18.046  0.00  0.00    +0.000 C 
BRANCH  19  20
ATOM     20  N   UNL     1      -1.752  11.282  17.753  0.00  0.00    +0.000 N 
ATOM     21  C   UNL     1      -2.796  10.696  16.808  0.00  0.00    +0.000 C 
ATOM     22  C   UNL     1      -4.082  11.480  16.921  0.00  0.00    +0.000 C 
ATOM     23  C   UNL     1      -4.010  11.705  18.386  0.00  0.00    +0.000 A 
ATOM     24  C   UNL     1      -5.087  11.973  19.223  0.00  0.00    +0.000 A 
ATOM     25  C   UNL     1      -4.810  12.593  20.428  0.00  0.00    +0.000 A 
ATOM     26  C   UNL     1      -3.491  12.990  20.694  0.00  0.00    +0.000 A 
ATOM     27  C   UNL     1      -2.403  12.581  19.870  0.00  0.00    +0.000 A 
ATOM     28  C   UNL     1      -2.651  11.809  18.750  0.00  0.00    +0.000 A 
ENDBRANCH  19  20
ENDBRANCH   4  19
TORSDOF 5
ENDMDL
