MODEL 1
REMARK VINA RESULT:      -7.8      0.000      0.000
REMARK  Name = 
REMARK  3 active torsions:
REMARK  status: ('A' for Active; 'I' for Inactive)
REMARK    1  A    between atoms: N_2  and  C_4
REMARK    2  A    between atoms: C_7  and  C_8
REMARK    3  A    between atoms: C_12  and  N_13
REMARK                            x       y       z     vdW  Elec       q    Type
REMARK                         _______ _______ _______ _____ _____    ______ ____
ROOT
ATOM      1  C   UNL     1       3.187   5.587  18.693  0.00  0.00    +0.000 A 
ATOM      2  C   UNL     1       2.702   4.516  19.456  0.00  0.00    +0.000 A 
ATOM      3  C   UNL     1       1.831   4.730  20.518  0.00  0.00    +0.000 A 
ATOM      4  C   UNL     1       1.431   6.029  20.844  0.00  0.00    +0.000 A 
ATOM      5  C   UNL     1       1.886   7.142  20.126  0.00  0.00    +0.000 A 
ATOM      6  C   UNL     1       2.766   6.883  19.060  0.00  0.00    +0.000 A 
ENDROOT
BRANCH   5   7
ATOM      7  N   UNL     1       1.496   8.428  20.438  0.00  0.00    +0.000 N 
ATOM      8  C   UNL     1       1.154   9.425  19.409  0.00  0.00    +0.000 C 
ATOM      9  C   UNL     1      -0.279   9.967  19.640  0.00  0.00    +0.000 C 
ATOM     10  N   UNL     1      -0.534  10.451  21.011  0.00  0.00    +0.000 NA
ATOM     11  C   UNL     1      -0.181   9.390  21.977  0.00  0.00    +0.000 C 
ATOM     12  C   UNL     1       1.271   8.892  21.815  0.00  0.00    +0.000 C 
ATOM     13  H   UNL     1      -1.524  10.669  21.105  0.00  0.00    +0.000 HD
ENDBRANCH   5   7
BRANCH   1  17
ATOM     14  C   UNL     1       5.835   4.977  15.347  0.00  0.00    +0.000 A 
ATOM     15  C   UNL     1       5.469   6.272  15.720  0.00  0.00    +0.000 A 
ATOM     16  C   UNL     1       4.611   6.457  16.809  0.00  0.00    +0.000 A 
ATOM     17  C   UNL     1       4.088   5.368  17.535  0.00  0.00    +0.000 A 
ATOM     18  C   UNL     1       4.472   4.075  17.127  0.00  0.00    +0.000 A 
ATOM     19  C   UNL     1       5.343   3.873  16.050  0.00  0.00    +0.000 A 
BRANCH  14  21
ATOM     20  O   UNL     1       6.448   3.908  13.382  0.00  0.00    +0.000 OA
ATOM     21  N   UNL     1       6.744   4.777  14.214  0.00  0.00    +0.000 N 
ATOM     22  O   UNL     1       7.755   5.492  14.153  0.00  0.00    +0.000 OA
ENDBRANCH  14  21
ENDBRANCH   1  17
TORSDOF 3
ENDMDL
MODEL 2
REMARK VINA RESULT:      -7.8      0.076      1.255
REMARK  Name = 
REMARK  3 active torsions:
REMARK  status: ('A' for Active; 'I' for Inactive)
REMARK    1  A    between atoms: N_2  and  C_4
REMARK    2  A    between atoms: C_7  and  C_8
REMARK    3  A    between atoms: C_12  and  N_13
REMARK                            x       y       z     vdW  Elec       q    Type
REMARK                         _______ _______ _______ _____ _____    ______ ____
ROOT
ATOM      1  C   UNL     1       3.150   5.612  18.731  0.00  0.00    +0.000 A 
ATOM      2  C   UNL     1       2.628   4.533  19.458  0.00  0.00    +0.000 A 
ATOM      3  C   UNL     1       1.737   4.740  20.505  0.00  0.00    +0.000 A 
ATOM      4  C   UNL     1       1.353   6.039  20.852  0.00  0.00    +0.000 A 
ATOM      5  C   UNL     1       1.843   7.158  20.169  0.00  0.00    +0.000 A 
ATOM      6  C   UNL     1       2.743   6.907  19.117  0.00  0.00    +0.000 A 
ENDROOT
BRANCH   5   7
ATOM      7  N   UNL     1       1.469   8.444  20.501  0.00  0.00    +0.000 N 
ATOM      8  C   UNL     1       1.129   9.458  19.488  0.00  0.00    +0.000 C 
ATOM      9  C   UNL     1      -0.297  10.012  19.737  0.00  0.00    +0.000 C 
ATOM     10  N   UNL     1      -0.536  10.480  21.117  0.00  0.00    +0.000 NA
ATOM     11  C   UNL     1      -0.186   9.402  22.065  0.00  0.00    +0.000 C 
ATOM     12  C   UNL     1       1.259   8.892  21.886  0.00  0.00    +0.000 C 
ATOM     13  H   UNL     1      -1.523  10.706  21.222  0.00  0.00    +0.000 HD
ENDBRANCH   5   7
BRANCH   1  17
ATOM     14  C   UNL     1       5.803   4.980  15.394  0.00  0.00    +0.000 A 
ATOM     15  C   UNL     1       5.305   3.887  16.106  0.00  0.00    +0.000 A 
ATOM     16  C   UNL     1       4.443   4.105  17.185  0.00  0.00    +0.000 A 
ATOM     17  C   UNL     1       4.073   5.403  17.589  0.00  0.00    +0.000 A 
ATOM     18  C   UNL     1       4.601   6.484  16.854  0.00  0.00    +0.000 A 
ATOM     19  C   UNL     1       5.451   6.282  15.760  0.00  0.00    +0.000 A 
BRANCH  14  21
ATOM     20  O   UNL     1       7.708   5.469  14.164  0.00  0.00    +0.000 OA
ATOM     21  N   UNL     1       6.698   4.757  14.254  0.00  0.00    +0.000 N 
ATOM     22  O   UNL     1       6.392   3.866  13.447  0.00  0.00    +0.000 OA
ENDBRANCH  14  21
ENDBRANCH   1  17
TORSDOF 3
ENDMDL
MODEL 3
REMARK VINA RESULT:      -7.6      3.768      7.423
REMARK  Name = 
REMARK  3 active torsions:
REMARK  status: ('A' for Active; 'I' for Inactive)
REMARK    1  A    between atoms: N_2  and  C_4
REMARK    2  A    between atoms: C_7  and  C_8
REMARK    3  A    between atoms: C_12  and  N_13
REMARK                            x       y       z     vdW  Elec       q    Type
REMARK                         _______ _______ _______ _____ _____    ______ ____
ROOT
ATOM      1  C   UNL     1       2.530   5.646  18.403  0.00  0.00    +0.000 A 
ATOM      2  C   UNL     1       1.748   4.492  18.547  0.00  0.00    +0.000 A 
ATOM      3  C   UNL     1       2.204   3.257  18.099  0.00  0.00    +0.000 A 
ATOM      4  C   UNL     1       3.456   3.154  17.488  0.00  0.00    +0.000 A 
ATOM      5  C   UNL     1       4.282   4.269  17.307  0.00  0.00    +0.000 A 
ATOM      6  C   UNL     1       3.785   5.500  17.774  0.00  0.00    +0.000 A 
ENDROOT
BRANCH   5   7
ATOM      7  N   UNL     1       5.521   4.177  16.708  0.00  0.00    +0.000 N 
ATOM      8  C   UNL     1       5.708   3.638  15.350  0.00  0.00    +0.000 C 
ATOM      9  C   UNL     1       6.421   4.677  14.450  0.00  0.00    +0.000 C 
ATOM     10  N   UNL     1       7.667   5.225  15.022  0.00  0.00    +0.000 NA
ATOM     11  C   UNL     1       7.390   5.758  16.372  0.00  0.00    +0.000 C 
ATOM     12  C   UNL     1       6.752   4.711  17.309  0.00  0.00    +0.000 C 
ATOM     13  H   UNL     1       7.997   5.983  14.428  0.00  0.00    +0.000 HD
ENDBRANCH   5   7
BRANCH   1  17
ATOM     14  C   UNL     1       1.163   9.471  19.843  0.00  0.00    +0.000 A 
ATOM     15  C   UNL     1       1.517   9.317  18.501  0.00  0.00    +0.000 A 
ATOM     16  C   UNL     1       1.957   8.070  18.046  0.00  0.00    +0.000 A 
ATOM     17  C   UNL     1       2.071   6.962  18.909  0.00  0.00    +0.000 A 
ATOM     18  C   UNL     1       1.713   7.155  20.258  0.00  0.00    +0.000 A 
ATOM     19  C   UNL     1       1.255   8.392  20.728  0.00  0.00    +0.000 A 
BRANCH  14  21
ATOM     20  O   UNL     1      -0.020  11.447  19.564  0.00  0.00    +0.000 OA
ATOM     21  N   UNL     1       0.690  10.773  20.324  0.00  0.00    +0.000 N 
ATOM     22  O   UNL     1       1.028  11.124  21.464  0.00  0.00    +0.000 OA
ENDBRANCH  14  21
ENDBRANCH   1  17
TORSDOF 3
ENDMDL
MODEL 4
REMARK VINA RESULT:      -7.6      3.029      4.093
REMARK  Name = 
REMARK  3 active torsions:
REMARK  status: ('A' for Active; 'I' for Inactive)
REMARK    1  A    between atoms: N_2  and  C_4
REMARK    2  A    between atoms: C_7  and  C_8
REMARK    3  A    between atoms: C_12  and  N_13
REMARK                            x       y       z     vdW  Elec       q    Type
REMARK                         _______ _______ _______ _____ _____    ______ ____
ROOT
ATOM      1  C   UNL     1       2.123   7.510  19.061  0.00  0.00    +0.000 A 
ATOM      2  C   UNL     1       2.087   8.186  17.834  0.00  0.00    +0.000 A 
ATOM      3  C   UNL     1       1.653   9.505  17.755  0.00  0.00    +0.000 A 
ATOM      4  C   UNL     1       1.238  10.175  18.909  0.00  0.00    +0.000 A 
ATOM      5  C   UNL     1       1.243   9.554  20.164  0.00  0.00    +0.000 A 
ATOM      6  C   UNL     1       1.688   8.219  20.201  0.00  0.00    +0.000 A 
ENDROOT
BRANCH   5   7
ATOM      7  N   UNL     1       0.838  10.207  21.309  0.00  0.00    +0.000 N 
ATOM      8  C   UNL     1       0.306  11.580  21.293  0.00  0.00    +0.000 C 
ATOM      9  C   UNL     1      -1.105  11.619  21.932  0.00  0.00    +0.000 C 
ATOM     10  N   UNL     1      -1.187  10.990  23.265  0.00  0.00    +0.000 NA
ATOM     11  C   UNL     1      -0.650   9.615  23.191  0.00  0.00    +0.000 C 
ATOM     12  C   UNL     1       0.787   9.564  22.631  0.00  0.00    +0.000 C 
ATOM     13  H   UNL     1      -2.164  10.948  23.551  0.00  0.00    +0.000 HD
ENDBRANCH   5   7
BRANCH   1  17
ATOM     14  C   UNL     1       3.600   3.472  19.355  0.00  0.00    +0.000 A 
ATOM     15  C   UNL     1       3.932   4.257  18.249  0.00  0.00    +0.000 A 
ATOM     16  C   UNL     1       3.448   5.567  18.166  0.00  0.00    +0.000 A 
ATOM     17  C   UNL     1       2.618   6.116  19.163  0.00  0.00    +0.000 A 
ATOM     18  C   UNL     1       2.296   5.293  20.262  0.00  0.00    +0.000 A 
ATOM     19  C   UNL     1       2.786   3.986  20.369  0.00  0.00    +0.000 A 
BRANCH  14  21
ATOM     20  O   UNL     1       4.937   1.856  20.347  0.00  0.00    +0.000 OA
ATOM     21  N   UNL     1       4.114   2.102  19.454  0.00  0.00    +0.000 N 
ATOM     22  O   UNL     1       3.695   1.269  18.636  0.00  0.00    +0.000 OA
ENDBRANCH  14  21
ENDBRANCH   1  17
TORSDOF 3
ENDMDL
MODEL 5
REMARK VINA RESULT:      -7.6      3.034      4.070
REMARK  Name = 
REMARK  3 active torsions:
REMARK  status: ('A' for Active; 'I' for Inactive)
REMARK    1  A    between atoms: N_2  and  C_4
REMARK    2  A    between atoms: C_7  and  C_8
REMARK    3  A    between atoms: C_12  and  N_13
REMARK                            x       y       z     vdW  Elec       q    Type
REMARK                         _______ _______ _______ _____ _____    ______ ____
ROOT
ATOM      1  C   UNL     1       2.177   7.467  19.074  0.00  0.00    +0.000 A 
ATOM      2  C   UNL     1       2.104   8.129  17.841  0.00  0.00    +0.000 A 
ATOM      3  C   UNL     1       1.637   9.436  17.757  0.00  0.00    +0.000 A 
ATOM      4  C   UNL     1       1.227  10.109  18.911  0.00  0.00    +0.000 A 
ATOM      5  C   UNL     1       1.269   9.501  20.172  0.00  0.00    +0.000 A 
ATOM      6  C   UNL     1       1.746   8.178  20.215  0.00  0.00    +0.000 A 
ENDROOT
BRANCH   5   7
ATOM      7  N   UNL     1       0.868  10.157  21.317  0.00  0.00    +0.000 N 
ATOM      8  C   UNL     1       0.354  11.538  21.303  0.00  0.00    +0.000 C 
ATOM      9  C   UNL     1      -1.058  11.593  21.936  0.00  0.00    +0.000 C 
ATOM     10  N   UNL     1      -1.154  10.962  23.268  0.00  0.00    +0.000 NA
ATOM     11  C   UNL     1      -0.635   9.581  23.192  0.00  0.00    +0.000 C 
ATOM     12  C   UNL     1       0.803   9.512  22.637  0.00  0.00    +0.000 C 
ATOM     13  H   UNL     1      -2.132  10.934  23.550  0.00  0.00    +0.000 HD
ENDBRANCH   5   7
BRANCH   1  17
ATOM     14  C   UNL     1       3.674   3.438  19.389  0.00  0.00    +0.000 A 
ATOM     15  C   UNL     1       2.783   3.928  20.346  0.00  0.00    +0.000 A 
ATOM     16  C   UNL     1       2.302   5.236  20.232  0.00  0.00    +0.000 A 
ATOM     17  C   UNL     1       2.706   6.086  19.183  0.00  0.00    +0.000 A 
ATOM     18  C   UNL     1       3.613   5.562  18.239  0.00  0.00    +0.000 A 
ATOM     19  C   UNL     1       4.090   4.249  18.329  0.00  0.00    +0.000 A 
BRANCH  14  21
ATOM     20  O   UNL     1       3.744   1.228  18.687  0.00  0.00    +0.000 OA
ATOM     21  N   UNL     1       4.171   2.063  19.497  0.00  0.00    +0.000 N 
ATOM     22  O   UNL     1       4.992   1.816  20.393  0.00  0.00    +0.000 OA
ENDBRANCH  14  21
ENDBRANCH   1  17
TORSDOF 3
ENDMDL
MODEL 6
REMARK VINA RESULT:      -7.5      2.982      4.206
REMARK  Name = 
REMARK  3 active torsions:
REMARK  status: ('A' for Active; 'I' for Inactive)
REMARK    1  A    between atoms: N_2  and  C_4
REMARK    2  A    between atoms: C_7  and  C_8
REMARK    3  A    between atoms: C_12  and  N_13
REMARK                            x       y       z     vdW  Elec       q    Type
REMARK                         _______ _______ _______ _____ _____    ______ ____
ROOT
ATOM      1  C   UNL     1       2.216   7.480  18.941  0.00  0.00    +0.000 A 
ATOM      2  C   UNL     1       2.624   8.325  17.899  0.00  0.00    +0.000 A 
ATOM      3  C   UNL     1       2.148   9.627  17.805  0.00  0.00    +0.000 A 
ATOM      4  C   UNL     1       1.242  10.112  18.753  0.00  0.00    +0.000 A 
ATOM      5  C   UNL     1       0.790   9.317  19.813  0.00  0.00    +0.000 A 
ATOM      6  C   UNL     1       1.295   8.005  19.873  0.00  0.00    +0.000 A 
ENDROOT
BRANCH   5   7
ATOM      7  N   UNL     1      -0.102   9.786  20.755  0.00  0.00    +0.000 N 
ATOM      8  C   UNL     1      -0.473   9.011  21.952  0.00  0.00    +0.000 C 
ATOM      9  C   UNL     1      -0.177   9.825  23.235  0.00  0.00    +0.000 C 
ATOM     10  N   UNL     1      -0.747  11.187  23.238  0.00  0.00    +0.000 NA
ATOM     11  C   UNL     1      -0.315  11.899  22.017  0.00  0.00    +0.000 C 
ATOM     12  C   UNL     1      -0.674  11.140  20.723  0.00  0.00    +0.000 C 
ATOM     13  H   UNL     1      -0.401  11.688  24.054  0.00  0.00    +0.000 HD
ENDBRANCH   5   7
BRANCH   1  17
ATOM     14  C   UNL     1       3.711   3.457  19.329  0.00  0.00    +0.000 A 
ATOM     15  C   UNL     1       2.883   3.992  20.318  0.00  0.00    +0.000 A 
ATOM     16  C   UNL     1       2.402   5.298  20.179  0.00  0.00    +0.000 A 
ATOM     17  C   UNL     1       2.745   6.101  19.074  0.00  0.00    +0.000 A 
ATOM     18  C   UNL     1       3.589   5.533  18.099  0.00  0.00    +0.000 A 
ATOM     19  C   UNL     1       4.066   4.222  18.214  0.00  0.00    +0.000 A 
BRANCH  14  21
ATOM     20  O   UNL     1       4.997   1.843  20.389  0.00  0.00    +0.000 OA
ATOM     21  N   UNL     1       4.209   2.084  19.463  0.00  0.00    +0.000 N 
ATOM     22  O   UNL     1       3.810   1.244  18.643  0.00  0.00    +0.000 OA
ENDBRANCH  14  21
ENDBRANCH   1  17
TORSDOF 3
ENDMDL
MODEL 7
REMARK VINA RESULT:      -7.5      3.776      7.453
REMARK  Name = 
REMARK  3 active torsions:
REMARK  status: ('A' for Active; 'I' for Inactive)
REMARK    1  A    between atoms: N_2  and  C_4
REMARK    2  A    between atoms: C_7  and  C_8
REMARK    3  A    between atoms: C_12  and  N_13
REMARK                            x       y       z     vdW  Elec       q    Type
REMARK                         _______ _______ _______ _____ _____    ______ ____
ROOT
ATOM      1  C   UNL     1       2.596   5.680  18.613  0.00  0.00    +0.000 A 
ATOM      2  C   UNL     1       1.875   4.505  18.869  0.00  0.00    +0.000 A 
ATOM      3  C   UNL     1       2.370   3.264  18.486  0.00  0.00    +0.000 A 
ATOM      4  C   UNL     1       3.601   3.173  17.829  0.00  0.00    +0.000 A 
ATOM      5  C   UNL     1       4.365   4.309  17.537  0.00  0.00    +0.000 A 
ATOM      6  C   UNL     1       3.830   5.546  17.940  0.00  0.00    +0.000 A 
ENDROOT
BRANCH   5   7
ATOM      7  N   UNL     1       5.582   4.231  16.892  0.00  0.00    +0.000 N 
ATOM      8  C   UNL     1       5.725   3.679  15.533  0.00  0.00    +0.000 C 
ATOM      9  C   UNL     1       6.387   4.721  14.596  0.00  0.00    +0.000 C 
ATOM     10  N   UNL     1       7.644   5.294  15.115  0.00  0.00    +0.000 NA
ATOM     11  C   UNL     1       7.411   5.837  16.469  0.00  0.00    +0.000 C 
ATOM     12  C   UNL     1       6.825   4.791  17.441  0.00  0.00    +0.000 C 
ATOM     13  H   UNL     1       7.939   6.051  14.501  0.00  0.00    +0.000 HD
ENDBRANCH   5   7
BRANCH   1  17
ATOM     14  C   UNL     1       1.174   9.537  19.907  0.00  0.00    +0.000 A 
ATOM     15  C   UNL     1       1.273   8.487  20.822  0.00  0.00    +0.000 A 
ATOM     16  C   UNL     1       1.738   7.241  20.391  0.00  0.00    +0.000 A 
ATOM     17  C   UNL     1       2.096   7.007  19.048  0.00  0.00    +0.000 A 
ATOM     18  C   UNL     1       1.975   8.086  18.149  0.00  0.00    +0.000 A 
ATOM     19  C   UNL     1       1.528   9.344  18.569  0.00  0.00    +0.000 A 
BRANCH  14  21
ATOM     20  O   UNL     1       1.094  11.262  21.456  0.00  0.00    +0.000 OA
ATOM     21  N   UNL     1       0.698  10.849  20.357  0.00  0.00    +0.000 N 
ATOM     22  O   UNL     1      -0.073  11.469  19.610  0.00  0.00    +0.000 OA
ENDBRANCH  14  21
ENDBRANCH   1  17
TORSDOF 3
ENDMDL
MODEL 8
REMARK VINA RESULT:      -7.5      3.003      4.142
REMARK  Name = 
REMARK  3 active torsions:
REMARK  status: ('A' for Active; 'I' for Inactive)
REMARK    1  A    between atoms: N_2  and  C_4
REMARK    2  A    between atoms: C_7  and  C_8
REMARK    3  A    between atoms: C_12  and  N_13
REMARK                            x       y       z     vdW  Elec       q    Type
REMARK                         _______ _______ _______ _____ _____    ______ ____
ROOT
ATOM      1  C   UNL     1       2.203   7.450  18.966  0.00  0.00    +0.000 A 
ATOM      2  C   UNL     1       2.627   8.282  17.920  0.00  0.00    +0.000 A 
ATOM      3  C   UNL     1       2.168   9.590  17.814  0.00  0.00    +0.000 A 
ATOM      4  C   UNL     1       1.264  10.093  18.754  0.00  0.00    +0.000 A 
ATOM      5  C   UNL     1       0.796   9.311  19.818  0.00  0.00    +0.000 A 
ATOM      6  C   UNL     1       1.284   7.994  19.889  0.00  0.00    +0.000 A 
ENDROOT
BRANCH   5   7
ATOM      7  N   UNL     1      -0.094   9.798  20.752  0.00  0.00    +0.000 N 
ATOM      8  C   UNL     1      -0.484   9.034  21.950  0.00  0.00    +0.000 C 
ATOM      9  C   UNL     1      -0.183   9.851  23.232  0.00  0.00    +0.000 C 
ATOM     10  N   UNL     1      -0.733  11.221  23.224  0.00  0.00    +0.000 NA
ATOM     11  C   UNL     1      -0.283  11.921  22.003  0.00  0.00    +0.000 C 
ATOM     12  C   UNL     1      -0.645  11.161  20.710  0.00  0.00    +0.000 C 
ATOM     13  H   UNL     1      -0.384  11.720  24.040  0.00  0.00    +0.000 HD
ENDBRANCH   5   7
BRANCH   1  17
ATOM     14  C   UNL     1       3.725   3.440  19.385  0.00  0.00    +0.000 A 
ATOM     15  C   UNL     1       4.136   4.234  18.313  0.00  0.00    +0.000 A 
ATOM     16  C   UNL     1       3.637   5.534  18.189  0.00  0.00    +0.000 A 
ATOM     17  C   UNL     1       2.713   6.065  19.110  0.00  0.00    +0.000 A 
ATOM     18  C   UNL     1       2.313   5.234  20.176  0.00  0.00    +0.000 A 
ATOM     19  C   UNL     1       2.816   3.936  20.324  0.00  0.00    +0.000 A 
BRANCH  14  21
ATOM     20  O   UNL     1       3.867   1.222  18.721  0.00  0.00    +0.000 OA
ATOM     21  N   UNL     1       4.254   2.080  19.527  0.00  0.00    +0.000 N 
ATOM     22  O   UNL     1       5.060   1.868  20.445  0.00  0.00    +0.000 OA
ENDBRANCH  14  21
ENDBRANCH   1  17
TORSDOF 3
ENDMDL
MODEL 9
REMARK VINA RESULT:      -7.4      5.042      8.220
REMARK  Name = 
REMARK  3 active torsions:
REMARK  status: ('A' for Active; 'I' for Inactive)
REMARK    1  A    between atoms: N_2  and  C_4
REMARK    2  A    between atoms: C_7  and  C_8
REMARK    3  A    between atoms: C_12  and  N_13
REMARK                            x       y       z     vdW  Elec       q    Type
REMARK                         _______ _______ _______ _____ _____    ______ ____
ROOT
ATOM      1  C   UNL     1       1.975   7.888  19.460  0.00  0.00    +0.000 A 
ATOM      2  C   UNL     1       2.665   8.325  18.321  0.00  0.00    +0.000 A 
ATOM      3  C   UNL     1       3.346   7.426  17.508  0.00  0.00    +0.000 A 
ATOM      4  C   UNL     1       3.356   6.065  17.824  0.00  0.00    +0.000 A 
ATOM      5  C   UNL     1       2.693   5.566  18.952  0.00  0.00    +0.000 A 
ATOM      6  C   UNL     1       2.017   6.507  19.749  0.00  0.00    +0.000 A 
ENDROOT
BRANCH   5   7
ATOM      7  N   UNL     1       2.694   4.224  19.272  0.00  0.00    +0.000 N 
ATOM      8  C   UNL     1       1.505   3.533  19.798  0.00  0.00    +0.000 C 
ATOM      9  C   UNL     1       1.138   2.328  18.895  0.00  0.00    +0.000 C 
ATOM     10  N   UNL     1       2.260   1.407  18.624  0.00  0.00    +0.000 NA
ATOM     11  C   UNL     1       3.403   2.175  18.087  0.00  0.00    +0.000 C 
ATOM     12  C   UNL     1       3.834   3.333  19.012  0.00  0.00    +0.000 C 
ATOM     13  H   UNL     1       1.965   0.723  17.930  0.00  0.00    +0.000 HD
ENDBRANCH   5   7
BRANCH   1  17
ATOM     14  C   UNL     1      -0.201  10.630  21.975  0.00  0.00    +0.000 A 
ATOM     15  C   UNL     1       0.206   9.393  22.480  0.00  0.00    +0.000 A 
ATOM     16  C   UNL     1       0.914   8.513  21.655  0.00  0.00    +0.000 A 
ATOM     17  C   UNL     1       1.216   8.832  20.316  0.00  0.00    +0.000 A 
ATOM     18  C   UNL     1       0.783  10.085  19.836  0.00  0.00    +0.000 A 
ATOM     19  C   UNL     1       0.088  10.984  20.654  0.00  0.00    +0.000 A 
BRANCH  14  21
ATOM     20  O   UNL     1      -1.974  11.156  23.374  0.00  0.00    +0.000 OA
ATOM     21  N   UNL     1      -0.933  11.561  22.840  0.00  0.00    +0.000 N 
ATOM     22  O   UNL     1      -0.465  12.700  22.985  0.00  0.00    +0.000 OA
ENDBRANCH  14  21
ENDBRANCH   1  17
TORSDOF 3
ENDMDL
