MODEL 1
REMARK VINA RESULT:      -7.3      0.000      0.000
REMARK  Name = 
REMARK  9 active torsions:
REMARK  status: ('A' for Active; 'I' for Inactive)
REMARK    1  A    between atoms: C_1  and  O_2
REMARK    2  A    between atoms: O_2  and  C_3
REMARK    3  A    between atoms: C_8  and  C_9
REMARK    4  A    between atoms: C_19  and  C_20
REMARK    5  A    between atoms: C_20  and  C_21
REMARK    6  A    between atoms: C_21  and  C_22
REMARK    7  A    between atoms: C_21  and  C_23
REMARK    8  A    between atoms: N_25  and  C_26
REMARK    9  A    between atoms: C_26  and  C_27
REMARK                            x       y       z     vdW  Elec       q    Type
REMARK                         _______ _______ _______ _____ _____    ______ ____
ROOT
ATOM      1  C   UNL     1       2.583   4.125  18.649  0.00  0.00    +0.000 A 
ATOM      2  C   UNL     1       1.902   3.312  19.570  0.00  0.00    +0.000 A 
ATOM      3  C   UNL     1       1.194   3.851  20.629  0.00  0.00    +0.000 A 
ATOM      4  C   UNL     1       1.146   5.230  20.803  0.00  0.00    +0.000 A 
ATOM      5  C   UNL     1       1.776   6.093  19.886  0.00  0.00    +0.000 A 
ATOM      6  C   UNL     1       1.874   7.509  19.792  0.00  0.00    +0.000 A 
ATOM      7  C   UNL     1       2.801   7.756  18.798  0.00  0.00    +0.000 A 
ATOM      8  N   UNL     1       3.084   6.589  18.139  0.00  0.00    +0.000 N 
ATOM      9  C   UNL     1       2.523   5.527  18.831  0.00  0.00    +0.000 A 
ENDROOT
BRANCH   6  10
ATOM     10  C   UNL     1       1.329   8.584  20.600  0.00  0.00    +0.000 C 
ATOM     11  O   UNL     1       1.712   8.683  21.777  0.00  0.00    +0.000 OA
ATOM     12  N   UNL     1       0.453   9.545  20.056  0.00  0.00    +0.000 N 
ATOM     13  C   UNL     1       0.227  10.714  20.912  0.00  0.00    +0.000 C 
ATOM     14  C   UNL     1       1.157  11.816  20.424  0.00  0.00    +0.000 C 
ATOM     15  C   UNL     1       1.173  13.105  21.228  0.00  0.00    +0.000 C 
ATOM     16  C   UNL     1       1.229  14.211  20.169  0.00  0.00    +0.000 C 
ATOM     17  C   UNL     1       1.389  13.487  18.833  0.00  0.00    +0.000 C 
ATOM     18  N   UNL     1       0.668  12.257  19.108  0.00  0.00    +0.000 NA
ATOM     19  C   UNL     1       0.763  11.190  18.108  0.00  0.00    +0.000 C 
ATOM     20  C   UNL     1       0.182   9.795  18.587  0.00  0.00    +0.000 C 
BRANCH  20  21
ATOM     21  C   UNL     1      -1.344   9.693  18.321  0.00  0.00    +0.000 C 
BRANCH  21  22
ATOM     22  C   UNL     1      -1.948  10.630  17.245  0.00  0.00    +0.000 C 
ATOM     23  C   UNL     1      -2.569   9.914  16.047  0.00  0.00    +0.000 C 
ATOM     24  C   UNL     1      -3.003  11.532  17.897  0.00  0.00    +0.000 C 
ENDBRANCH  21  22
ENDBRANCH  20  21
ENDBRANCH   6  10
BRANCH   1  26
ATOM     25  C   UNL     1       3.723   2.250  17.798  0.00  0.00    +0.000 C 
ATOM     26  O   UNL     1       3.324   3.607  17.618  0.00  0.00    +0.000 OA
ENDBRANCH   1  26
BRANCH   8  27
ATOM     27  C   UNL     1       3.995   6.549  17.011  0.00  0.00    +0.000 C 
BRANCH  27  28
ATOM     28  C   UNL     1       5.505   6.813  17.252  0.00  0.00    +0.000 C 
ATOM     29  C   UNL     1       6.101   6.137  18.487  0.00  0.00    +0.000 C 
ATOM     30  C   UNL     1       6.469   4.673  18.292  0.00  0.00    +0.000 C 
ATOM     31  C   UNL     1       7.307   4.413  17.045  0.00  0.00    +0.000 C 
ATOM     32  C   UNL     1       6.847   5.153  15.794  0.00  0.00    +0.000 C 
ATOM     33  C   UNL     1       6.428   6.598  16.040  0.00  0.00    +0.000 C 
ENDBRANCH  27  28
ENDBRANCH   8  27
TORSDOF 6
ENDMDL
MODEL 2
REMARK VINA RESULT:      -6.9      1.620      3.629
REMARK  Name = 
REMARK  9 active torsions:
REMARK  status: ('A' for Active; 'I' for Inactive)
REMARK    1  A    between atoms: C_1  and  O_2
REMARK    2  A    between atoms: O_2  and  C_3
REMARK    3  A    between atoms: C_8  and  C_9
REMARK    4  A    between atoms: C_19  and  C_20
REMARK    5  A    between atoms: C_20  and  C_21
REMARK    6  A    between atoms: C_21  and  C_22
REMARK    7  A    between atoms: C_21  and  C_23
REMARK    8  A    between atoms: N_25  and  C_26
REMARK    9  A    between atoms: C_26  and  C_27
REMARK                            x       y       z     vdW  Elec       q    Type
REMARK                         _______ _______ _______ _____ _____    ______ ____
ROOT
ATOM      1  C   UNL     1       3.248   6.681  18.438  0.00  0.00    +0.000 A 
ATOM      2  C   UNL     1       3.433   7.589  17.382  0.00  0.00    +0.000 A 
ATOM      3  C   UNL     1       2.803   8.820  17.364  0.00  0.00    +0.000 A 
ATOM      4  C   UNL     1       1.959   9.184  18.408  0.00  0.00    +0.000 A 
ATOM      5  C   UNL     1       1.770   8.330  19.511  0.00  0.00    +0.000 A 
ATOM      6  C   UNL     1       1.008   8.440  20.708  0.00  0.00    +0.000 A 
ATOM      7  C   UNL     1       1.054   7.192  21.298  0.00  0.00    +0.000 A 
ATOM      8  N   UNL     1       1.981   6.417  20.654  0.00  0.00    +0.000 N 
ATOM      9  C   UNL     1       2.392   7.064  19.498  0.00  0.00    +0.000 A 
ENDROOT
BRANCH   6  10
ATOM     10  C   UNL     1       0.166   9.496  21.239  0.00  0.00    +0.000 C 
ATOM     11  O   UNL     1       0.263   9.771  22.445  0.00  0.00    +0.000 OA
ATOM     12  N   UNL     1      -0.682  10.252  20.404  0.00  0.00    +0.000 N 
ATOM     13  C   UNL     1      -1.239  11.454  21.034  0.00  0.00    +0.000 C 
ATOM     14  C   UNL     1      -0.370  12.629  20.606  0.00  0.00    +0.000 C 
ATOM     15  C   UNL     1      -0.696  13.981  21.218  0.00  0.00    +0.000 C 
ATOM     16  C   UNL     1      -0.547  14.969  20.057  0.00  0.00    +0.000 C 
ATOM     17  C   UNL     1      -0.005  14.146  18.889  0.00  0.00    +0.000 C 
ATOM     18  N   UNL     1      -0.608  12.854  19.172  0.00  0.00    +0.000 NA
ATOM     19  C   UNL     1      -0.160  11.718  18.362  0.00  0.00    +0.000 C 
ATOM     20  C   UNL     1      -0.651  10.307  18.891  0.00  0.00    +0.000 C 
BRANCH  20  21
ATOM     21  C   UNL     1      -2.055   9.949  18.335  0.00  0.00    +0.000 C 
BRANCH  21  22
ATOM     22  C   UNL     1      -2.557  10.733  17.096  0.00  0.00    +0.000 C 
ATOM     23  C   UNL     1      -2.751   9.888  15.839  0.00  0.00    +0.000 C 
ATOM     24  C   UNL     1      -3.876  11.433  17.444  0.00  0.00    +0.000 C 
ENDBRANCH  21  22
ENDBRANCH  20  21
ENDBRANCH   6  10
BRANCH   1  26
ATOM     25  C   UNL     1       4.671   5.167  17.332  0.00  0.00    +0.000 C 
ATOM     26  O   UNL     1       3.832   5.441  18.452  0.00  0.00    +0.000 OA
ENDBRANCH   1  26
BRANCH   8  27
ATOM     27  C   UNL     1       2.280   5.065  21.084  0.00  0.00    +0.000 C 
BRANCH  27  28
ATOM     28  C   UNL     1       1.256   3.936  20.791  0.00  0.00    +0.000 C 
ATOM     29  C   UNL     1       0.551   4.025  19.437  0.00  0.00    +0.000 C 
ATOM     30  C   UNL     1       1.359   3.486  18.266  0.00  0.00    +0.000 C 
ATOM     31  C   UNL     1       1.942   2.098  18.511  0.00  0.00    +0.000 C 
ATOM     32  C   UNL     1       2.557   1.892  19.891  0.00  0.00    +0.000 C 
ATOM     33  C   UNL     1       1.750   2.499  21.032  0.00  0.00    +0.000 C 
ENDBRANCH  27  28
ENDBRANCH   8  27
TORSDOF 6
ENDMDL
MODEL 3
REMARK VINA RESULT:      -6.8      0.691      1.232
REMARK  Name = 
REMARK  9 active torsions:
REMARK  status: ('A' for Active; 'I' for Inactive)
REMARK    1  A    between atoms: C_1  and  O_2
REMARK    2  A    between atoms: O_2  and  C_3
REMARK    3  A    between atoms: C_8  and  C_9
REMARK    4  A    between atoms: C_19  and  C_20
REMARK    5  A    between atoms: C_20  and  C_21
REMARK    6  A    between atoms: C_21  and  C_22
REMARK    7  A    between atoms: C_21  and  C_23
REMARK    8  A    between atoms: N_25  and  C_26
REMARK    9  A    between atoms: C_26  and  C_27
REMARK                            x       y       z     vdW  Elec       q    Type
REMARK                         _______ _______ _______ _____ _____    ______ ____
ROOT
ATOM      1  C   UNL     1       2.581   3.825  18.699  0.00  0.00    +0.000 A 
ATOM      2  C   UNL     1       1.819   3.088  19.621  0.00  0.00    +0.000 A 
ATOM      3  C   UNL     1       1.122   3.704  20.644  0.00  0.00    +0.000 A 
ATOM      4  C   UNL     1       1.167   5.087  20.781  0.00  0.00    +0.000 A 
ATOM      5  C   UNL     1       1.881   5.879  19.861  0.00  0.00    +0.000 A 
ATOM      6  C   UNL     1       2.081   7.282  19.733  0.00  0.00    +0.000 A 
ATOM      7  C   UNL     1       3.049   7.435  18.761  0.00  0.00    +0.000 A 
ATOM      8  N   UNL     1       3.268   6.234  18.141  0.00  0.00    +0.000 N 
ATOM      9  C   UNL     1       2.615   5.233  18.843  0.00  0.00    +0.000 A 
ENDROOT
BRANCH   6  10
ATOM     10  C   UNL     1       1.591   8.414  20.497  0.00  0.00    +0.000 C 
ATOM     11  O   UNL     1       1.986   8.545  21.667  0.00  0.00    +0.000 OA
ATOM     12  N   UNL     1       0.756   9.389  19.916  0.00  0.00    +0.000 N 
ATOM     13  C   UNL     1       0.588  10.603  20.722  0.00  0.00    +0.000 C 
ATOM     14  C   UNL     1       1.565  11.640  20.182  0.00  0.00    +0.000 C 
ATOM     15  C   UNL     1       1.645  12.960  20.929  0.00  0.00    +0.000 C 
ATOM     16  C   UNL     1       1.743  14.016  19.823  0.00  0.00    +0.000 C 
ATOM     17  C   UNL     1       1.861  13.229  18.519  0.00  0.00    +0.000 C 
ATOM     18  N   UNL     1       1.086  12.045  18.851  0.00  0.00    +0.000 NA
ATOM     19  C   UNL     1       1.126  10.933  17.898  0.00  0.00    +0.000 C 
ATOM     20  C   UNL     1       0.486   9.588  18.439  0.00  0.00    +0.000 C 
BRANCH  20  21
ATOM     21  C   UNL     1      -1.045   9.545  18.186  0.00  0.00    +0.000 C 
BRANCH  21  22
ATOM     22  C   UNL     1      -1.678  10.730  17.413  0.00  0.00    +0.000 C 
ATOM     23  C   UNL     1      -2.542  10.328  16.220  0.00  0.00    +0.000 C 
ATOM     24  C   UNL     1      -2.514  11.573  18.382  0.00  0.00    +0.000 C 
ENDBRANCH  21  22
ENDBRANCH  20  21
ENDBRANCH   6  10
BRANCH   1  26
ATOM     25  C   UNL     1       3.347   1.804  17.768  0.00  0.00    +0.000 C 
ATOM     26  O   UNL     1       3.311   3.229  17.704  0.00  0.00    +0.000 OA
ENDBRANCH   1  26
BRANCH   8  27
ATOM     27  C   UNL     1       4.204   6.099  17.042  0.00  0.00    +0.000 C 
BRANCH  27  28
ATOM     28  C   UNL     1       5.447   5.186  17.217  0.00  0.00    +0.000 C 
ATOM     29  C   UNL     1       6.716   5.664  16.512  0.00  0.00    +0.000 C 
ATOM     30  C   UNL     1       7.495   6.733  17.264  0.00  0.00    +0.000 C 
ATOM     31  C   UNL     1       7.756   6.386  18.726  0.00  0.00    +0.000 C 
ATOM     32  C   UNL     1       6.567   5.786  19.469  0.00  0.00    +0.000 C 
ATOM     33  C   UNL     1       5.776   4.765  18.660  0.00  0.00    +0.000 C 
ENDBRANCH  27  28
ENDBRANCH   8  27
TORSDOF 6
ENDMDL
MODEL 4
REMARK VINA RESULT:      -6.7      1.847      3.993
REMARK  Name = 
REMARK  9 active torsions:
REMARK  status: ('A' for Active; 'I' for Inactive)
REMARK    1  A    between atoms: C_1  and  O_2
REMARK    2  A    between atoms: O_2  and  C_3
REMARK    3  A    between atoms: C_8  and  C_9
REMARK    4  A    between atoms: C_19  and  C_20
REMARK    5  A    between atoms: C_20  and  C_21
REMARK    6  A    between atoms: C_21  and  C_22
REMARK    7  A    between atoms: C_21  and  C_23
REMARK    8  A    between atoms: N_25  and  C_26
REMARK    9  A    between atoms: C_26  and  C_27
REMARK                            x       y       z     vdW  Elec       q    Type
REMARK                         _______ _______ _______ _____ _____    ______ ____
ROOT
ATOM      1  C   UNL     1       2.647   7.645  18.349  0.00  0.00    +0.000 A 
ATOM      2  C   UNL     1       2.650   8.701  17.423  0.00  0.00    +0.000 A 
ATOM      3  C   UNL     1       2.001   9.896  17.681  0.00  0.00    +0.000 A 
ATOM      4  C   UNL     1       1.323  10.072  18.882  0.00  0.00    +0.000 A 
ATOM      5  C   UNL     1       1.323   9.062  19.864  0.00  0.00    +0.000 A 
ATOM      6  C   UNL     1       0.753   8.970  21.164  0.00  0.00    +0.000 A 
ATOM      7  C   UNL     1       0.913   7.653  21.551  0.00  0.00    +0.000 A 
ATOM      8  N   UNL     1       1.744   7.017  20.667  0.00  0.00    +0.000 N 
ATOM      9  C   UNL     1       1.959   7.838  19.571  0.00  0.00    +0.000 A 
ENDROOT
BRANCH   6  10
ATOM     10  C   UNL     1      -0.016   9.904  21.965  0.00  0.00    +0.000 C 
ATOM     11  O   UNL     1       0.134   9.880  23.197  0.00  0.00    +0.000 OA
ATOM     12  N   UNL     1      -0.850  10.872  21.370  0.00  0.00    +0.000 N 
ATOM     13  C   UNL     1      -1.324  11.912  22.289  0.00  0.00    +0.000 C 
ATOM     14  C   UNL     1      -0.411  13.118  22.113  0.00  0.00    +0.000 C 
ATOM     15  C   UNL     1      -0.646  14.298  23.040  0.00  0.00    +0.000 C 
ATOM     16  C   UNL     1      -0.485  15.526  22.140  0.00  0.00    +0.000 C 
ATOM     17  C   UNL     1      -0.024  14.982  20.788  0.00  0.00    +0.000 C 
ATOM     18  N   UNL     1      -0.683  13.687  20.784  0.00  0.00    +0.000 NA
ATOM     19  C   UNL     1      -0.320  12.757  19.710  0.00  0.00    +0.000 C 
ATOM     20  C   UNL     1      -0.865  11.283  19.913  0.00  0.00    +0.000 C 
BRANCH  20  21
ATOM     21  C   UNL     1      -2.303  11.127  19.349  0.00  0.00    +0.000 C 
BRANCH  21  22
ATOM     22  C   UNL     1      -2.471  11.111  17.808  0.00  0.00    +0.000 C 
ATOM     23  C   UNL     1      -1.874   9.891  17.111  0.00  0.00    +0.000 C 
ATOM     24  C   UNL     1      -3.962  11.212  17.464  0.00  0.00    +0.000 C 
ENDBRANCH  21  22
ENDBRANCH  20  21
ENDBRANCH   6  10
BRANCH   1  26
ATOM     25  C   UNL     1       4.603   6.536  17.654  0.00  0.00    +0.000 C 
ATOM     26  O   UNL     1       3.249   6.441  18.094  0.00  0.00    +0.000 OA
ENDBRANCH   1  26
BRANCH   8  27
ATOM     27  C   UNL     1       2.131   5.630  20.844  0.00  0.00    +0.000 C 
BRANCH  27  28
ATOM     28  C   UNL     1       1.128   4.512  20.455  0.00  0.00    +0.000 C 
ATOM     29  C   UNL     1       1.046   4.195  18.962  0.00  0.00    +0.000 C 
ATOM     30  C   UNL     1       2.146   3.278  18.447  0.00  0.00    +0.000 C 
ATOM     31  C   UNL     1       2.334   2.017  19.283  0.00  0.00    +0.000 C 
ATOM     32  C   UNL     1       2.304   2.234  20.792  0.00  0.00    +0.000 C 
ATOM     33  C   UNL     1       1.229   3.206  21.263  0.00  0.00    +0.000 C 
ENDBRANCH  27  28
ENDBRANCH   8  27
TORSDOF 6
ENDMDL
MODEL 5
REMARK VINA RESULT:      -6.7      2.139      8.027
REMARK  Name = 
REMARK  9 active torsions:
REMARK  status: ('A' for Active; 'I' for Inactive)
REMARK    1  A    between atoms: C_1  and  O_2
REMARK    2  A    between atoms: O_2  and  C_3
REMARK    3  A    between atoms: C_8  and  C_9
REMARK    4  A    between atoms: C_19  and  C_20
REMARK    5  A    between atoms: C_20  and  C_21
REMARK    6  A    between atoms: C_21  and  C_22
REMARK    7  A    between atoms: C_21  and  C_23
REMARK    8  A    between atoms: N_25  and  C_26
REMARK    9  A    between atoms: C_26  and  C_27
REMARK                            x       y       z     vdW  Elec       q    Type
REMARK                         _______ _______ _______ _____ _____    ______ ____
ROOT
ATOM      1  C   UNL     1      -0.387  10.005  21.584  0.00  0.00    +0.000 A 
ATOM      2  C   UNL     1       0.414   9.498  22.621  0.00  0.00    +0.000 A 
ATOM      3  C   UNL     1       1.581   8.803  22.363  0.00  0.00    +0.000 A 
ATOM      4  C   UNL     1       1.987   8.589  21.050  0.00  0.00    +0.000 A 
ATOM      5  C   UNL     1       1.243   9.110  19.973  0.00  0.00    +0.000 A 
ATOM      6  C   UNL     1       1.420   9.076  18.562  0.00  0.00    +0.000 A 
ATOM      7  C   UNL     1       0.251   9.578  18.025  0.00  0.00    +0.000 A 
ATOM      8  N   UNL     1      -0.512  10.123  19.024  0.00  0.00    +0.000 N 
ATOM      9  C   UNL     1       0.037   9.787  20.252  0.00  0.00    +0.000 A 
ENDROOT
BRANCH   6  10
ATOM     10  C   UNL     1       2.456   8.511  17.718  0.00  0.00    +0.000 C 
ATOM     11  O   UNL     1       3.147   9.287  17.038  0.00  0.00    +0.000 OA
ATOM     12  N   UNL     1       2.737   7.129  17.723  0.00  0.00    +0.000 N 
ATOM     13  C   UNL     1       3.986   6.762  17.046  0.00  0.00    +0.000 C 
ATOM     14  C   UNL     1       5.054   6.614  18.121  0.00  0.00    +0.000 C 
ATOM     15  C   UNL     1       6.469   6.331  17.648  0.00  0.00    +0.000 C 
ATOM     16  C   UNL     1       7.000   5.290  18.639  0.00  0.00    +0.000 C 
ATOM     17  C   UNL     1       5.912   5.150  19.703  0.00  0.00    +0.000 C 
ATOM     18  N   UNL     1       4.725   5.414  18.907  0.00  0.00    +0.000 NA
ATOM     19  C   UNL     1       3.459   5.566  19.628  0.00  0.00    +0.000 C 
ATOM     20  C   UNL     1       2.265   6.111  18.739  0.00  0.00    +0.000 C 
BRANCH  20  21
ATOM     21  C   UNL     1       1.529   4.957  18.007  0.00  0.00    +0.000 C 
BRANCH  21  22
ATOM     22  C   UNL     1       1.866   3.506  18.435  0.00  0.00    +0.000 C 
ATOM     23  C   UNL     1       0.656   2.646  18.792  0.00  0.00    +0.000 C 
ATOM     24  C   UNL     1       2.659   2.823  17.314  0.00  0.00    +0.000 C 
ENDBRANCH  21  22
ENDBRANCH  20  21
ENDBRANCH   6  10
BRANCH   1  26
ATOM     25  C   UNL     1      -1.420  12.003  22.278  0.00  0.00    +0.000 C 
ATOM     26  O   UNL     1      -1.568  10.660  21.820  0.00  0.00    +0.000 OA
ENDBRANCH   1  26
BRANCH   8  27
ATOM     27  C   UNL     1      -1.782  10.768  18.752  0.00  0.00    +0.000 C 
BRANCH  27  28
ATOM     28  C   UNL     1      -2.874   9.986  17.974  0.00  0.00    +0.000 C 
ATOM     29  C   UNL     1      -4.298  10.522  18.127  0.00  0.00    +0.000 C 
ATOM     30  C   UNL     1      -4.627  11.711  17.235  0.00  0.00    +0.000 C 
ATOM     31  C   UNL     1      -4.255  11.500  15.771  0.00  0.00    +0.000 C 
ATOM     32  C   UNL     1      -2.894  10.853  15.539  0.00  0.00    +0.000 C 
ATOM     33  C   UNL     1      -2.575   9.707  16.491  0.00  0.00    +0.000 C 
ENDBRANCH  27  28
ENDBRANCH   8  27
TORSDOF 6
ENDMDL
MODEL 6
REMARK VINA RESULT:      -6.6      4.790      8.126
REMARK  Name = 
REMARK  9 active torsions:
REMARK  status: ('A' for Active; 'I' for Inactive)
REMARK    1  A    between atoms: C_1  and  O_2
REMARK    2  A    between atoms: O_2  and  C_3
REMARK    3  A    between atoms: C_8  and  C_9
REMARK    4  A    between atoms: C_19  and  C_20
REMARK    5  A    between atoms: C_20  and  C_21
REMARK    6  A    between atoms: C_21  and  C_22
REMARK    7  A    between atoms: C_21  and  C_23
REMARK    8  A    between atoms: N_25  and  C_26
REMARK    9  A    between atoms: C_26  and  C_27
REMARK                            x       y       z     vdW  Elec       q    Type
REMARK                         _______ _______ _______ _____ _____    ______ ____
ROOT
ATOM      1  C   UNL     1      -0.037  10.512  20.174  0.00  0.00    +0.000 A 
ATOM      2  C   UNL     1      -0.018   9.382  21.009  0.00  0.00    +0.000 A 
ATOM      3  C   UNL     1      -0.377   9.460  22.343  0.00  0.00    +0.000 A 
ATOM      4  C   UNL     1      -0.767  10.678  22.888  0.00  0.00    +0.000 A 
ATOM      5  C   UNL     1      -0.844  11.834  22.086  0.00  0.00    +0.000 A 
ATOM      6  C   UNL     1      -1.226  13.178  22.351  0.00  0.00    +0.000 A 
ATOM      7  C   UNL     1      -0.889  13.894  21.219  0.00  0.00    +0.000 A 
ATOM      8  N   UNL     1      -0.551  13.026  20.215  0.00  0.00    +0.000 N 
ATOM      9  C   UNL     1      -0.442  11.746  20.737  0.00  0.00    +0.000 A 
ENDROOT
BRANCH   6  10
ATOM     10  C   UNL     1      -1.704  13.842  23.550  0.00  0.00    +0.000 C 
ATOM     11  O   UNL     1      -0.864  14.287  24.348  0.00  0.00    +0.000 OA
ATOM     12  N   UNL     1      -3.080  14.055  23.775  0.00  0.00    +0.000 N 
ATOM     13  C   UNL     1      -3.379  14.982  24.871  0.00  0.00    +0.000 C 
ATOM     14  C   UNL     1      -3.640  16.346  24.247  0.00  0.00    +0.000 C 
ATOM     15  C   UNL     1      -3.877  17.504  25.203  0.00  0.00    +0.000 C 
ATOM     16  C   UNL     1      -5.015  18.301  24.559  0.00  0.00    +0.000 C 
ATOM     17  C   UNL     1      -5.261  17.637  23.205  0.00  0.00    +0.000 C 
ATOM     18  N   UNL     1      -4.914  16.261  23.516  0.00  0.00    +0.000 NA
ATOM     19  C   UNL     1      -4.833  15.323  22.392  0.00  0.00    +0.000 C 
ATOM     20  C   UNL     1      -4.196  13.919  22.760  0.00  0.00    +0.000 C 
BRANCH  20  21
ATOM     21  C   UNL     1      -5.266  12.934  23.302  0.00  0.00    +0.000 C 
BRANCH  21  22
ATOM     22  C   UNL     1      -6.747  13.215  22.941  0.00  0.00    +0.000 C 
ATOM     23  C   UNL     1      -7.416  12.133  22.096  0.00  0.00    +0.000 C 
ATOM     24  C   UNL     1      -7.550  13.417  24.231  0.00  0.00    +0.000 C 
ENDBRANCH  21  22
ENDBRANCH  20  21
ENDBRANCH   6  10
BRANCH   1  26
ATOM     25  C   UNL     1       1.381   9.511  18.584  0.00  0.00    +0.000 C 
ATOM     26  O   UNL     1       0.355  10.463  18.861  0.00  0.00    +0.000 OA
ENDBRANCH   1  26
BRANCH   8  27
ATOM     27  C   UNL     1      -0.193  13.491  18.889  0.00  0.00    +0.000 C 
BRANCH  27  28
ATOM     28  C   UNL     1       1.253  13.990  18.629  0.00  0.00    +0.000 C 
ATOM     29  C   UNL     1       1.457  15.500  18.746  0.00  0.00    +0.000 C 
ATOM     30  C   UNL     1       1.624  16.008  20.171  0.00  0.00    +0.000 C 
ATOM     31  C   UNL     1       2.658  15.233  20.981  0.00  0.00    +0.000 C 
ATOM     32  C   UNL     1       2.597  13.717  20.820  0.00  0.00    +0.000 C 
ATOM     33  C   UNL     1       2.368  13.249  19.388  0.00  0.00    +0.000 C 
ENDBRANCH  27  28
ENDBRANCH   8  27
TORSDOF 6
ENDMDL
MODEL 7
REMARK VINA RESULT:      -6.6      6.304      9.779
REMARK  Name = 
REMARK  9 active torsions:
REMARK  status: ('A' for Active; 'I' for Inactive)
REMARK    1  A    between atoms: C_1  and  O_2
REMARK    2  A    between atoms: O_2  and  C_3
REMARK    3  A    between atoms: C_8  and  C_9
REMARK    4  A    between atoms: C_19  and  C_20
REMARK    5  A    between atoms: C_20  and  C_21
REMARK    6  A    between atoms: C_21  and  C_22
REMARK    7  A    between atoms: C_21  and  C_23
REMARK    8  A    between atoms: N_25  and  C_26
REMARK    9  A    between atoms: C_26  and  C_27
REMARK                            x       y       z     vdW  Elec       q    Type
REMARK                         _______ _______ _______ _____ _____    ______ ____
ROOT
ATOM      1  C   UNL     1      -4.857  11.526  17.805  0.00  0.00    +0.000 A 
ATOM      2  C   UNL     1      -4.476  11.086  16.526  0.00  0.00    +0.000 A 
ATOM      3  C   UNL     1      -3.147  10.982  16.160  0.00  0.00    +0.000 A 
ATOM      4  C   UNL     1      -2.148  11.318  17.067  0.00  0.00    +0.000 A 
ATOM      5  C   UNL     1      -2.471  11.726  18.376  0.00  0.00    +0.000 A 
ATOM      6  C   UNL     1      -1.685  12.098  19.501  0.00  0.00    +0.000 A 
ATOM      7  C   UNL     1      -2.575  12.601  20.430  0.00  0.00    +0.000 A 
ATOM      8  N   UNL     1      -3.856  12.336  20.024  0.00  0.00    +0.000 N 
ATOM      9  C   UNL     1      -3.832  11.860  18.722  0.00  0.00    +0.000 A 
ENDROOT
BRANCH   6  10
ATOM     10  C   UNL     1      -0.251  12.165  19.715  0.00  0.00    +0.000 C 
ATOM     11  O   UNL     1       0.434  11.180  19.398  0.00  0.00    +0.000 OA
ATOM     12  N   UNL     1       0.368  13.338  20.192  0.00  0.00    +0.000 N 
ATOM     13  C   UNL     1       1.831  13.341  20.078  0.00  0.00    +0.000 C 
ATOM     14  C   UNL     1       2.182  14.105  18.809  0.00  0.00    +0.000 C 
ATOM     15  C   UNL     1       3.651  14.156  18.423  0.00  0.00    +0.000 C 
ATOM     16  C   UNL     1       3.866  15.594  17.941  0.00  0.00    +0.000 C 
ATOM     17  C   UNL     1       2.479  16.235  17.941  0.00  0.00    +0.000 C 
ATOM     18  N   UNL     1       1.855  15.520  19.042  0.00  0.00    +0.000 NA
ATOM     19  C   UNL     1       0.417  15.721  19.237  0.00  0.00    +0.000 C 
ATOM     20  C   UNL     1      -0.246  14.719  20.271  0.00  0.00    +0.000 C 
BRANCH  20  21
ATOM     21  C   UNL     1      -0.134  15.249  21.726  0.00  0.00    +0.000 C 
BRANCH  21  22
ATOM     22  C   UNL     1      -1.420  15.250  22.590  0.00  0.00    +0.000 C 
ATOM     23  C   UNL     1      -1.337  14.411  23.863  0.00  0.00    +0.000 C 
ATOM     24  C   UNL     1      -1.777  16.695  22.959  0.00  0.00    +0.000 C 
ENDBRANCH  21  22
ENDBRANCH  20  21
ENDBRANCH   6  10
BRANCH   1  26
ATOM     25  C   UNL     1      -6.883  12.664  17.431  0.00  0.00    +0.000 C 
ATOM     26  O   UNL     1      -6.169  11.675  18.171  0.00  0.00    +0.000 OA
ENDBRANCH   1  26
BRANCH   8  27
ATOM     27  C   UNL     1      -5.005  12.710  20.826  0.00  0.00    +0.000 C 
BRANCH  27  28
ATOM     28  C   UNL     1      -4.805  13.665  22.032  0.00  0.00    +0.000 C 
ATOM     29  C   UNL     1      -5.686  14.915  22.032  0.00  0.00    +0.000 C 
ATOM     30  C   UNL     1      -7.102  14.692  22.544  0.00  0.00    +0.000 C 
ATOM     31  C   UNL     1      -7.162  13.958  23.879  0.00  0.00    +0.000 C 
ATOM     32  C   UNL     1      -6.217  12.767  24.003  0.00  0.00    +0.000 C 
ATOM     33  C   UNL     1      -4.829  13.008  23.423  0.00  0.00    +0.000 C 
ENDBRANCH  27  28
ENDBRANCH   8  27
TORSDOF 6
ENDMDL
MODEL 8
REMARK VINA RESULT:      -6.4      4.187      7.928
REMARK  Name = 
REMARK  9 active torsions:
REMARK  status: ('A' for Active; 'I' for Inactive)
REMARK    1  A    between atoms: C_1  and  O_2
REMARK    2  A    between atoms: O_2  and  C_3
REMARK    3  A    between atoms: C_8  and  C_9
REMARK    4  A    between atoms: C_19  and  C_20
REMARK    5  A    between atoms: C_20  and  C_21
REMARK    6  A    between atoms: C_21  and  C_22
REMARK    7  A    between atoms: C_21  and  C_23
REMARK    8  A    between atoms: N_25  and  C_26
REMARK    9  A    between atoms: C_26  and  C_27
REMARK                            x       y       z     vdW  Elec       q    Type
REMARK                         _______ _______ _______ _____ _____    ______ ____
ROOT
ATOM      1  C   UNL     1       0.683  14.366  19.112  0.00  0.00    +0.000 A 
ATOM      2  C   UNL     1       0.305  15.701  18.887  0.00  0.00    +0.000 A 
ATOM      3  C   UNL     1      -0.796  16.259  19.512  0.00  0.00    +0.000 A 
ATOM      4  C   UNL     1      -1.561  15.494  20.385  0.00  0.00    +0.000 A 
ATOM      5  C   UNL     1      -1.204  14.163  20.679  0.00  0.00    +0.000 A 
ATOM      6  C   UNL     1      -1.765  13.170  21.529  0.00  0.00    +0.000 A 
ATOM      7  C   UNL     1      -1.098  11.999  21.229  0.00  0.00    +0.000 A 
ATOM      8  N   UNL     1      -0.023  12.279  20.428  0.00  0.00    +0.000 N 
ATOM      9  C   UNL     1      -0.099  13.598  20.008  0.00  0.00    +0.000 A 
ENDROOT
BRANCH   6  10
ATOM     10  C   UNL     1      -2.902  13.182  22.431  0.00  0.00    +0.000 C 
ATOM     11  O   UNL     1      -2.681  13.267  23.650  0.00  0.00    +0.000 OA
ATOM     12  N   UNL     1      -4.226  13.181  21.948  0.00  0.00    +0.000 N 
ATOM     13  C   UNL     1      -5.242  13.486  22.961  0.00  0.00    +0.000 C 
ATOM     14  C   UNL     1      -5.580  14.964  22.830  0.00  0.00    +0.000 C 
ATOM     15  C   UNL     1      -6.547  15.540  23.850  0.00  0.00    +0.000 C 
ATOM     16  C   UNL     1      -7.450  16.470  23.034  0.00  0.00    +0.000 C 
ATOM     17  C   UNL     1      -6.855  16.483  21.627  0.00  0.00    +0.000 C 
ATOM     18  N   UNL     1      -6.301  15.141  21.560  0.00  0.00    +0.000 NA
ATOM     19  C   UNL     1      -5.454  14.827  20.406  0.00  0.00    +0.000 C 
ATOM     20  C   UNL     1      -4.672  13.453  20.527  0.00  0.00    +0.000 C 
BRANCH  20  21
ATOM     21  C   UNL     1      -5.532  12.264  20.021  0.00  0.00    +0.000 C 
BRANCH  21  22
ATOM     22  C   UNL     1      -5.135  11.615  18.671  0.00  0.00    +0.000 C 
ATOM     23  C   UNL     1      -5.765  12.262  17.440  0.00  0.00    +0.000 C 
ATOM     24  C   UNL     1      -3.608  11.639  18.530  0.00  0.00    +0.000 C 
ENDBRANCH  21  22
ENDBRANCH  20  21
ENDBRANCH   6  10
BRANCH   1  26
ATOM     25  C   UNL     1       3.025  14.190  18.956  0.00  0.00    +0.000 C 
ATOM     26  O   UNL     1       1.745  13.784  18.471  0.00  0.00    +0.000 OA
ENDBRANCH   1  26
BRANCH   8  27
ATOM     27  C   UNL     1       0.892  11.245  19.986  0.00  0.00    +0.000 C 
BRANCH  27  28
ATOM     28  C   UNL     1       0.318   9.905  19.455  0.00  0.00    +0.000 C 
ATOM     29  C   UNL     1       0.676   9.566  18.007  0.00  0.00    +0.000 C 
ATOM     30  C   UNL     1       2.058   8.955  17.822  0.00  0.00    +0.000 C 
ATOM     31  C   UNL     1       2.343   7.790  18.764  0.00  0.00    +0.000 C 
ATOM     32  C   UNL     1       1.900   8.004  20.207  0.00  0.00    +0.000 C 
ATOM     33  C   UNL     1       0.539   8.674  20.351  0.00  0.00    +0.000 C 
ENDBRANCH  27  28
ENDBRANCH   8  27
TORSDOF 6
ENDMDL
MODEL 9
REMARK VINA RESULT:      -6.4      3.842      7.553
REMARK  Name = 
REMARK  9 active torsions:
REMARK  status: ('A' for Active; 'I' for Inactive)
REMARK    1  A    between atoms: C_1  and  O_2
REMARK    2  A    between atoms: O_2  and  C_3
REMARK    3  A    between atoms: C_8  and  C_9
REMARK    4  A    between atoms: C_19  and  C_20
REMARK    5  A    between atoms: C_20  and  C_21
REMARK    6  A    between atoms: C_21  and  C_22
REMARK    7  A    between atoms: C_21  and  C_23
REMARK    8  A    between atoms: N_25  and  C_26
REMARK    9  A    between atoms: C_26  and  C_27
REMARK                            x       y       z     vdW  Elec       q    Type
REMARK                         _______ _______ _______ _____ _____    ______ ____
ROOT
ATOM      1  C   UNL     1       0.160   9.448  20.759  0.00  0.00    +0.000 A 
ATOM      2  C   UNL     1       0.537   9.119  22.071  0.00  0.00    +0.000 A 
ATOM      3  C   UNL     1       0.066   9.828  23.162  0.00  0.00    +0.000 A 
ATOM      4  C   UNL     1      -0.801  10.898  22.972  0.00  0.00    +0.000 A 
ATOM      5  C   UNL     1      -1.245  11.245  21.681  0.00  0.00    +0.000 A 
ATOM      6  C   UNL     1      -2.129  12.248  21.193  0.00  0.00    +0.000 A 
ATOM      7  C   UNL     1      -1.997  12.227  19.819  0.00  0.00    +0.000 A 
ATOM      8  N   UNL     1      -1.272  11.126  19.447  0.00  0.00    +0.000 N 
ATOM      9  C   UNL     1      -0.728  10.535  20.577  0.00  0.00    +0.000 A 
ENDROOT
BRANCH   6  10
ATOM     10  C   UNL     1      -2.922  13.263  21.861  0.00  0.00    +0.000 C 
ATOM     11  O   UNL     1      -3.903  12.896  22.528  0.00  0.00    +0.000 OA
ATOM     12  N   UNL     1      -2.554  14.624  21.830  0.00  0.00    +0.000 N 
ATOM     13  C   UNL     1      -3.282  15.471  22.780  0.00  0.00    +0.000 C 
ATOM     14  C   UNL     1      -2.397  15.634  24.008  0.00  0.00    +0.000 C 
ATOM     15  C   UNL     1      -2.985  16.398  25.181  0.00  0.00    +0.000 C 
ATOM     16  C   UNL     1      -1.829  17.266  25.688  0.00  0.00    +0.000 C 
ATOM     17  C   UNL     1      -0.611  16.839  24.869  0.00  0.00    +0.000 C 
ATOM     18  N   UNL     1      -1.249  16.468  23.617  0.00  0.00    +0.000 NA
ATOM     19  C   UNL     1      -0.412  15.804  22.614  0.00  0.00    +0.000 C 
ATOM     20  C   UNL     1      -1.219  15.192  21.395  0.00  0.00    +0.000 C 
BRANCH  20  21
ATOM     21  C   UNL     1      -1.448  16.246  20.278  0.00  0.00    +0.000 C 
BRANCH  21  22
ATOM     22  C   UNL     1      -0.514  16.196  19.042  0.00  0.00    +0.000 C 
ATOM     23  C   UNL     1       0.482  17.349  18.947  0.00  0.00    +0.000 C 
ATOM     24  C   UNL     1       0.249  14.866  19.042  0.00  0.00    +0.000 C 
ENDBRANCH  21  22
ENDBRANCH  20  21
ENDBRANCH   6  10
BRANCH   1  26
ATOM     25  C   UNL     1       1.811   7.995  19.919  0.00  0.00    +0.000 C 
ATOM     26  O   UNL     1       0.649   8.784  19.664  0.00  0.00    +0.000 OA
ENDBRANCH   1  26
BRANCH   8  27
ATOM     27  C   UNL     1      -1.009  10.817  18.055  0.00  0.00    +0.000 C 
BRANCH  27  28
ATOM     28  C   UNL     1      -1.981   9.878  17.293  0.00  0.00    +0.000 C 
ATOM     29  C   UNL     1      -3.293   9.568  18.015  0.00  0.00    +0.000 C 
ATOM     30  C   UNL     1      -4.359  10.646  17.883  0.00  0.00    +0.000 C 
ATOM     31  C   UNL     1      -4.596  11.100  16.447  0.00  0.00    +0.000 C 
ATOM     32  C   UNL     1      -3.332  11.313  15.621  0.00  0.00    +0.000 C 
ATOM     33  C   UNL     1      -2.264  10.246  15.827  0.00  0.00    +0.000 C 
ENDBRANCH  27  28
ENDBRANCH   8  27
TORSDOF 6
ENDMDL
