MODEL 1
REMARK VINA RESULT:      -6.1      0.000      0.000
REMARK  Name = 
REMARK  6 active torsions:
REMARK  status: ('A' for Active; 'I' for Inactive)
REMARK    1  A    between atoms: C_1  and  C_2
REMARK    2  A    between atoms: C_2  and  O_3
REMARK    3  A    between atoms: O_3  and  C_4
REMARK    4  A    between atoms: C_4  and  C_6
REMARK    5  A    between atoms: C_6  and  N_14
REMARK    6  A    between atoms: C_11  and  C_12
REMARK                            x       y       z     vdW  Elec       q    Type
REMARK                         _______ _______ _______ _____ _____    ______ ____
ROOT
ATOM      1  C   UNL     1       4.499   5.009  18.400  0.00  0.00    +0.000 C 
ATOM      2  C   UNL     1       3.207   4.913  18.847  0.00  0.00    +0.000 C 
ATOM      3  S   UNL     1       1.800   4.987  17.781  0.00  0.00    +0.000 S 
ATOM      4  C   UNL     1       1.189   3.290  17.957  0.00  0.00    +0.000 C 
ATOM      5  C   UNL     1       0.782   2.960  19.389  0.00  0.00    +0.000 C 
ATOM      6  C   UNL     1       1.963   2.969  20.366  0.00  0.00    +0.000 C 
ATOM      7  C   UNL     1       1.508   2.530  21.758  0.00  0.00    +0.000 C 
ATOM      8  S   UNL     1       2.707   4.626  20.509  0.00  0.00    +0.000 S 
ENDROOT
BRANCH   1   9
ATOM      9  N   UNL     1       4.856   5.302  17.041  0.00  0.00    +0.000 N 
ATOM     10  C   UNL     1       5.200   4.418  16.027  0.00  0.00    +0.000 A 
ATOM     11  C   UNL     1       5.402   5.150  14.887  0.00  0.00    +0.000 A 
ATOM     12  N   UNL     1       5.270   6.478  15.146  0.00  0.00    +0.000 NA
ATOM     13  C   UNL     1       4.989   6.544  16.428  0.00  0.00    +0.000 A 
ENDBRANCH   1   9
BRANCH   1  14
ATOM     14  C   UNL     1       5.648   4.667  19.327  0.00  0.00    +0.000 C 
ATOM     15  O   UNL     1       5.845   3.540  19.763  0.00  0.00    +0.000 OA
BRANCH  14  16
ATOM     16  O   UNL     1       6.438   5.718  19.653  0.00  0.00    +0.000 OA
BRANCH  16  18
ATOM     17  C   UNL     1       7.988   7.074  18.355  0.00  0.00    +0.000 C 
ATOM     18  C   UNL     1       7.734   5.730  19.022  0.00  0.00    +0.000 C 
ENDBRANCH  16  18
ENDBRANCH  14  16
ENDBRANCH   1  14
TORSDOF 4
ENDMDL
MODEL 2
REMARK VINA RESULT:      -6.1      1.156      1.224
REMARK  Name = 
REMARK  6 active torsions:
REMARK  status: ('A' for Active; 'I' for Inactive)
REMARK    1  A    between atoms: C_1  and  C_2
REMARK    2  A    between atoms: C_2  and  O_3
REMARK    3  A    between atoms: O_3  and  C_4
REMARK    4  A    between atoms: C_4  and  C_6
REMARK    5  A    between atoms: C_6  and  N_14
REMARK    6  A    between atoms: C_11  and  C_12
REMARK                            x       y       z     vdW  Elec       q    Type
REMARK                         _______ _______ _______ _____ _____    ______ ____
ROOT
ATOM      1  C   UNL     1       4.941   4.877  17.807  0.00  0.00    +0.000 C 
ATOM      2  C   UNL     1       3.681   4.502  18.194  0.00  0.00    +0.000 C 
ATOM      3  S   UNL     1       2.538   3.682  17.123  0.00  0.00    +0.000 S 
ATOM      4  C   UNL     1       2.450   2.068  17.942  0.00  0.00    +0.000 C 
ATOM      5  C   UNL     1       1.908   2.161  19.364  0.00  0.00    +0.000 C 
ATOM      6  C   UNL     1       2.830   2.940  20.308  0.00  0.00    +0.000 C 
ATOM      7  C   UNL     1       2.283   2.908  21.735  0.00  0.00    +0.000 C 
ATOM      8  S   UNL     1       2.995   4.684  19.803  0.00  0.00    +0.000 S 
ENDROOT
BRANCH   1   9
ATOM      9  N   UNL     1       5.434   4.760  16.465  0.00  0.00    +0.000 N 
ATOM     10  C   UNL     1       6.024   3.662  15.851  0.00  0.00    +0.000 A 
ATOM     11  C   UNL     1       6.279   4.000  14.549  0.00  0.00    +0.000 A 
ATOM     12  N   UNL     1       5.941   5.297  14.320  0.00  0.00    +0.000 NA
ATOM     13  C   UNL     1       5.486   5.734  15.472  0.00  0.00    +0.000 A 
ENDBRANCH   1   9
BRANCH   1  14
ATOM     14  C   UNL     1       5.949   5.323  18.847  0.00  0.00    +0.000 C 
ATOM     15  O   UNL     1       6.345   4.600  19.751  0.00  0.00    +0.000 OA
BRANCH  14  16
ATOM     16  O   UNL     1       6.370   6.603  18.707  0.00  0.00    +0.000 OA
BRANCH  16  18
ATOM     17  C   UNL     1       7.950   8.130  17.659  0.00  0.00    +0.000 C 
ATOM     18  C   UNL     1       7.738   6.756  18.279  0.00  0.00    +0.000 C 
ENDBRANCH  16  18
ENDBRANCH  14  16
ENDBRANCH   1  14
TORSDOF 4
ENDMDL
MODEL 3
REMARK VINA RESULT:      -5.4      2.679      3.678
REMARK  Name = 
REMARK  6 active torsions:
REMARK  status: ('A' for Active; 'I' for Inactive)
REMARK    1  A    between atoms: C_1  and  C_2
REMARK    2  A    between atoms: C_2  and  O_3
REMARK    3  A    between atoms: O_3  and  C_4
REMARK    4  A    between atoms: C_4  and  C_6
REMARK    5  A    between atoms: C_6  and  N_14
REMARK    6  A    between atoms: C_11  and  C_12
REMARK                            x       y       z     vdW  Elec       q    Type
REMARK                         _______ _______ _______ _____ _____    ______ ____
ROOT
ATOM      1  C   UNL     1       3.893   5.942  17.908  0.00  0.00    +0.000 C 
ATOM      2  C   UNL     1       3.389   4.691  17.663  0.00  0.00    +0.000 C 
ATOM      3  S   UNL     1       4.401   3.288  17.301  0.00  0.00    +0.000 S 
ATOM      4  C   UNL     1       4.097   2.295  18.786  0.00  0.00    +0.000 C 
ATOM      5  C   UNL     1       2.633   1.899  18.935  0.00  0.00    +0.000 C 
ATOM      6  C   UNL     1       1.706   3.097  19.166  0.00  0.00    +0.000 C 
ATOM      7  C   UNL     1       0.273   2.625  19.412  0.00  0.00    +0.000 C 
ATOM      8  S   UNL     1       1.694   4.226  17.736  0.00  0.00    +0.000 S 
ENDROOT
BRANCH   1   9
ATOM      9  N   UNL     1       5.280   6.285  17.778  0.00  0.00    +0.000 N 
ATOM     10  C   UNL     1       6.328   5.994  18.642  0.00  0.00    +0.000 A 
ATOM     11  C   UNL     1       7.480   6.472  18.076  0.00  0.00    +0.000 A 
ATOM     12  N   UNL     1       7.204   7.122  16.914  0.00  0.00    +0.000 NA
ATOM     13  C   UNL     1       5.899   7.034  16.783  0.00  0.00    +0.000 A 
ENDBRANCH   1   9
BRANCH   1  14
ATOM     14  C   UNL     1       2.993   7.022  18.474  0.00  0.00    +0.000 C 
ATOM     15  O   UNL     1       2.680   7.083  19.655  0.00  0.00    +0.000 OA
BRANCH  14  16
ATOM     16  O   UNL     1       2.544   7.915  17.559  0.00  0.00    +0.000 OA
BRANCH  16  18
ATOM     17  C   UNL     1       0.786   9.538  18.004  0.00  0.00    +0.000 C 
ATOM     18  C   UNL     1       2.277   9.235  18.070  0.00  0.00    +0.000 C 
ENDBRANCH  16  18
ENDBRANCH  14  16
ENDBRANCH   1  14
TORSDOF 4
ENDMDL
MODEL 4
REMARK VINA RESULT:      -5.4      2.754      3.474
REMARK  Name = 
REMARK  6 active torsions:
REMARK  status: ('A' for Active; 'I' for Inactive)
REMARK    1  A    between atoms: C_1  and  C_2
REMARK    2  A    between atoms: C_2  and  O_3
REMARK    3  A    between atoms: O_3  and  C_4
REMARK    4  A    between atoms: C_4  and  C_6
REMARK    5  A    between atoms: C_6  and  N_14
REMARK    6  A    between atoms: C_11  and  C_12
REMARK                            x       y       z     vdW  Elec       q    Type
REMARK                         _______ _______ _______ _____ _____    ______ ____
ROOT
ATOM      1  C   UNL     1       3.486   6.205  18.596  0.00  0.00    +0.000 C 
ATOM      2  C   UNL     1       3.270   5.090  19.365  0.00  0.00    +0.000 C 
ATOM      3  S   UNL     1       1.875   4.901  20.434  0.00  0.00    +0.000 S 
ATOM      4  C   UNL     1       1.013   3.554  19.582  0.00  0.00    +0.000 C 
ATOM      5  C   UNL     1       1.841   2.275  19.519  0.00  0.00    +0.000 C 
ATOM      6  C   UNL     1       3.107   2.421  18.669  0.00  0.00    +0.000 C 
ATOM      7  C   UNL     1       3.835   1.081  18.561  0.00  0.00    +0.000 C 
ATOM      8  S   UNL     1       4.262   3.637  19.382  0.00  0.00    +0.000 S 
ENDROOT
BRANCH   1   9
ATOM      9  N   UNL     1       2.680   7.389  18.661  0.00  0.00    +0.000 N 
ATOM     10  C   UNL     1       2.400   8.302  17.652  0.00  0.00    +0.000 A 
ATOM     11  C   UNL     1       1.540   9.238  18.164  0.00  0.00    +0.000 A 
ATOM     12  N   UNL     1       1.312   9.002  19.483  0.00  0.00    +0.000 NA
ATOM     13  C   UNL     1       2.026   7.934  19.761  0.00  0.00    +0.000 A 
ENDBRANCH   1   9
BRANCH   1  14
ATOM     14  C   UNL     1       4.545   6.181  17.512  0.00  0.00    +0.000 C 
ATOM     15  O   UNL     1       4.418   5.561  16.465  0.00  0.00    +0.000 OA
BRANCH  14  16
ATOM     16  O   UNL     1       5.660   6.894  17.802  0.00  0.00    +0.000 OA
BRANCH  16  18
ATOM     17  C   UNL     1       7.707   6.026  18.794  0.00  0.00    +0.000 C 
ATOM     18  C   UNL     1       6.905   6.227  17.515  0.00  0.00    +0.000 C 
ENDBRANCH  16  18
ENDBRANCH  14  16
ENDBRANCH   1  14
TORSDOF 4
ENDMDL
MODEL 5
REMARK VINA RESULT:      -5.4      2.594      3.450
REMARK  Name = 
REMARK  6 active torsions:
REMARK  status: ('A' for Active; 'I' for Inactive)
REMARK    1  A    between atoms: C_1  and  C_2
REMARK    2  A    between atoms: C_2  and  O_3
REMARK    3  A    between atoms: O_3  and  C_4
REMARK    4  A    between atoms: C_4  and  C_6
REMARK    5  A    between atoms: C_6  and  N_14
REMARK    6  A    between atoms: C_11  and  C_12
REMARK                            x       y       z     vdW  Elec       q    Type
REMARK                         _______ _______ _______ _____ _____    ______ ____
ROOT
ATOM      1  C   UNL     1       3.653   5.670  17.999  0.00  0.00    +0.000 C 
ATOM      2  C   UNL     1       3.208   4.411  18.309  0.00  0.00    +0.000 C 
ATOM      3  S   UNL     1       4.156   2.947  18.022  0.00  0.00    +0.000 S 
ATOM      4  C   UNL     1       4.467   2.438  19.734  0.00  0.00    +0.000 C 
ATOM      5  C   UNL     1       3.183   2.127  20.494  0.00  0.00    +0.000 C 
ATOM      6  C   UNL     1       2.289   3.356  20.692  0.00  0.00    +0.000 C 
ATOM      7  C   UNL     1       1.074   3.001  21.549  0.00  0.00    +0.000 C 
ATOM      8  S   UNL     1       1.688   4.016  19.103  0.00  0.00    +0.000 S 
ENDROOT
BRANCH   1   9
ATOM      9  N   UNL     1       4.875   5.937  17.299  0.00  0.00    +0.000 N 
ATOM     10  C   UNL     1       6.111   6.298  17.820  0.00  0.00    +0.000 A 
ATOM     11  C   UNL     1       6.993   6.388  16.777  0.00  0.00    +0.000 A 
ATOM     12  N   UNL     1       6.357   6.169  15.596  0.00  0.00    +0.000 NA
ATOM     13  C   UNL     1       5.104   5.947  15.926  0.00  0.00    +0.000 A 
ENDBRANCH   1   9
BRANCH   1  14
ATOM     14  C   UNL     1       2.908   6.884  18.520  0.00  0.00    +0.000 C 
ATOM     15  O   UNL     1       2.672   7.067  19.706  0.00  0.00    +0.000 OA
BRANCH  14  16
ATOM     16  O   UNL     1       2.507   7.750  17.559  0.00  0.00    +0.000 OA
BRANCH  16  18
ATOM     17  C   UNL     1       0.846   9.482  17.968  0.00  0.00    +0.000 C 
ATOM     18  C   UNL     1       2.322   9.110  17.997  0.00  0.00    +0.000 C 
ENDBRANCH  16  18
ENDBRANCH  14  16
ENDBRANCH   1  14
TORSDOF 4
ENDMDL
MODEL 6
REMARK VINA RESULT:      -5.4      2.260      2.988
REMARK  Name = 
REMARK  6 active torsions:
REMARK  status: ('A' for Active; 'I' for Inactive)
REMARK    1  A    between atoms: C_1  and  C_2
REMARK    2  A    between atoms: C_2  and  O_3
REMARK    3  A    between atoms: O_3  and  C_4
REMARK    4  A    between atoms: C_4  and  C_6
REMARK    5  A    between atoms: C_6  and  N_14
REMARK    6  A    between atoms: C_11  and  C_12
REMARK                            x       y       z     vdW  Elec       q    Type
REMARK                         _______ _______ _______ _____ _____    ______ ____
ROOT
ATOM      1  C   UNL     1       4.174   5.081  17.376  0.00  0.00    +0.000 C 
ATOM      2  C   UNL     1       3.237   4.098  17.561  0.00  0.00    +0.000 C 
ATOM      3  S   UNL     1       3.401   2.463  16.909  0.00  0.00    +0.000 S 
ATOM      4  C   UNL     1       3.581   1.531  18.453  0.00  0.00    +0.000 C 
ATOM      5  C   UNL     1       2.357   1.648  19.354  0.00  0.00    +0.000 C 
ATOM      6  C   UNL     1       2.128   3.072  19.874  0.00  0.00    +0.000 C 
ATOM      7  C   UNL     1       0.953   3.101  20.851  0.00  0.00    +0.000 C 
ATOM      8  S   UNL     1       1.768   4.235  18.519  0.00  0.00    +0.000 S 
ENDROOT
BRANCH   1   9
ATOM      9  N   UNL     1       5.328   4.939  16.537  0.00  0.00    +0.000 N 
ATOM     10  C   UNL     1       5.415   5.058  15.156  0.00  0.00    +0.000 A 
ATOM     11  C   UNL     1       6.729   4.897  14.805  0.00  0.00    +0.000 A 
ATOM     12  N   UNL     1       7.481   4.608  15.900  0.00  0.00    +0.000 NA
ATOM     13  C   UNL     1       6.627   4.597  16.900  0.00  0.00    +0.000 A 
ENDBRANCH   1   9
BRANCH   1  14
ATOM     14  C   UNL     1       4.096   6.361  18.184  0.00  0.00    +0.000 C 
ATOM     15  O   UNL     1       4.535   6.462  19.322  0.00  0.00    +0.000 OA
BRANCH  14  16
ATOM     16  O   UNL     1       3.481   7.388  17.550  0.00  0.00    +0.000 OA
BRANCH  16  18
ATOM     17  C   UNL     1       2.073   9.359  17.793  0.00  0.00    +0.000 C 
ATOM     18  C   UNL     1       2.324   7.921  18.225  0.00  0.00    +0.000 C 
ENDBRANCH  16  18
ENDBRANCH  14  16
ENDBRANCH   1  14
TORSDOF 4
ENDMDL
MODEL 7
REMARK VINA RESULT:      -5.3      2.464      3.555
REMARK  Name = 
REMARK  6 active torsions:
REMARK  status: ('A' for Active; 'I' for Inactive)
REMARK    1  A    between atoms: C_1  and  C_2
REMARK    2  A    between atoms: C_2  and  O_3
REMARK    3  A    between atoms: O_3  and  C_4
REMARK    4  A    between atoms: C_4  and  C_6
REMARK    5  A    between atoms: C_6  and  N_14
REMARK    6  A    between atoms: C_11  and  C_12
REMARK                            x       y       z     vdW  Elec       q    Type
REMARK                         _______ _______ _______ _____ _____    ______ ____
ROOT
ATOM      1  C   UNL     1       3.934   5.849  17.663  0.00  0.00    +0.000 C 
ATOM      2  C   UNL     1       3.362   4.606  17.737  0.00  0.00    +0.000 C 
ATOM      3  S   UNL     1       4.278   3.102  17.587  0.00  0.00    +0.000 S 
ATOM      4  C   UNL     1       4.094   2.458  19.270  0.00  0.00    +0.000 C 
ATOM      5  C   UNL     1       2.640   2.185  19.637  0.00  0.00    +0.000 C 
ATOM      6  C   UNL     1       1.787   3.457  19.696  0.00  0.00    +0.000 C 
ATOM      7  C   UNL     1       0.371   3.130  20.170  0.00  0.00    +0.000 C 
ATOM      8  S   UNL     1       1.668   4.265  18.067  0.00  0.00    +0.000 S 
ENDROOT
BRANCH   1   9
ATOM      9  N   UNL     1       5.311   6.077  17.334  0.00  0.00    +0.000 N 
ATOM     10  C   UNL     1       6.373   6.343  18.188  0.00  0.00    +0.000 A 
ATOM     11  C   UNL     1       7.509   6.430  17.428  0.00  0.00    +0.000 A 
ATOM     12  N   UNL     1       7.208   6.302  16.108  0.00  0.00    +0.000 NA
ATOM     13  C   UNL     1       5.904   6.137  16.076  0.00  0.00    +0.000 A 
ENDBRANCH   1   9
BRANCH   1  14
ATOM     14  C   UNL     1       3.138   7.073  18.069  0.00  0.00    +0.000 C 
ATOM     15  O   UNL     1       2.968   8.037  17.334  0.00  0.00    +0.000 OA
BRANCH  14  16
ATOM     16  O   UNL     1       2.638   7.024  19.327  0.00  0.00    +0.000 OA
BRANCH  16  18
ATOM     17  C   UNL     1       1.296   7.972  21.125  0.00  0.00    +0.000 C 
ATOM     18  C   UNL     1       1.835   8.158  19.713  0.00  0.00    +0.000 C 
ENDBRANCH  16  18
ENDBRANCH  14  16
ENDBRANCH   1  14
TORSDOF 4
ENDMDL
MODEL 8
REMARK VINA RESULT:      -5.3      2.703      3.761
REMARK  Name = 
REMARK  6 active torsions:
REMARK  status: ('A' for Active; 'I' for Inactive)
REMARK    1  A    between atoms: C_1  and  C_2
REMARK    2  A    between atoms: C_2  and  O_3
REMARK    3  A    between atoms: O_3  and  C_4
REMARK    4  A    between atoms: C_4  and  C_6
REMARK    5  A    between atoms: C_6  and  N_14
REMARK    6  A    between atoms: C_11  and  C_12
REMARK                            x       y       z     vdW  Elec       q    Type
REMARK                         _______ _______ _______ _____ _____    ______ ____
ROOT
ATOM      1  C   UNL     1       3.525   6.147  18.673  0.00  0.00    +0.000 C 
ATOM      2  C   UNL     1       3.252   5.026  19.415  0.00  0.00    +0.000 C 
ATOM      3  S   UNL     1       1.787   4.834  20.385  0.00  0.00    +0.000 S 
ATOM      4  C   UNL     1       0.979   3.500  19.463  0.00  0.00    +0.000 C 
ATOM      5  C   UNL     1       1.803   2.218  19.445  0.00  0.00    +0.000 C 
ATOM      6  C   UNL     1       3.125   2.365  18.685  0.00  0.00    +0.000 C 
ATOM      7  C   UNL     1       3.853   1.022  18.613  0.00  0.00    +0.000 C 
ATOM      8  S   UNL     1       4.234   3.569  19.486  0.00  0.00    +0.000 S 
ENDROOT
BRANCH   1   9
ATOM      9  N   UNL     1       2.721   7.335  18.694  0.00  0.00    +0.000 N 
ATOM     10  C   UNL     1       2.467   8.226  17.660  0.00  0.00    +0.000 A 
ATOM     11  C   UNL     1       1.599   9.175  18.132  0.00  0.00    +0.000 A 
ATOM     12  N   UNL     1       1.341   8.969  19.450  0.00  0.00    +0.000 NA
ATOM     13  C   UNL     1       2.045   7.906  19.768  0.00  0.00    +0.000 A 
ENDBRANCH   1   9
BRANCH   1  14
ATOM     14  C   UNL     1       4.655   6.128  17.663  0.00  0.00    +0.000 C 
ATOM     15  O   UNL     1       5.712   6.722  17.829  0.00  0.00    +0.000 OA
BRANCH  14  16
ATOM     16  O   UNL     1       4.395   5.409  16.545  0.00  0.00    +0.000 OA
BRANCH  16  18
ATOM     17  C   UNL     1       5.554   4.488  14.612  0.00  0.00    +0.000 C 
ATOM     18  C   UNL     1       5.449   4.517  16.131  0.00  0.00    +0.000 C 
ENDBRANCH  16  18
ENDBRANCH  14  16
ENDBRANCH   1  14
TORSDOF 4
ENDMDL
MODEL 9
REMARK VINA RESULT:      -5.3      2.242      3.194
REMARK  Name = 
REMARK  6 active torsions:
REMARK  status: ('A' for Active; 'I' for Inactive)
REMARK    1  A    between atoms: C_1  and  C_2
REMARK    2  A    between atoms: C_2  and  O_3
REMARK    3  A    between atoms: O_3  and  C_4
REMARK    4  A    between atoms: C_4  and  C_6
REMARK    5  A    between atoms: C_6  and  N_14
REMARK    6  A    between atoms: C_11  and  C_12
REMARK                            x       y       z     vdW  Elec       q    Type
REMARK                         _______ _______ _______ _____ _____    ______ ____
ROOT
ATOM      1  C   UNL     1       4.165   5.067  17.193  0.00  0.00    +0.000 C 
ATOM      2  C   UNL     1       3.295   4.034  17.430  0.00  0.00    +0.000 C 
ATOM      3  S   UNL     1       3.702   2.336  17.155  0.00  0.00    +0.000 S 
ATOM      4  C   UNL     1       3.695   1.735  18.864  0.00  0.00    +0.000 C 
ATOM      5  C   UNL     1       2.331   1.877  19.529  0.00  0.00    +0.000 C 
ATOM      6  C   UNL     1       1.900   3.336  19.710  0.00  0.00    +0.000 C 
ATOM      7  C   UNL     1       0.578   3.412  20.475  0.00  0.00    +0.000 C 
ATOM      8  S   UNL     1       1.679   4.179  18.110  0.00  0.00    +0.000 S 
ENDROOT
BRANCH   1   9
ATOM      9  N   UNL     1       5.453   4.903  16.582  0.00  0.00    +0.000 N 
ATOM     10  C   UNL     1       5.775   4.894  15.232  0.00  0.00    +0.000 A 
ATOM     11  C   UNL     1       7.135   4.768  15.129  0.00  0.00    +0.000 A 
ATOM     12  N   UNL     1       7.693   4.624  16.360  0.00  0.00    +0.000 NA
ATOM     13  C   UNL     1       6.679   4.665  17.195  0.00  0.00    +0.000 A 
ENDBRANCH   1   9
BRANCH   1  14
ATOM     14  C   UNL     1       3.846   6.457  17.705  0.00  0.00    +0.000 C 
ATOM     15  O   UNL     1       3.956   7.465  17.020  0.00  0.00    +0.000 OA
BRANCH  14  16
ATOM     16  O   UNL     1       3.440   6.499  18.997  0.00  0.00    +0.000 OA
BRANCH  16  18
ATOM     17  C   UNL     1       1.723   7.134  20.602  0.00  0.00    +0.000 C 
ATOM     18  C   UNL     1       2.412   7.467  19.286  0.00  0.00    +0.000 C 
ENDBRANCH  16  18
ENDBRANCH  14  16
ENDBRANCH   1  14
TORSDOF 4
ENDMDL
