MODEL 1
REMARK VINA RESULT:      -6.0      0.000      0.000
REMARK  Name = 
REMARK  15 active torsions:
REMARK  status: ('A' for Active; 'I' for Inactive)
REMARK    1  A    between atoms: C_1  and  C_2
REMARK    2  A    between atoms: C_2  and  C_3
REMARK    3  A    between atoms: C_3  and  C_4
REMARK    4  A    between atoms: C_4  and  C_5
REMARK    5  A    between atoms: C_5  and  C_6
REMARK    6  A    between atoms: C_6  and  C_7
REMARK    7  A    between atoms: C_7  and  C_8
REMARK    8  A    between atoms: C_13  and  O_14
REMARK    9  A    between atoms: C_15  and  C_16
REMARK   10  A    between atoms: C_16  and  C_17
REMARK   11  A    between atoms: N_23  and  C_24
REMARK   12  A    between atoms: C_27  and  C_28
REMARK   13  A    between atoms: C_28  and  C_29
REMARK   14  A    between atoms: C_28  and  C_30
REMARK   15  A    between atoms: C_34  and  C_35
REMARK                            x       y       z     vdW  Elec       q    Type
REMARK                         _______ _______ _______ _____ _____    ______ ____
ROOT
ATOM      1  C   UNL     1       0.033  10.524  20.459  0.00  0.00    +0.000 C 
ATOM      2  O   UNL     1       1.090  11.340  19.912  0.00  0.00    +0.000 OA
ATOM      3  C   UNL     1       1.646  10.953  18.742  0.00  0.00    +0.000 C 
ATOM      4  O   UNL     1       1.553   9.849  18.220  0.00  0.00    +0.000 OA
ATOM      5  C   UNL     1       2.456  12.088  18.186  0.00  0.00    +0.000 C 
ATOM      6  C   UNL     1       1.770  13.463  18.116  0.00  0.00    +0.000 C 
ATOM      7  C   UNL     1       1.891  14.523  19.305  0.00  0.00    +0.000 C 
ATOM      8  N   UNL     1       0.543  14.757  19.922  0.00  0.00    +0.000 N 
ATOM      9  C   UNL     1      -0.304  15.713  19.192  0.00  0.00    +0.000 C 
ATOM     10  C   UNL     1       0.412  14.920  21.312  0.00  0.00    +0.000 C 
ATOM     11  O   UNL     1       1.236  15.495  22.017  0.00  0.00    +0.000 OA
ATOM     12  C   UNL     1      -0.826  14.214  21.882  0.00  0.00    +0.000 C 
ATOM     13  O   UNL     1      -0.175  13.070  22.496  0.00  0.00    +0.000 OA
ATOM     14  C   UNL     1      -0.830  11.896  22.396  0.00  0.00    +0.000 C 
ATOM     15  O   UNL     1      -2.035  11.749  22.480  0.00  0.00    +0.000 OA
ATOM     16  C   UNL     1       0.112  10.774  21.994  0.00  0.00    +0.000 C 
ATOM     17  C   UNL     1      -0.191   9.528  22.827  0.00  0.00    +0.000 C 
ENDROOT
BRANCH  12  18
ATOM     18  C   UNL     1      -1.624  15.115  22.836  0.00  0.00    +0.000 C 
ATOM     19  C   UNL     1      -1.360  14.775  24.305  0.00  0.00    +0.000 C 
ATOM     20  C   UNL     1      -3.131  14.963  22.580  0.00  0.00    +0.000 C 
ENDBRANCH  12  18
BRANCH   6  21
ATOM     21  O   UNL     1       0.390  13.314  17.725  0.00  0.00    +0.000 OA
ATOM     22  H   UNL     1      -0.057  12.975  18.519  0.00  0.00    +0.000 HD
ENDBRANCH   6  21
BRANCH   1  23
ATOM     23  C   UNL     1      -1.258  11.016  19.771  0.00  0.00    +0.000 C 
BRANCH  23  24
ATOM     24  C   UNL     1      -1.904  10.074  18.742  0.00  0.00    +0.000 C 
BRANCH  24  25
ATOM     25  C   UNL     1      -2.940  10.748  17.855  0.00  0.00    +0.000 C 
BRANCH  25  26
ATOM     26  C   UNL     1      -2.361  10.990  16.474  0.00  0.00    +0.000 C 
BRANCH  26  27
ATOM     27  C   UNL     1      -3.433  11.002  15.406  0.00  0.00    +0.000 C 
BRANCH  27  29
ATOM     28  C   UNL     1      -4.143   9.838  13.308  0.00  0.00    +0.000 C 
ATOM     29  C   UNL     1      -3.012  10.057  14.288  0.00  0.00    +0.000 C 
ENDBRANCH  27  29
ENDBRANCH  26  27
ENDBRANCH  25  26
ENDBRANCH  24  25
ENDBRANCH  23  24
ENDBRANCH   1  23
BRANCH   7  30
ATOM     30  C   UNL     1       3.091  14.281  20.272  0.00  0.00    +0.000 C 
BRANCH  30  31
ATOM     31  C   UNL     1       4.262  15.222  20.046  0.00  0.00    +0.000 A 
ATOM     32  C   UNL     1       4.375  16.427  20.751  0.00  0.00    +0.000 A 
ATOM     33  C   UNL     1       5.243  17.422  20.307  0.00  0.00    +0.000 A 
ATOM     34  C   UNL     1       6.055  17.193  19.199  0.00  0.00    +0.000 A 
ATOM     35  C   UNL     1       6.046  15.948  18.572  0.00  0.00    +0.000 A 
ATOM     36  C   UNL     1       5.170  14.953  19.008  0.00  0.00    +0.000 A 
ENDBRANCH  30  31
ENDBRANCH   7  30
TORSDOF 10
ENDMDL
MODEL 2
REMARK VINA RESULT:      -5.9      1.116      1.548
REMARK  Name = 
REMARK  15 active torsions:
REMARK  status: ('A' for Active; 'I' for Inactive)
REMARK    1  A    between atoms: C_1  and  C_2
REMARK    2  A    between atoms: C_2  and  C_3
REMARK    3  A    between atoms: C_3  and  C_4
REMARK    4  A    between atoms: C_4  and  C_5
REMARK    5  A    between atoms: C_5  and  C_6
REMARK    6  A    between atoms: C_6  and  C_7
REMARK    7  A    between atoms: C_7  and  C_8
REMARK    8  A    between atoms: C_13  and  O_14
REMARK    9  A    between atoms: C_15  and  C_16
REMARK   10  A    between atoms: C_16  and  C_17
REMARK   11  A    between atoms: N_23  and  C_24
REMARK   12  A    between atoms: C_27  and  C_28
REMARK   13  A    between atoms: C_28  and  C_29
REMARK   14  A    between atoms: C_28  and  C_30
REMARK   15  A    between atoms: C_34  and  C_35
REMARK                            x       y       z     vdW  Elec       q    Type
REMARK                         _______ _______ _______ _____ _____    ______ ____
ROOT
ATOM      1  C   UNL     1      -0.110  10.576  20.369  0.00  0.00    +0.000 C 
ATOM      2  O   UNL     1       0.993  11.359  19.867  0.00  0.00    +0.000 OA
ATOM      3  C   UNL     1       1.542  10.992  18.686  0.00  0.00    +0.000 C 
ATOM      4  O   UNL     1       1.398   9.918  18.117  0.00  0.00    +0.000 OA
ATOM      5  C   UNL     1       2.415  12.106  18.186  0.00  0.00    +0.000 C 
ATOM      6  C   UNL     1       1.802  13.517  18.168  0.00  0.00    +0.000 C 
ATOM      7  C   UNL     1       1.963  14.519  19.403  0.00  0.00    +0.000 C 
ATOM      8  N   UNL     1       0.623  14.796  20.017  0.00  0.00    +0.000 N 
ATOM      9  C   UNL     1      -0.166  15.823  19.320  0.00  0.00    +0.000 C 
ATOM     10  C   UNL     1       0.485  14.907  21.411  0.00  0.00    +0.000 C 
ATOM     11  O   UNL     1       1.329  15.409  22.147  0.00  0.00    +0.000 OA
ATOM     12  C   UNL     1      -0.794  14.243  21.940  0.00  0.00    +0.000 C 
ATOM     13  O   UNL     1      -0.210  13.042  22.511  0.00  0.00    +0.000 OA
ATOM     14  C   UNL     1      -0.923  11.909  22.355  0.00  0.00    +0.000 C 
ATOM     15  O   UNL     1      -2.135  11.821  22.421  0.00  0.00    +0.000 OA
ATOM     16  C   UNL     1      -0.035  10.757  21.914  0.00  0.00    +0.000 C 
ATOM     17  C   UNL     1      -0.411   9.495  22.690  0.00  0.00    +0.000 C 
ENDROOT
BRANCH  12  18
ATOM     18  C   UNL     1      -1.555  15.144  22.924  0.00  0.00    +0.000 C 
ATOM     19  C   UNL     1      -1.356  14.705  24.377  0.00  0.00    +0.000 C 
ATOM     20  C   UNL     1      -3.062  15.110  22.623  0.00  0.00    +0.000 C 
ENDBRANCH  12  18
BRANCH   6  21
ATOM     21  O   UNL     1       0.420  13.455  17.759  0.00  0.00    +0.000 OA
ATOM     22  H   UNL     1       0.350  12.633  17.247  0.00  0.00    +0.000 HD
ENDBRANCH   6  21
BRANCH   1  23
ATOM     23  C   UNL     1      -1.367  11.162  19.691  0.00  0.00    +0.000 C 
BRANCH  23  24
ATOM     24  C   UNL     1      -1.994  10.342  18.553  0.00  0.00    +0.000 C 
BRANCH  24  25
ATOM     25  C   UNL     1      -2.214  11.133  17.272  0.00  0.00    +0.000 C 
BRANCH  25  26
ATOM     26  C   UNL     1      -3.695  11.196  16.951  0.00  0.00    +0.000 C 
BRANCH  26  27
ATOM     27  C   UNL     1      -4.509  11.667  18.137  0.00  0.00    +0.000 C 
BRANCH  27  29
ATOM     28  C   UNL     1      -6.961  12.086  17.864  0.00  0.00    +0.000 C 
ATOM     29  C   UNL     1      -5.893  11.033  18.055  0.00  0.00    +0.000 C 
ENDBRANCH  27  29
ENDBRANCH  26  27
ENDBRANCH  25  26
ENDBRANCH  24  25
ENDBRANCH  23  24
ENDBRANCH   1  23
BRANCH   7  30
ATOM     30  C   UNL     1       3.138  14.174  20.369  0.00  0.00    +0.000 C 
BRANCH  30  31
ATOM     31  C   UNL     1       4.314  15.132  20.273  0.00  0.00    +0.000 A 
ATOM     32  C   UNL     1       4.300  16.217  19.388  0.00  0.00    +0.000 A 
ATOM     33  C   UNL     1       5.485  16.875  19.064  0.00  0.00    +0.000 A 
ATOM     34  C   UNL     1       6.678  16.499  19.674  0.00  0.00    +0.000 A 
ATOM     35  C   UNL     1       6.679  15.509  20.656  0.00  0.00    +0.000 A 
ATOM     36  C   UNL     1       5.496  14.842  20.975  0.00  0.00    +0.000 A 
ENDBRANCH  30  31
ENDBRANCH   7  30
TORSDOF 10
ENDMDL
MODEL 3
REMARK VINA RESULT:      -5.9      0.892      1.046
REMARK  Name = 
REMARK  15 active torsions:
REMARK  status: ('A' for Active; 'I' for Inactive)
REMARK    1  A    between atoms: C_1  and  C_2
REMARK    2  A    between atoms: C_2  and  C_3
REMARK    3  A    between atoms: C_3  and  C_4
REMARK    4  A    between atoms: C_4  and  C_5
REMARK    5  A    between atoms: C_5  and  C_6
REMARK    6  A    between atoms: C_6  and  C_7
REMARK    7  A    between atoms: C_7  and  C_8
REMARK    8  A    between atoms: C_13  and  O_14
REMARK    9  A    between atoms: C_15  and  C_16
REMARK   10  A    between atoms: C_16  and  C_17
REMARK   11  A    between atoms: N_23  and  C_24
REMARK   12  A    between atoms: C_27  and  C_28
REMARK   13  A    between atoms: C_28  and  C_29
REMARK   14  A    between atoms: C_28  and  C_30
REMARK   15  A    between atoms: C_34  and  C_35
REMARK                            x       y       z     vdW  Elec       q    Type
REMARK                         _______ _______ _______ _____ _____    ______ ____
ROOT
ATOM      1  C   UNL     1      -0.288  10.858  20.686  0.00  0.00    +0.000 C 
ATOM      2  O   UNL     1       0.852  11.606  20.212  0.00  0.00    +0.000 OA
ATOM      3  C   UNL     1       1.379  11.262  19.015  0.00  0.00    +0.000 C 
ATOM      4  O   UNL     1       1.182  10.220  18.403  0.00  0.00    +0.000 OA
ATOM      5  C   UNL     1       2.305  12.351  18.558  0.00  0.00    +0.000 C 
ATOM      6  C   UNL     1       1.762  13.790  18.600  0.00  0.00    +0.000 C 
ATOM      7  C   UNL     1       1.975  14.731  19.875  0.00  0.00    +0.000 C 
ATOM      8  N   UNL     1       0.651  15.048  20.505  0.00  0.00    +0.000 N 
ATOM      9  C   UNL     1      -0.088  16.141  19.854  0.00  0.00    +0.000 C 
ATOM     10  C   UNL     1       0.521  15.108  21.903  0.00  0.00    +0.000 C 
ATOM     11  O   UNL     1       1.390  15.537  22.656  0.00  0.00    +0.000 OA
ATOM     12  C   UNL     1      -0.788  14.486  22.409  0.00  0.00    +0.000 C 
ATOM     13  O   UNL     1      -0.263  13.235  22.927  0.00  0.00    +0.000 OA
ATOM     14  C   UNL     1      -1.031  12.146  22.728  0.00  0.00    +0.000 C 
ATOM     15  O   UNL     1      -2.246  12.115  22.795  0.00  0.00    +0.000 OA
ATOM     16  C   UNL     1      -0.202  10.971  22.237  0.00  0.00    +0.000 C 
ATOM     17  C   UNL     1      -0.638   9.698  22.961  0.00  0.00    +0.000 C 
ENDROOT
BRANCH  12  18
ATOM     18  C   UNL     1      -1.502  15.381  23.432  0.00  0.00    +0.000 C 
ATOM     19  C   UNL     1      -1.328  14.870  24.865  0.00  0.00    +0.000 C 
ATOM     20  C   UNL     1      -3.008  15.440  23.132  0.00  0.00    +0.000 C 
ENDBRANCH  12  18
BRANCH   6  21
ATOM     21  O   UNL     1       0.379  13.813  18.195  0.00  0.00    +0.000 OA
ATOM     22  H   UNL     1       0.405  13.787  17.224  0.00  0.00    +0.000 HD
ENDBRANCH   6  21
BRANCH   1  23
ATOM     23  C   UNL     1      -1.515  11.533  20.037  0.00  0.00    +0.000 C 
BRANCH  23  24
ATOM     24  C   UNL     1      -2.227  10.760  18.915  0.00  0.00    +0.000 C 
BRANCH  24  25
ATOM     25  C   UNL     1      -3.389  11.515  18.288  0.00  0.00    +0.000 C 
BRANCH  25  26
ATOM     26  C   UNL     1      -3.392  11.304  16.785  0.00  0.00    +0.000 C 
BRANCH  26  27
ATOM     27  C   UNL     1      -2.717  10.006  16.396  0.00  0.00    +0.000 C 
BRANCH  27  29
ATOM     28  C   UNL     1      -3.974  10.085  14.235  0.00  0.00    +0.000 C 
ATOM     29  C   UNL     1      -2.612   9.953  14.877  0.00  0.00    +0.000 C 
ENDBRANCH  27  29
ENDBRANCH  26  27
ENDBRANCH  25  26
ENDBRANCH  24  25
ENDBRANCH  23  24
ENDBRANCH   1  23
BRANCH   7  30
ATOM     30  C   UNL     1       3.133  14.289  20.821  0.00  0.00    +0.000 C 
BRANCH  30  31
ATOM     31  C   UNL     1       4.450  14.999  20.554  0.00  0.00    +0.000 A 
ATOM     32  C   UNL     1       4.660  15.727  19.376  0.00  0.00    +0.000 A 
ATOM     33  C   UNL     1       5.951  16.080  18.989  0.00  0.00    +0.000 A 
ATOM     34  C   UNL     1       7.032  15.770  19.809  0.00  0.00    +0.000 A 
ATOM     35  C   UNL     1       6.819  15.164  21.046  0.00  0.00    +0.000 A 
ATOM     36  C   UNL     1       5.529  14.800  21.432  0.00  0.00    +0.000 A 
ENDBRANCH  30  31
ENDBRANCH   7  30
TORSDOF 10
ENDMDL
MODEL 4
REMARK VINA RESULT:      -5.8      2.477      5.925
REMARK  Name = 
REMARK  15 active torsions:
REMARK  status: ('A' for Active; 'I' for Inactive)
REMARK    1  A    between atoms: C_1  and  C_2
REMARK    2  A    between atoms: C_2  and  C_3
REMARK    3  A    between atoms: C_3  and  C_4
REMARK    4  A    between atoms: C_4  and  C_5
REMARK    5  A    between atoms: C_5  and  C_6
REMARK    6  A    between atoms: C_6  and  C_7
REMARK    7  A    between atoms: C_7  and  C_8
REMARK    8  A    between atoms: C_13  and  O_14
REMARK    9  A    between atoms: C_15  and  C_16
REMARK   10  A    between atoms: C_16  and  C_17
REMARK   11  A    between atoms: N_23  and  C_24
REMARK   12  A    between atoms: C_27  and  C_28
REMARK   13  A    between atoms: C_28  and  C_29
REMARK   14  A    between atoms: C_28  and  C_30
REMARK   15  A    between atoms: C_34  and  C_35
REMARK                            x       y       z     vdW  Elec       q    Type
REMARK                         _______ _______ _______ _____ _____    ______ ____
ROOT
ATOM      1  C   UNL     1      -2.674  14.094  21.526  0.00  0.00    +0.000 C 
ATOM      2  O   UNL     1      -2.149  12.986  20.763  0.00  0.00    +0.000 OA
ATOM      3  C   UNL     1      -2.946  12.439  19.816  0.00  0.00    +0.000 C 
ATOM      4  O   UNL     1      -4.156  12.586  19.706  0.00  0.00    +0.000 OA
ATOM      5  C   UNL     1      -2.115  11.560  18.928  0.00  0.00    +0.000 C 
ATOM      6  C   UNL     1      -0.818  12.167  18.364  0.00  0.00    +0.000 C 
ATOM      7  C   UNL     1       0.582  12.003  19.116  0.00  0.00    +0.000 C 
ATOM      8  N   UNL     1       1.080  13.342  19.572  0.00  0.00    +0.000 N 
ATOM      9  C   UNL     1       1.762  14.126  18.531  0.00  0.00    +0.000 C 
ATOM     10  C   UNL     1       1.722  13.481  20.815  0.00  0.00    +0.000 C 
ATOM     11  O   UNL     1       2.466  12.635  21.302  0.00  0.00    +0.000 OA
ATOM     12  C   UNL     1       1.318  14.763  21.556  0.00  0.00    +0.000 C 
ATOM     13  O   UNL     1       0.428  14.185  22.548  0.00  0.00    +0.000 OA
ATOM     14  C   UNL     1      -0.674  14.903  22.840  0.00  0.00    +0.000 C 
ATOM     15  O   UNL     1      -0.725  16.115  22.932  0.00  0.00    +0.000 OA
ATOM     16  C   UNL     1      -1.910  14.020  22.881  0.00  0.00    +0.000 C 
ATOM     17  C   UNL     1      -2.773  14.402  24.083  0.00  0.00    +0.000 C 
ENDROOT
BRANCH  12  18
ATOM     18  C   UNL     1       2.532  15.521  22.114  0.00  0.00    +0.000 C 
ATOM     19  C   UNL     1       2.255  17.020  22.264  0.00  0.00    +0.000 C 
ATOM     20  C   UNL     1       3.741  15.356  21.181  0.00  0.00    +0.000 C 
ENDBRANCH  12  18
BRANCH   6  21
ATOM     21  O   UNL     1      -1.028  13.548  18.008  0.00  0.00    +0.000 OA
ATOM     22  H   UNL     1      -1.931  13.578  17.649  0.00  0.00    +0.000 HD
ENDBRANCH   6  21
BRANCH   1  23
ATOM     23  C   UNL     1      -2.390  15.347  20.671  0.00  0.00    +0.000 C 
BRANCH  23  24
ATOM     24  C   UNL     1      -3.353  16.534  20.830  0.00  0.00    +0.000 C 
BRANCH  24  25
ATOM     25  C   UNL     1      -4.660  16.179  21.523  0.00  0.00    +0.000 C 
BRANCH  25  26
ATOM     26  C   UNL     1      -5.670  15.691  20.502  0.00  0.00    +0.000 C 
BRANCH  26  27
ATOM     27  C   UNL     1      -6.643  14.697  21.101  0.00  0.00    +0.000 C 
BRANCH  27  29
ATOM     28  C   UNL     1      -6.149  12.798  22.654  0.00  0.00    +0.000 C 
ATOM     29  C   UNL     1      -6.139  14.301  22.483  0.00  0.00    +0.000 C 
ENDBRANCH  27  29
ENDBRANCH  26  27
ENDBRANCH  25  26
ENDBRANCH  24  25
ENDBRANCH  23  24
ENDBRANCH   1  23
BRANCH   7  30
ATOM     30  C   UNL     1       0.633  10.830  20.143  0.00  0.00    +0.000 C 
BRANCH  30  31
ATOM     31  C   UNL     1       1.118   9.516  19.553  0.00  0.00    +0.000 A 
ATOM     32  C   UNL     1       1.337   8.392  20.359  0.00  0.00    +0.000 A 
ATOM     33  C   UNL     1       2.088   7.320  19.881  0.00  0.00    +0.000 A 
ATOM     34  C   UNL     1       2.565   7.334  18.573  0.00  0.00    +0.000 A 
ATOM     35  C   UNL     1       2.239   8.388  17.722  0.00  0.00    +0.000 A 
ATOM     36  C   UNL     1       1.496   9.468  18.201  0.00  0.00    +0.000 A 
ENDBRANCH  30  31
ENDBRANCH   7  30
TORSDOF 10
ENDMDL
MODEL 5
REMARK VINA RESULT:      -5.8      1.177      1.621
REMARK  Name = 
REMARK  15 active torsions:
REMARK  status: ('A' for Active; 'I' for Inactive)
REMARK    1  A    between atoms: C_1  and  C_2
REMARK    2  A    between atoms: C_2  and  C_3
REMARK    3  A    between atoms: C_3  and  C_4
REMARK    4  A    between atoms: C_4  and  C_5
REMARK    5  A    between atoms: C_5  and  C_6
REMARK    6  A    between atoms: C_6  and  C_7
REMARK    7  A    between atoms: C_7  and  C_8
REMARK    8  A    between atoms: C_13  and  O_14
REMARK    9  A    between atoms: C_15  and  C_16
REMARK   10  A    between atoms: C_16  and  C_17
REMARK   11  A    between atoms: N_23  and  C_24
REMARK   12  A    between atoms: C_27  and  C_28
REMARK   13  A    between atoms: C_28  and  C_29
REMARK   14  A    between atoms: C_28  and  C_30
REMARK   15  A    between atoms: C_34  and  C_35
REMARK                            x       y       z     vdW  Elec       q    Type
REMARK                         _______ _______ _______ _____ _____    ______ ____
ROOT
ATOM      1  C   UNL     1       0.450  10.142  20.016  0.00  0.00    +0.000 C 
ATOM      2  O   UNL     1       1.415  11.134  19.607  0.00  0.00    +0.000 OA
ATOM      3  C   UNL     1       1.936  11.032  18.362  0.00  0.00    +0.000 C 
ATOM      4  O   UNL     1       1.896  10.050  17.632  0.00  0.00    +0.000 OA
ATOM      5  C   UNL     1       2.631  12.317  18.018  0.00  0.00    +0.000 C 
ATOM      6  C   UNL     1       1.846  13.619  18.251  0.00  0.00    +0.000 C 
ATOM      7  C   UNL     1       1.951  14.428  19.625  0.00  0.00    +0.000 C 
ATOM      8  N   UNL     1       0.624  14.425  20.326  0.00  0.00    +0.000 N 
ATOM      9  C   UNL     1      -0.327  15.434  19.834  0.00  0.00    +0.000 C 
ATOM     10  C   UNL     1       0.554  14.298  21.724  0.00  0.00    +0.000 C 
ATOM     11  O   UNL     1       1.370  14.787  22.499  0.00  0.00    +0.000 OA
ATOM     12  C   UNL     1      -0.598  13.395  22.185  0.00  0.00    +0.000 C 
ATOM     13  O   UNL     1       0.165  12.208  22.531  0.00  0.00    +0.000 OA
ATOM     14  C   UNL     1      -0.408  11.028  22.220  0.00  0.00    +0.000 C 
ATOM     15  O   UNL     1      -1.593  10.771  22.317  0.00  0.00    +0.000 OA
ATOM     16  C   UNL     1       0.590  10.088  21.566  0.00  0.00    +0.000 C 
ATOM     17  C   UNL     1       0.422   8.682  22.140  0.00  0.00    +0.000 C 
ENDROOT
BRANCH  12  18
ATOM     18  C   UNL     1      -1.408  14.021  23.330  0.00  0.00    +0.000 C 
ATOM     19  C   UNL     1      -2.831  13.461  23.401  0.00  0.00    +0.000 C 
ATOM     20  C   UNL     1      -1.509  15.543  23.143  0.00  0.00    +0.000 C 
ENDBRANCH  12  18
BRANCH   6  21
ATOM     21  O   UNL     1       0.462  13.438  17.890  0.00  0.00    +0.000 OA
ATOM     22  H   UNL     1       0.276  14.149  17.254  0.00  0.00    +0.000 HD
ENDBRANCH   6  21
BRANCH   1  23
ATOM     23  C   UNL     1      -0.908  10.654  19.489  0.00  0.00    +0.000 C 
BRANCH  23  24
ATOM     24  C   UNL     1      -1.400  10.080  18.151  0.00  0.00    +0.000 C 
BRANCH  24  25
ATOM     25  C   UNL     1      -2.195  11.069  17.311  0.00  0.00    +0.000 C 
BRANCH  25  26
ATOM     26  C   UNL     1      -3.468  10.415  16.809  0.00  0.00    +0.000 C 
BRANCH  26  27
ATOM     27  C   UNL     1      -4.574  11.425  16.593  0.00  0.00    +0.000 C 
BRANCH  27  29
ATOM     28  C   UNL     1      -6.386  11.053  18.279  0.00  0.00    +0.000 C 
ATOM     29  C   UNL     1      -5.130  11.831  17.952  0.00  0.00    +0.000 C 
ENDBRANCH  27  29
ENDBRANCH  26  27
ENDBRANCH  25  26
ENDBRANCH  24  25
ENDBRANCH  23  24
ENDBRANCH   1  23
BRANCH   7  30
ATOM     30  C   UNL     1       3.214  14.097  20.478  0.00  0.00    +0.000 C 
BRANCH  30  31
ATOM     31  C   UNL     1       4.400  15.005  20.199  0.00  0.00    +0.000 A 
ATOM     32  C   UNL     1       5.580  14.913  20.947  0.00  0.00    +0.000 A 
ATOM     33  C   UNL     1       6.513  15.948  20.918  0.00  0.00    +0.000 A 
ATOM     34  C   UNL     1       6.307  17.047  20.089  0.00  0.00    +0.000 A 
ATOM     35  C   UNL     1       5.201  17.085  19.241  0.00  0.00    +0.000 A 
ATOM     36  C   UNL     1       4.260  16.055  19.276  0.00  0.00    +0.000 A 
ENDBRANCH  30  31
ENDBRANCH   7  30
TORSDOF 10
ENDMDL
MODEL 6
REMARK VINA RESULT:      -5.8      1.425      1.673
REMARK  Name = 
REMARK  15 active torsions:
REMARK  status: ('A' for Active; 'I' for Inactive)
REMARK    1  A    between atoms: C_1  and  C_2
REMARK    2  A    between atoms: C_2  and  C_3
REMARK    3  A    between atoms: C_3  and  C_4
REMARK    4  A    between atoms: C_4  and  C_5
REMARK    5  A    between atoms: C_5  and  C_6
REMARK    6  A    between atoms: C_6  and  C_7
REMARK    7  A    between atoms: C_7  and  C_8
REMARK    8  A    between atoms: C_13  and  O_14
REMARK    9  A    between atoms: C_15  and  C_16
REMARK   10  A    between atoms: C_16  and  C_17
REMARK   11  A    between atoms: N_23  and  C_24
REMARK   12  A    between atoms: C_27  and  C_28
REMARK   13  A    between atoms: C_28  and  C_29
REMARK   14  A    between atoms: C_28  and  C_30
REMARK   15  A    between atoms: C_34  and  C_35
REMARK                            x       y       z     vdW  Elec       q    Type
REMARK                         _______ _______ _______ _____ _____    ______ ____
ROOT
ATOM      1  C   UNL     1       0.377  11.917  20.193  0.00  0.00    +0.000 C 
ATOM      2  O   UNL     1       1.516  12.795  20.074  0.00  0.00    +0.000 OA
ATOM      3  C   UNL     1       2.246  12.732  18.937  0.00  0.00    +0.000 C 
ATOM      4  O   UNL     1       2.225  11.835  18.105  0.00  0.00    +0.000 OA
ATOM      5  C   UNL     1       3.146  13.931  18.868  0.00  0.00    +0.000 C 
ATOM      6  C   UNL     1       2.496  15.305  19.106  0.00  0.00    +0.000 C 
ATOM      7  C   UNL     1       2.438  15.966  20.560  0.00  0.00    +0.000 C 
ATOM      8  N   UNL     1       1.013  16.088  21.012  0.00  0.00    +0.000 N 
ATOM      9  C   UNL     1       0.303  17.261  20.480  0.00  0.00    +0.000 C 
ATOM     10  C   UNL     1       0.665  15.848  22.353  0.00  0.00    +0.000 C 
ATOM     11  O   UNL     1       1.373  16.146  23.310  0.00  0.00    +0.000 OA
ATOM     12  C   UNL     1      -0.655  15.079  22.499  0.00  0.00    +0.000 C 
ATOM     13  O   UNL     1      -0.123  13.770  22.837  0.00  0.00    +0.000 OA
ATOM     14  C   UNL     1      -0.767  12.716  22.298  0.00  0.00    +0.000 C 
ATOM     15  O   UNL     1      -1.971  12.620  22.156  0.00  0.00    +0.000 OA
ATOM     16  C   UNL     1       0.215  11.706  21.727  0.00  0.00    +0.000 C 
ATOM     17  C   UNL     1      -0.230  10.292  22.100  0.00  0.00    +0.000 C 
ENDROOT
BRANCH  12  18
ATOM     18  C   UNL     1      -1.584  15.709  23.548  0.00  0.00    +0.000 C 
ATOM     19  C   UNL     1      -1.546  14.953  24.878  0.00  0.00    +0.000 C 
ATOM     20  C   UNL     1      -3.036  15.707  23.045  0.00  0.00    +0.000 C 
ENDBRANCH  12  18
BRANCH   6  21
ATOM     21  O   UNL     1       1.194  15.355  18.489  0.00  0.00    +0.000 OA
ATOM     22  H   UNL     1       0.791  14.493  18.691  0.00  0.00    +0.000 HD
ENDBRANCH   6  21
BRANCH   1  23
ATOM     23  C   UNL     1      -0.783  12.661  19.498  0.00  0.00    +0.000 C 
BRANCH  23  24
ATOM     24  C   UNL     1      -1.368  12.015  18.231  0.00  0.00    +0.000 C 
BRANCH  24  25
ATOM     25  C   UNL     1      -1.124  10.516  18.134  0.00  0.00    +0.000 C 
BRANCH  25  26
ATOM     26  C   UNL     1      -2.118   9.892  17.173  0.00  0.00    +0.000 C 
BRANCH  26  27
ATOM     27  C   UNL     1      -3.458  10.595  17.212  0.00  0.00    +0.000 C 
BRANCH  27  29
ATOM     28  C   UNL     1      -2.958  10.208  14.791  0.00  0.00    +0.000 C 
ATOM     29  C   UNL     1      -3.943  10.788  15.780  0.00  0.00    +0.000 C 
ENDBRANCH  27  29
ENDBRANCH  26  27
ENDBRANCH  25  26
ENDBRANCH  24  25
ENDBRANCH  23  24
ENDBRANCH   1  23
BRANCH   7  30
ATOM     30  C   UNL     1       3.467  15.386  21.578  0.00  0.00    +0.000 C 
BRANCH  30  31
ATOM     31  C   UNL     1       4.887  15.889  21.373  0.00  0.00    +0.000 A 
ATOM     32  C   UNL     1       5.149  17.236  21.094  0.00  0.00    +0.000 A 
ATOM     33  C   UNL     1       6.386  17.619  20.581  0.00  0.00    +0.000 A 
ATOM     34  C   UNL     1       7.392  16.671  20.409  0.00  0.00    +0.000 A 
ATOM     35  C   UNL     1       7.184  15.352  20.808  0.00  0.00    +0.000 A 
ATOM     36  C   UNL     1       5.942  14.963  21.313  0.00  0.00    +0.000 A 
ENDBRANCH  30  31
ENDBRANCH   7  30
TORSDOF 10
ENDMDL
MODEL 7
REMARK VINA RESULT:      -5.7      1.313      1.590
REMARK  Name = 
REMARK  15 active torsions:
REMARK  status: ('A' for Active; 'I' for Inactive)
REMARK    1  A    between atoms: C_1  and  C_2
REMARK    2  A    between atoms: C_2  and  C_3
REMARK    3  A    between atoms: C_3  and  C_4
REMARK    4  A    between atoms: C_4  and  C_5
REMARK    5  A    between atoms: C_5  and  C_6
REMARK    6  A    between atoms: C_6  and  C_7
REMARK    7  A    between atoms: C_7  and  C_8
REMARK    8  A    between atoms: C_13  and  O_14
REMARK    9  A    between atoms: C_15  and  C_16
REMARK   10  A    between atoms: C_16  and  C_17
REMARK   11  A    between atoms: N_23  and  C_24
REMARK   12  A    between atoms: C_27  and  C_28
REMARK   13  A    between atoms: C_28  and  C_29
REMARK   14  A    between atoms: C_28  and  C_30
REMARK   15  A    between atoms: C_34  and  C_35
REMARK                            x       y       z     vdW  Elec       q    Type
REMARK                         _______ _______ _______ _____ _____    ______ ____
ROOT
ATOM      1  C   UNL     1      -0.319  11.389  20.818  0.00  0.00    +0.000 C 
ATOM      2  O   UNL     1       0.782  12.277  20.532  0.00  0.00    +0.000 OA
ATOM      3  C   UNL     1       1.459  12.091  19.375  0.00  0.00    +0.000 C 
ATOM      4  O   UNL     1       1.428  11.095  18.664  0.00  0.00    +0.000 OA
ATOM      5  C   UNL     1       2.312  13.296  19.110  0.00  0.00    +0.000 C 
ATOM      6  C   UNL     1       1.628  14.670  19.208  0.00  0.00    +0.000 C 
ATOM      7  C   UNL     1       1.617  15.508  20.569  0.00  0.00    +0.000 C 
ATOM      8  N   UNL     1       0.211  15.646  21.075  0.00  0.00    +0.000 N 
ATOM      9  C   UNL     1      -0.563  16.722  20.438  0.00  0.00    +0.000 C 
ATOM     10  C   UNL     1      -0.064  15.568  22.451  0.00  0.00    +0.000 C 
ATOM     11  O   UNL     1       0.679  16.005  23.326  0.00  0.00    +0.000 OA
ATOM     12  C   UNL     1      -1.348  14.787  22.761  0.00  0.00    +0.000 C 
ATOM     13  O   UNL     1      -0.756  13.547  23.232  0.00  0.00    +0.000 OA
ATOM     14  C   UNL     1      -1.388  12.415  22.864  0.00  0.00    +0.000 C 
ATOM     15  O   UNL     1      -2.594  12.269  22.796  0.00  0.00    +0.000 OA
ATOM     16  C   UNL     1      -0.401  11.369  22.373  0.00  0.00    +0.000 C 
ATOM     17  C   UNL     1      -0.779  10.002  22.942  0.00  0.00    +0.000 C 
ENDROOT
BRANCH  12  18
ATOM     18  C   UNL     1      -2.247  15.519  23.769  0.00  0.00    +0.000 C 
ATOM     19  C   UNL     1      -2.106  14.950  25.183  0.00  0.00    +0.000 C 
ATOM     20  C   UNL     1      -3.722  15.397  23.356  0.00  0.00    +0.000 C 
ENDBRANCH  12  18
BRANCH   6  21
ATOM     21  O   UNL     1       0.296  14.605  18.658  0.00  0.00    +0.000 OA
ATOM     22  H   UNL     1       0.411  14.783  17.709  0.00  0.00    +0.000 HD
ENDBRANCH   6  21
BRANCH   1  23
ATOM     23  C   UNL     1      -1.537  12.006  20.096  0.00  0.00    +0.000 C 
BRANCH  23  24
ATOM     24  C   UNL     1      -1.784  11.567  18.644  0.00  0.00    +0.000 C 
BRANCH  24  25
ATOM     25  C   UNL     1      -1.859  10.058  18.460  0.00  0.00    +0.000 C 
BRANCH  25  26
ATOM     26  C   UNL     1      -2.994   9.708  17.516  0.00  0.00    +0.000 C 
BRANCH  26  27
ATOM     27  C   UNL     1      -3.790  10.931  17.113  0.00  0.00    +0.000 C 
BRANCH  27  29
ATOM     28  C   UNL     1      -2.895  10.042  14.952  0.00  0.00    +0.000 C 
ATOM     29  C   UNL     1      -3.931  10.937  15.596  0.00  0.00    +0.000 C 
ENDBRANCH  27  29
ENDBRANCH  26  27
ENDBRANCH  25  26
ENDBRANCH  24  25
ENDBRANCH  23  24
ENDBRANCH   1  23
BRANCH   7  30
ATOM     30  C   UNL     1       2.713  15.090  21.597  0.00  0.00    +0.000 C 
BRANCH  30  31
ATOM     31  C   UNL     1       4.104  15.595  21.253  0.00  0.00    +0.000 A 
ATOM     32  C   UNL     1       5.246  14.835  21.535  0.00  0.00    +0.000 A 
ATOM     33  C   UNL     1       6.505  15.431  21.532  0.00  0.00    +0.000 A 
ATOM     34  C   UNL     1       6.639  16.771  21.179  0.00  0.00    +0.000 A 
ATOM     35  C   UNL     1       5.525  17.500  20.768  0.00  0.00    +0.000 A 
ATOM     36  C   UNL     1       4.261  16.909  20.780  0.00  0.00    +0.000 A 
ENDBRANCH  30  31
ENDBRANCH   7  30
TORSDOF 10
ENDMDL
MODEL 8
REMARK VINA RESULT:      -5.7      2.729      6.235
REMARK  Name = 
REMARK  15 active torsions:
REMARK  status: ('A' for Active; 'I' for Inactive)
REMARK    1  A    between atoms: C_1  and  C_2
REMARK    2  A    between atoms: C_2  and  C_3
REMARK    3  A    between atoms: C_3  and  C_4
REMARK    4  A    between atoms: C_4  and  C_5
REMARK    5  A    between atoms: C_5  and  C_6
REMARK    6  A    between atoms: C_6  and  C_7
REMARK    7  A    between atoms: C_7  and  C_8
REMARK    8  A    between atoms: C_13  and  O_14
REMARK    9  A    between atoms: C_15  and  C_16
REMARK   10  A    between atoms: C_16  and  C_17
REMARK   11  A    between atoms: N_23  and  C_24
REMARK   12  A    between atoms: C_27  and  C_28
REMARK   13  A    between atoms: C_28  and  C_29
REMARK   14  A    between atoms: C_28  and  C_30
REMARK   15  A    between atoms: C_34  and  C_35
REMARK                            x       y       z     vdW  Elec       q    Type
REMARK                         _______ _______ _______ _____ _____    ______ ____
ROOT
ATOM      1  C   UNL     1      -1.752  15.381  22.128  0.00  0.00    +0.000 C 
ATOM      2  O   UNL     1      -1.578  14.112  21.464  0.00  0.00    +0.000 OA
ATOM      3  C   UNL     1      -2.628  13.613  20.772  0.00  0.00    +0.000 C 
ATOM      4  O   UNL     1      -3.796  13.969  20.859  0.00  0.00    +0.000 OA
ATOM      5  C   UNL     1      -2.147  12.494  19.895  0.00  0.00    +0.000 C 
ATOM      6  C   UNL     1      -0.912  12.776  19.021  0.00  0.00    +0.000 C 
ATOM      7  C   UNL     1       0.567  12.444  19.526  0.00  0.00    +0.000 C 
ATOM      8  N   UNL     1       1.355  13.712  19.673  0.00  0.00    +0.000 N 
ATOM      9  C   UNL     1       1.927  14.224  18.417  0.00  0.00    +0.000 C 
ATOM     10  C   UNL     1       2.251  13.878  20.744  0.00  0.00    +0.000 C 
ATOM     11  O   UNL     1       2.933  12.973  21.214  0.00  0.00    +0.000 OA
ATOM     12  C   UNL     1       2.217  15.292  21.338  0.00  0.00    +0.000 C 
ATOM     13  O   UNL     1       1.467  15.014  22.551  0.00  0.00    +0.000 OA
ATOM     14  C   UNL     1       0.576  15.955  22.922  0.00  0.00    +0.000 C 
ATOM     15  O   UNL     1       0.740  17.157  22.833  0.00  0.00    +0.000 OA
ATOM     16  C   UNL     1      -0.750  15.330  23.320  0.00  0.00    +0.000 C 
ATOM     17  C   UNL     1      -1.277  16.008  24.584  0.00  0.00    +0.000 C 
ENDROOT
BRANCH  12  18
ATOM     18  C   UNL     1       3.624  15.872  21.545  0.00  0.00    +0.000 C 
ATOM     19  C   UNL     1       4.037  15.866  23.019  0.00  0.00    +0.000 C 
ATOM     20  C   UNL     1       3.683  17.324  21.045  0.00  0.00    +0.000 C 
ENDBRANCH  12  18
BRANCH   6  21
ATOM     21  O   UNL     1      -0.967  14.119  18.499  0.00  0.00    +0.000 OA
ATOM     22  H   UNL     1      -0.903  14.692  19.282  0.00  0.00    +0.000 HD
ENDBRANCH   6  21
BRANCH   1  23
ATOM     23  C   UNL     1      -1.452  16.447  21.053  0.00  0.00    +0.000 C 
BRANCH  23  24
ATOM     24  C   UNL     1      -2.586  17.423  20.701  0.00  0.00    +0.000 C 
BRANCH  24  25
ATOM     25  C   UNL     1      -2.632  17.809  19.230  0.00  0.00    +0.000 C 
BRANCH  25  26
ATOM     26  C   UNL     1      -1.249  17.687  18.619  0.00  0.00    +0.000 C 
BRANCH  26  27
ATOM     27  C   UNL     1      -1.063  18.631  17.451  0.00  0.00    +0.000 C 
BRANCH  27  29
ATOM     28  C   UNL     1       1.326  17.914  17.655  0.00  0.00    +0.000 C 
ATOM     29  C   UNL     1       0.198  18.224  16.697  0.00  0.00    +0.000 C 
ENDBRANCH  27  29
ENDBRANCH  26  27
ENDBRANCH  25  26
ENDBRANCH  24  25
ENDBRANCH  23  24
ENDBRANCH   1  23
BRANCH   7  30
ATOM     30  C   UNL     1       0.639  11.415  20.696  0.00  0.00    +0.000 C 
BRANCH  30  31
ATOM     31  C   UNL     1       0.941   9.995  20.248  0.00  0.00    +0.000 A 
ATOM     32  C   UNL     1       1.037   8.945  21.169  0.00  0.00    +0.000 A 
ATOM     33  C   UNL     1       1.637   7.742  20.804  0.00  0.00    +0.000 A 
ATOM     34  C   UNL     1       2.082   7.555  19.498  0.00  0.00    +0.000 A 
ATOM     35  C   UNL     1       1.870   8.545  18.539  0.00  0.00    +0.000 A 
ATOM     36  C   UNL     1       1.278   9.755  18.905  0.00  0.00    +0.000 A 
ENDBRANCH  30  31
ENDBRANCH   7  30
TORSDOF 10
ENDMDL
MODEL 9
REMARK VINA RESULT:      -5.7      1.067      1.380
REMARK  Name = 
REMARK  15 active torsions:
REMARK  status: ('A' for Active; 'I' for Inactive)
REMARK    1  A    between atoms: C_1  and  C_2
REMARK    2  A    between atoms: C_2  and  C_3
REMARK    3  A    between atoms: C_3  and  C_4
REMARK    4  A    between atoms: C_4  and  C_5
REMARK    5  A    between atoms: C_5  and  C_6
REMARK    6  A    between atoms: C_6  and  C_7
REMARK    7  A    between atoms: C_7  and  C_8
REMARK    8  A    between atoms: C_13  and  O_14
REMARK    9  A    between atoms: C_15  and  C_16
REMARK   10  A    between atoms: C_16  and  C_17
REMARK   11  A    between atoms: N_23  and  C_24
REMARK   12  A    between atoms: C_27  and  C_28
REMARK   13  A    between atoms: C_28  and  C_29
REMARK   14  A    between atoms: C_28  and  C_30
REMARK   15  A    between atoms: C_34  and  C_35
REMARK                            x       y       z     vdW  Elec       q    Type
REMARK                         _______ _______ _______ _____ _____    ______ ____
ROOT
ATOM      1  C   UNL     1       0.099  10.750  20.577  0.00  0.00    +0.000 C 
ATOM      2  O   UNL     1       1.077  11.735  20.183  0.00  0.00    +0.000 OA
ATOM      3  C   UNL     1       1.649  11.604  18.964  0.00  0.00    +0.000 C 
ATOM      4  O   UNL     1       1.643  10.605  18.258  0.00  0.00    +0.000 OA
ATOM      5  C   UNL     1       2.355  12.883  18.616  0.00  0.00    +0.000 C 
ATOM      6  C   UNL     1       1.556  14.187  18.784  0.00  0.00    +0.000 C 
ATOM      7  C   UNL     1       1.602  15.031  20.140  0.00  0.00    +0.000 C 
ATOM      8  N   UNL     1       0.248  15.040  20.785  0.00  0.00    +0.000 N 
ATOM      9  C   UNL     1      -0.685  16.032  20.230  0.00  0.00    +0.000 C 
ATOM     10  C   UNL     1       0.120  14.948  22.182  0.00  0.00    +0.000 C 
ATOM     11  O   UNL     1       0.902  15.459  22.978  0.00  0.00    +0.000 OA
ATOM     12  C   UNL     1      -1.047  14.051  22.618  0.00  0.00    +0.000 C 
ATOM     13  O   UNL     1      -0.296  12.877  23.025  0.00  0.00    +0.000 OA
ATOM     14  C   UNL     1      -0.852  11.687  22.721  0.00  0.00    +0.000 C 
ATOM     15  O   UNL     1      -2.039  11.427  22.775  0.00  0.00    +0.000 OA
ATOM     16  C   UNL     1       0.176  10.735  22.132  0.00  0.00    +0.000 C 
ATOM     17  C   UNL     1      -0.012   9.343  22.734  0.00  0.00    +0.000 C 
ENDROOT
BRANCH  12  18
ATOM     18  C   UNL     1      -1.906  14.703  23.712  0.00  0.00    +0.000 C 
ATOM     19  C   UNL     1      -3.146  13.868  24.043  0.00  0.00    +0.000 C 
ATOM     20  C   UNL     1      -2.379  16.094  23.263  0.00  0.00    +0.000 C 
ENDBRANCH  12  18
BRANCH   6  21
ATOM     21  O   UNL     1       0.189  13.991  18.371  0.00  0.00    +0.000 OA
ATOM     22  H   UNL     1      -0.150  14.887  18.202  0.00  0.00    +0.000 HD
ENDBRANCH   6  21
BRANCH   1  23
ATOM     23  C   UNL     1      -1.237  11.243  19.982  0.00  0.00    +0.000 C 
BRANCH  23  24
ATOM     24  C   UNL     1      -1.791  10.471  18.773  0.00  0.00    +0.000 C 
BRANCH  24  25
ATOM     25  C   UNL     1      -2.076  11.346  17.561  0.00  0.00    +0.000 C 
BRANCH  25  26
ATOM     26  C   UNL     1      -2.756  10.527  16.481  0.00  0.00    +0.000 C 
BRANCH  26  27
ATOM     27  C   UNL     1      -4.096  11.112  16.089  0.00  0.00    +0.000 C 
BRANCH  27  29
ATOM     28  C   UNL     1      -5.898  12.487  17.151  0.00  0.00    +0.000 C 
ATOM     29  C   UNL     1      -4.902  11.367  17.357  0.00  0.00    +0.000 C 
ENDBRANCH  27  29
ENDBRANCH  26  27
ENDBRANCH  25  26
ENDBRANCH  24  25
ENDBRANCH  23  24
ENDBRANCH   1  23
BRANCH   7  30
ATOM     30  C   UNL     1       2.830  14.727  21.053  0.00  0.00    +0.000 C 
BRANCH  30  31
ATOM     31  C   UNL     1       4.001  15.672  20.844  0.00  0.00    +0.000 A 
ATOM     32  C   UNL     1       3.929  17.017  21.226  0.00  0.00    +0.000 A 
ATOM     33  C   UNL     1       4.851  17.938  20.734  0.00  0.00    +0.000 A 
ATOM     34  C   UNL     1       5.892  17.510  19.914  0.00  0.00    +0.000 A 
ATOM     35  C   UNL     1       6.049  16.153  19.637  0.00  0.00    +0.000 A 
ATOM     36  C   UNL     1       5.121  15.229  20.120  0.00  0.00    +0.000 A 
ENDBRANCH  30  31
ENDBRANCH   7  30
TORSDOF 10
ENDMDL
