MODEL 1
REMARK VINA RESULT:      -5.9      0.000      0.000
REMARK  Name = 
REMARK  8 active torsions:
REMARK  status: ('A' for Active; 'I' for Inactive)
REMARK    1  A    between atoms: C_1  and  N_2
REMARK    2  A    between atoms: N_2  and  C_3
REMARK    3  A    between atoms: N_2  and  C_4
REMARK    4  A    between atoms: C_4  and  C_5
REMARK    5  A    between atoms: C_5  and  C_6
REMARK    6  A    between atoms: C_6  and  N_7
REMARK    7  A    between atoms: C_11  and  C_12
REMARK    8  A    between atoms: C_11  and  C_18
REMARK                            x       y       z     vdW  Elec       q    Type
REMARK                         _______ _______ _______ _____ _____    ______ ____
ROOT
ATOM      1  N   UNL     1      -0.715  11.568  19.554  0.00  0.00    +0.000 N 
ATOM      2  C   UNL     1      -1.379  12.286  20.488  0.00  0.00    +0.000 C 
ATOM      3  O   UNL     1      -0.855  12.720  21.504  0.00  0.00    +0.000 OA
ATOM      4  C   UNL     1      -2.799  12.463  20.108  0.00  0.00    +0.000 C 
ATOM      5  C   UNL     1      -3.753  13.103  20.833  0.00  0.00    +0.000 C 
ATOM      6  C   UNL     1      -2.894  11.772  18.803  0.00  0.00    +0.000 A 
ATOM      7  C   UNL     1      -3.957  11.597  17.907  0.00  0.00    +0.000 A 
ATOM      8  C   UNL     1      -3.729  10.867  16.728  0.00  0.00    +0.000 A 
ATOM      9  F   UNL     1      -4.734  10.688  15.837  0.00  0.00    +0.000 F 
ATOM     10  C   UNL     1      -2.462  10.312  16.467  0.00  0.00    +0.000 A 
ATOM     11  C   UNL     1      -1.407  10.490  17.372  0.00  0.00    +0.000 A 
ATOM     12  C   UNL     1      -1.639  11.241  18.530  0.00  0.00    +0.000 A 
ENDROOT
BRANCH   5  13
ATOM     13  C   UNL     1      -5.166  13.175  20.420  0.00  0.00    +0.000 A 
ATOM     14  C   UNL     1      -6.027  12.106  20.717  0.00  0.00    +0.000 A 
ATOM     15  C   UNL     1      -7.377  12.170  20.360  0.00  0.00    +0.000 A 
ATOM     16  C   UNL     1      -7.875  13.302  19.709  0.00  0.00    +0.000 A 
ATOM     17  C   UNL     1      -7.024  14.371  19.416  0.00  0.00    +0.000 A 
ATOM     18  C   UNL     1      -5.670  14.313  19.772  0.00  0.00    +0.000 A 
ENDBRANCH   5  13
BRANCH   5  19
ATOM     19  C   UNL     1      -3.415  13.684  22.145  0.00  0.00    +0.000 A 
ATOM     20  C   UNL     1      -3.645  13.100  23.373  0.00  0.00    +0.000 A 
ATOM     21  C   UNL     1      -3.206  14.005  24.319  0.00  0.00    +0.000 A 
ATOM     22  C   UNL     1      -2.724  15.100  23.626  0.00  0.00    +0.000 A 
ATOM     23  N   UNL     1      -2.857  14.899  22.303  0.00  0.00    +0.000 N 
ATOM     24  H   UNL     1      -2.581  15.562  21.545  0.00  0.00    +0.000 HD
ENDBRANCH   5  19
BRANCH   1  25
ATOM     25  C   UNL     1       0.702  11.224  19.622  0.00  0.00    +0.000 C 
BRANCH  25  26
ATOM     26  C   UNL     1       0.931   9.818  20.202  0.00  0.00    +0.000 C 
BRANCH  26  27
ATOM     27  C   UNL     1       1.244   9.838  21.711  0.00  0.00    +0.000 C 
BRANCH  27  29
ATOM     28  C   UNL     1      -0.621   9.955  23.303  0.00  0.00    +0.000 C 
ATOM     29  N   UNL     1       0.249   9.073  22.499  0.00  0.00    +0.000 NA
ATOM     30  C   UNL     1      -0.591   8.275  21.591  0.00  0.00    +0.000 C 
ENDBRANCH  27  29
ENDBRANCH  26  27
ENDBRANCH  25  26
ENDBRANCH   1  25
TORSDOF 6
ENDMDL
MODEL 2
REMARK VINA RESULT:      -5.9      1.424      2.056
REMARK  Name = 
REMARK  8 active torsions:
REMARK  status: ('A' for Active; 'I' for Inactive)
REMARK    1  A    between atoms: C_1  and  N_2
REMARK    2  A    between atoms: N_2  and  C_3
REMARK    3  A    between atoms: N_2  and  C_4
REMARK    4  A    between atoms: C_4  and  C_5
REMARK    5  A    between atoms: C_5  and  C_6
REMARK    6  A    between atoms: C_6  and  N_7
REMARK    7  A    between atoms: C_11  and  C_12
REMARK    8  A    between atoms: C_11  and  C_18
REMARK                            x       y       z     vdW  Elec       q    Type
REMARK                         _______ _______ _______ _____ _____    ______ ____
ROOT
ATOM      1  N   UNL     1      -0.960  11.093  19.953  0.00  0.00    +0.000 N 
ATOM      2  C   UNL     1      -1.725  11.795  20.818  0.00  0.00    +0.000 C 
ATOM      3  O   UNL     1      -1.356  12.113  21.940  0.00  0.00    +0.000 OA
ATOM      4  C   UNL     1      -3.042  12.114  20.223  0.00  0.00    +0.000 C 
ATOM      5  C   UNL     1      -4.061  12.776  20.829  0.00  0.00    +0.000 C 
ATOM      6  C   UNL     1      -2.957  11.526  18.868  0.00  0.00    +0.000 A 
ATOM      7  C   UNL     1      -3.859  11.501  17.795  0.00  0.00    +0.000 A 
ATOM      8  C   UNL     1      -3.481  10.838  16.614  0.00  0.00    +0.000 A 
ATOM      9  F   UNL     1      -4.327  10.805  15.556  0.00  0.00    +0.000 F 
ATOM     10  C   UNL     1      -2.229  10.202  16.524  0.00  0.00    +0.000 A 
ATOM     11  C   UNL     1      -1.337  10.230  17.604  0.00  0.00    +0.000 A 
ATOM     12  C   UNL     1      -1.713  10.914  18.765  0.00  0.00    +0.000 A 
ENDROOT
BRANCH   5  13
ATOM     13  C   UNL     1      -5.373  12.992  20.193  0.00  0.00    +0.000 A 
ATOM     14  C   UNL     1      -5.628  14.204  19.531  0.00  0.00    +0.000 A 
ATOM     15  C   UNL     1      -6.855  14.416  18.897  0.00  0.00    +0.000 A 
ATOM     16  C   UNL     1      -7.833  13.417  18.916  0.00  0.00    +0.000 A 
ATOM     17  C   UNL     1      -7.584  12.207  19.570  0.00  0.00    +0.000 A 
ATOM     18  C   UNL     1      -6.355  11.990  20.207  0.00  0.00    +0.000 A 
ENDBRANCH   5  13
BRANCH   5  19
ATOM     19  C   UNL     1      -3.916  13.235  22.222  0.00  0.00    +0.000 A 
ATOM     20  C   UNL     1      -3.567  14.508  22.622  0.00  0.00    +0.000 A 
ATOM     21  C   UNL     1      -3.516  14.478  24.002  0.00  0.00    +0.000 A 
ATOM     22  C   UNL     1      -3.838  13.190  24.383  0.00  0.00    +0.000 A 
ATOM     23  N   UNL     1      -4.078  12.438  23.294  0.00  0.00    +0.000 N 
ATOM     24  H   UNL     1      -4.338  11.426  23.285  0.00  0.00    +0.000 HD
ENDBRANCH   5  19
BRANCH   1  25
ATOM     25  C   UNL     1       0.397  10.630  20.228  0.00  0.00    +0.000 C 
BRANCH  25  26
ATOM     26  C   UNL     1       0.427   9.169  20.704  0.00  0.00    +0.000 C 
BRANCH  26  27
ATOM     27  C   UNL     1       1.796   8.496  20.485  0.00  0.00    +0.000 C 
BRANCH  27  29
ATOM     28  C   UNL     1       2.355   8.445  18.095  0.00  0.00    +0.000 C 
ATOM     29  N   UNL     1       1.829   7.683  19.246  0.00  0.00    +0.000 NA
ATOM     30  C   UNL     1       2.673   6.496  19.458  0.00  0.00    +0.000 C 
ENDBRANCH  27  29
ENDBRANCH  26  27
ENDBRANCH  25  26
ENDBRANCH   1  25
TORSDOF 6
ENDMDL
MODEL 3
REMARK VINA RESULT:      -5.9      1.338      2.413
REMARK  Name = 
REMARK  8 active torsions:
REMARK  status: ('A' for Active; 'I' for Inactive)
REMARK    1  A    between atoms: C_1  and  N_2
REMARK    2  A    between atoms: N_2  and  C_3
REMARK    3  A    between atoms: N_2  and  C_4
REMARK    4  A    between atoms: C_4  and  C_5
REMARK    5  A    between atoms: C_5  and  C_6
REMARK    6  A    between atoms: C_6  and  N_7
REMARK    7  A    between atoms: C_11  and  C_12
REMARK    8  A    between atoms: C_11  and  C_18
REMARK                            x       y       z     vdW  Elec       q    Type
REMARK                         _______ _______ _______ _____ _____    ______ ____
ROOT
ATOM      1  N   UNL     1      -0.796  11.341  19.781  0.00  0.00    +0.000 N 
ATOM      2  C   UNL     1      -1.501  12.053  20.688  0.00  0.00    +0.000 C 
ATOM      3  O   UNL     1      -1.037  12.435  21.753  0.00  0.00    +0.000 OA
ATOM      4  C   UNL     1      -2.882  12.295  20.214  0.00  0.00    +0.000 C 
ATOM      5  C   UNL     1      -3.863  12.946  20.892  0.00  0.00    +0.000 C 
ATOM      6  C   UNL     1      -2.907  11.649  18.883  0.00  0.00    +0.000 A 
ATOM      7  C   UNL     1      -3.907  11.542  17.908  0.00  0.00    +0.000 A 
ATOM      8  C   UNL     1      -3.619  10.841  16.724  0.00  0.00    +0.000 A 
ATOM      9  F   UNL     1      -4.563  10.728  15.758  0.00  0.00    +0.000 F 
ATOM     10  C   UNL     1      -2.357  10.248  16.536  0.00  0.00    +0.000 A 
ATOM     11  C   UNL     1      -1.365  10.358  17.519  0.00  0.00    +0.000 A 
ATOM     12  C   UNL     1      -1.654  11.080  18.683  0.00  0.00    +0.000 A 
ENDROOT
BRANCH   5  13
ATOM     13  C   UNL     1      -5.239  13.083  20.382  0.00  0.00    +0.000 A 
ATOM     14  C   UNL     1      -6.154  12.036  20.573  0.00  0.00    +0.000 A 
ATOM     15  C   UNL     1      -7.472  12.160  20.123  0.00  0.00    +0.000 A 
ATOM     16  C   UNL     1      -7.884  13.333  19.484  0.00  0.00    +0.000 A 
ATOM     17  C   UNL     1      -6.979  14.381  19.295  0.00  0.00    +0.000 A 
ATOM     18  C   UNL     1      -5.658  14.261  19.744  0.00  0.00    +0.000 A 
ENDBRANCH   5  13
BRANCH   5  19
ATOM     19  C   UNL     1      -3.601  13.473  22.243  0.00  0.00    +0.000 A 
ATOM     20  C   UNL     1      -3.966  12.873  23.430  0.00  0.00    +0.000 A 
ATOM     21  C   UNL     1      -3.554  13.726  24.435  0.00  0.00    +0.000 A 
ATOM     22  C   UNL     1      -2.953  14.806  23.817  0.00  0.00    +0.000 A 
ATOM     23  N   UNL     1      -2.987  14.646  22.482  0.00  0.00    +0.000 N 
ATOM     24  H   UNL     1      -2.611  15.310  21.769  0.00  0.00    +0.000 HD
ENDBRANCH   5  19
BRANCH   1  25
ATOM     25  C   UNL     1       0.600  10.942  19.937  0.00  0.00    +0.000 C 
BRANCH  25  26
ATOM     26  C   UNL     1       1.560  11.881  19.190  0.00  0.00    +0.000 C 
BRANCH  26  27
ATOM     27  C   UNL     1       2.042  13.059  20.059  0.00  0.00    +0.000 C 
BRANCH  27  29
ATOM     28  C   UNL     1       2.845  14.365  18.142  0.00  0.00    +0.000 C 
ATOM     29  N   UNL     1       1.977  14.351  19.337  0.00  0.00    +0.000 NA
ATOM     30  C   UNL     1       0.590  14.613  18.921  0.00  0.00    +0.000 C 
ENDBRANCH  27  29
ENDBRANCH  26  27
ENDBRANCH  25  26
ENDBRANCH   1  25
TORSDOF 6
ENDMDL
MODEL 4
REMARK VINA RESULT:      -5.9      1.404      2.474
REMARK  Name = 
REMARK  8 active torsions:
REMARK  status: ('A' for Active; 'I' for Inactive)
REMARK    1  A    between atoms: C_1  and  N_2
REMARK    2  A    between atoms: N_2  and  C_3
REMARK    3  A    between atoms: N_2  and  C_4
REMARK    4  A    between atoms: C_4  and  C_5
REMARK    5  A    between atoms: C_5  and  C_6
REMARK    6  A    between atoms: C_6  and  N_7
REMARK    7  A    between atoms: C_11  and  C_12
REMARK    8  A    between atoms: C_11  and  C_18
REMARK                            x       y       z     vdW  Elec       q    Type
REMARK                         _______ _______ _______ _____ _____    ______ ____
ROOT
ATOM      1  N   UNL     1      -0.920  11.202  19.999  0.00  0.00    +0.000 N 
ATOM      2  C   UNL     1      -1.702  11.894  20.858  0.00  0.00    +0.000 C 
ATOM      3  O   UNL     1      -1.340  12.231  21.976  0.00  0.00    +0.000 OA
ATOM      4  C   UNL     1      -3.026  12.177  20.259  0.00  0.00    +0.000 C 
ATOM      5  C   UNL     1      -4.060  12.821  20.859  0.00  0.00    +0.000 C 
ATOM      6  C   UNL     1      -2.927  11.578  18.909  0.00  0.00    +0.000 A 
ATOM      7  C   UNL     1      -3.827  11.522  17.837  0.00  0.00    +0.000 A 
ATOM      8  C   UNL     1      -3.433  10.858  16.662  0.00  0.00    +0.000 A 
ATOM      9  F   UNL     1      -4.277  10.795  15.604  0.00  0.00    +0.000 F 
ATOM     10  C   UNL     1      -2.166  10.250  16.578  0.00  0.00    +0.000 A 
ATOM     11  C   UNL     1      -1.276  10.309  17.658  0.00  0.00    +0.000 A 
ATOM     12  C   UNL     1      -1.669  10.995  18.813  0.00  0.00    +0.000 A 
ENDROOT
BRANCH   5  13
ATOM     13  C   UNL     1      -5.376  13.000  20.221  0.00  0.00    +0.000 A 
ATOM     14  C   UNL     1      -6.316  11.958  20.273  0.00  0.00    +0.000 A 
ATOM     15  C   UNL     1      -7.581  12.120  19.700  0.00  0.00    +0.000 A 
ATOM     16  C   UNL     1      -7.916  13.326  19.076  0.00  0.00    +0.000 A 
ATOM     17  C   UNL     1      -6.986  14.369  19.025  0.00  0.00    +0.000 A 
ATOM     18  C   UNL     1      -5.718  14.210  19.598  0.00  0.00    +0.000 A 
ENDBRANCH   5  13
BRANCH   5  19
ATOM     19  C   UNL     1      -3.926  13.296  22.248  0.00  0.00    +0.000 A 
ATOM     20  C   UNL     1      -3.635  14.587  22.636  0.00  0.00    +0.000 A 
ATOM     21  C   UNL     1      -3.572  14.569  24.016  0.00  0.00    +0.000 A 
ATOM     22  C   UNL     1      -3.830  13.269  24.408  0.00  0.00    +0.000 A 
ATOM     23  N   UNL     1      -4.043  12.499  23.326  0.00  0.00    +0.000 N 
ATOM     24  H   UNL     1      -4.254  11.476  23.325  0.00  0.00    +0.000 HD
ENDBRANCH   5  19
BRANCH   1  25
ATOM     25  C   UNL     1       0.447  10.774  20.278  0.00  0.00    +0.000 C 
BRANCH  25  26
ATOM     26  C   UNL     1       1.455  11.928  20.153  0.00  0.00    +0.000 C 
BRANCH  26  27
ATOM     27  C   UNL     1       1.790  12.274  18.689  0.00  0.00    +0.000 C 
BRANCH  27  29
ATOM     28  C   UNL     1       0.414  14.302  18.830  0.00  0.00    +0.000 C 
ATOM     29  N   UNL     1       1.714  13.731  18.427  0.00  0.00    +0.000 NA
ATOM     30  C   UNL     1       2.786  14.419  19.163  0.00  0.00    +0.000 C 
ENDBRANCH  27  29
ENDBRANCH  26  27
ENDBRANCH  25  26
ENDBRANCH   1  25
TORSDOF 6
ENDMDL
MODEL 5
REMARK VINA RESULT:      -5.8      2.951      4.806
REMARK  Name = 
REMARK  8 active torsions:
REMARK  status: ('A' for Active; 'I' for Inactive)
REMARK    1  A    between atoms: C_1  and  N_2
REMARK    2  A    between atoms: N_2  and  C_3
REMARK    3  A    between atoms: N_2  and  C_4
REMARK    4  A    between atoms: C_4  and  C_5
REMARK    5  A    between atoms: C_5  and  C_6
REMARK    6  A    between atoms: C_6  and  N_7
REMARK    7  A    between atoms: C_11  and  C_12
REMARK    8  A    between atoms: C_11  and  C_18
REMARK                            x       y       z     vdW  Elec       q    Type
REMARK                         _______ _______ _______ _____ _____    ______ ____
ROOT
ATOM      1  N   UNL     1      -1.583  12.739  20.493  0.00  0.00    +0.000 N 
ATOM      2  C   UNL     1      -2.843  12.530  20.052  0.00  0.00    +0.000 C 
ATOM      3  O   UNL     1      -3.104  11.994  18.984  0.00  0.00    +0.000 OA
ATOM      4  C   UNL     1      -3.837  13.033  21.027  0.00  0.00    +0.000 C 
ATOM      5  C   UNL     1      -5.187  13.014  20.885  0.00  0.00    +0.000 C 
ATOM      6  C   UNL     1      -3.000  13.555  22.131  0.00  0.00    +0.000 A 
ATOM      7  C   UNL     1      -3.325  14.141  23.362  0.00  0.00    +0.000 A 
ATOM      8  C   UNL     1      -2.280  14.551  24.208  0.00  0.00    +0.000 A 
ATOM      9  F   UNL     1      -2.562  15.112  25.409  0.00  0.00    +0.000 F 
ATOM     10  C   UNL     1      -0.939  14.388  23.814  0.00  0.00    +0.000 A 
ATOM     11  C   UNL     1      -0.626  13.805  22.579  0.00  0.00    +0.000 A 
ATOM     12  C   UNL     1      -1.673  13.377  21.756  0.00  0.00    +0.000 A 
ENDROOT
BRANCH   5  13
ATOM     13  C   UNL     1      -6.111  13.602  21.871  0.00  0.00    +0.000 A 
ATOM     14  C   UNL     1      -6.494  14.946  21.741  0.00  0.00    +0.000 A 
ATOM     15  C   UNL     1      -7.393  15.513  22.650  0.00  0.00    +0.000 A 
ATOM     16  C   UNL     1      -7.916  14.740  23.691  0.00  0.00    +0.000 A 
ATOM     17  C   UNL     1      -7.540  13.399  23.823  0.00  0.00    +0.000 A 
ATOM     18  C   UNL     1      -6.641  12.827  22.914  0.00  0.00    +0.000 A 
ENDBRANCH   5  13
BRANCH   5  19
ATOM     19  C   UNL     1      -5.790  12.469  19.655  0.00  0.00    +0.000 A 
ATOM     20  C   UNL     1      -6.453  11.265  19.544  0.00  0.00    +0.000 A 
ATOM     21  C   UNL     1      -6.815  11.145  18.216  0.00  0.00    +0.000 A 
ATOM     22  C   UNL     1      -6.360  12.283  17.577  0.00  0.00    +0.000 A 
ATOM     23  N   UNL     1      -5.735  13.084  18.459  0.00  0.00    +0.000 N 
ATOM     24  H   UNL     1      -5.290  14.005  18.251  0.00  0.00    +0.000 HD
ENDBRANCH   5  19
BRANCH   1  25
ATOM     25  C   UNL     1      -0.374  12.353  19.773  0.00  0.00    +0.000 C 
BRANCH  25  26
ATOM     26  C   UNL     1       0.377  11.206  20.469  0.00  0.00    +0.000 C 
BRANCH  26  27
ATOM     27  C   UNL     1      -0.482   9.936  20.624  0.00  0.00    +0.000 C 
BRANCH  27  29
ATOM     28  C   UNL     1       1.277   8.916  21.999  0.00  0.00    +0.000 C 
ATOM     29  N   UNL     1      -0.167   9.195  21.869  0.00  0.00    +0.000 NA
ATOM     30  C   UNL     1      -0.608   9.980  23.033  0.00  0.00    +0.000 C 
ENDBRANCH  27  29
ENDBRANCH  26  27
ENDBRANCH  25  26
ENDBRANCH   1  25
TORSDOF 6
ENDMDL
MODEL 6
REMARK VINA RESULT:      -5.7      2.081      5.693
REMARK  Name = 
REMARK  8 active torsions:
REMARK  status: ('A' for Active; 'I' for Inactive)
REMARK    1  A    between atoms: C_1  and  N_2
REMARK    2  A    between atoms: N_2  and  C_3
REMARK    3  A    between atoms: N_2  and  C_4
REMARK    4  A    between atoms: C_4  and  C_5
REMARK    5  A    between atoms: C_5  and  C_6
REMARK    6  A    between atoms: C_6  and  N_7
REMARK    7  A    between atoms: C_11  and  C_12
REMARK    8  A    between atoms: C_11  and  C_18
REMARK                            x       y       z     vdW  Elec       q    Type
REMARK                         _______ _______ _______ _____ _____    ______ ____
ROOT
ATOM      1  N   UNL     1      -4.827  12.412  18.829  0.00  0.00    +0.000 N 
ATOM      2  C   UNL     1      -3.840  12.559  19.741  0.00  0.00    +0.000 C 
ATOM      3  O   UNL     1      -3.990  13.131  20.812  0.00  0.00    +0.000 OA
ATOM      4  C   UNL     1      -2.582  11.939  19.265  0.00  0.00    +0.000 C 
ATOM      5  C   UNL     1      -1.390  11.933  19.916  0.00  0.00    +0.000 C 
ATOM      6  C   UNL     1      -2.954  11.378  17.948  0.00  0.00    +0.000 A 
ATOM      7  C   UNL     1      -2.227  10.648  16.998  0.00  0.00    +0.000 A 
ATOM      8  C   UNL     1      -2.873  10.257  15.812  0.00  0.00    +0.000 A 
ATOM      9  F   UNL     1      -2.200   9.542  14.878  0.00  0.00    +0.000 F 
ATOM     10  C   UNL     1      -4.217  10.608  15.584  0.00  0.00    +0.000 A 
ATOM     11  C   UNL     1      -4.933  11.342  16.539  0.00  0.00    +0.000 A 
ATOM     12  C   UNL     1      -4.287  11.704  17.726  0.00  0.00    +0.000 A 
ENDROOT
BRANCH   5  13
ATOM     13  C   UNL     1      -0.161  11.357  19.343  0.00  0.00    +0.000 A 
ATOM     14  C   UNL     1       0.790  12.206  18.755  0.00  0.00    +0.000 A 
ATOM     15  C   UNL     1       1.975  11.681  18.232  0.00  0.00    +0.000 A 
ATOM     16  C   UNL     1       2.219  10.306  18.298  0.00  0.00    +0.000 A 
ATOM     17  C   UNL     1       1.278   9.456  18.886  0.00  0.00    +0.000 A 
ATOM     18  C   UNL     1       0.089   9.978  19.411  0.00  0.00    +0.000 A 
ENDBRANCH   5  13
BRANCH   5  19
ATOM     19  C   UNL     1      -1.261  12.607  21.221  0.00  0.00    +0.000 A 
ATOM     20  C   UNL     1      -1.361  12.002  22.457  0.00  0.00    +0.000 A 
ATOM     21  C   UNL     1      -1.211  13.009  23.391  0.00  0.00    +0.000 A 
ATOM     22  C   UNL     1      -1.022  14.181  22.685  0.00  0.00    +0.000 A 
ATOM     23  N   UNL     1      -1.056  13.929  21.364  0.00  0.00    +0.000 N 
ATOM     24  H   UNL     1      -0.947  14.630  20.597  0.00  0.00    +0.000 HD
ENDBRANCH   5  19
BRANCH   1  25
ATOM     25  C   UNL     1      -6.192  12.902  18.994  0.00  0.00    +0.000 C 
BRANCH  25  26
ATOM     26  C   UNL     1      -7.002  12.044  19.981  0.00  0.00    +0.000 C 
BRANCH  26  27
ATOM     27  C   UNL     1      -7.647  12.875  21.107  0.00  0.00    +0.000 C 
BRANCH  27  29
ATOM     28  C   UNL     1      -6.699  13.876  23.137  0.00  0.00    +0.000 C 
ATOM     29  N   UNL     1      -7.014  12.623  22.422  0.00  0.00    +0.000 NA
ATOM     30  C   UNL     1      -7.917  11.813  23.256  0.00  0.00    +0.000 C 
ENDBRANCH  27  29
ENDBRANCH  26  27
ENDBRANCH  25  26
ENDBRANCH   1  25
TORSDOF 6
ENDMDL
MODEL 7
REMARK VINA RESULT:      -5.7      1.405      2.508
REMARK  Name = 
REMARK  8 active torsions:
REMARK  status: ('A' for Active; 'I' for Inactive)
REMARK    1  A    between atoms: C_1  and  N_2
REMARK    2  A    between atoms: N_2  and  C_3
REMARK    3  A    between atoms: N_2  and  C_4
REMARK    4  A    between atoms: C_4  and  C_5
REMARK    5  A    between atoms: C_5  and  C_6
REMARK    6  A    between atoms: C_6  and  N_7
REMARK    7  A    between atoms: C_11  and  C_12
REMARK    8  A    between atoms: C_11  and  C_18
REMARK                            x       y       z     vdW  Elec       q    Type
REMARK                         _______ _______ _______ _____ _____    ______ ____
ROOT
ATOM      1  N   UNL     1      -0.723  11.562  19.974  0.00  0.00    +0.000 N 
ATOM      2  C   UNL     1      -1.447  12.272  20.868  0.00  0.00    +0.000 C 
ATOM      3  O   UNL     1      -0.990  12.700  21.919  0.00  0.00    +0.000 OA
ATOM      4  C   UNL     1      -2.840  12.449  20.399  0.00  0.00    +0.000 C 
ATOM      5  C   UNL     1      -3.840  13.082  21.066  0.00  0.00    +0.000 C 
ATOM      6  C   UNL     1      -2.850  11.768  19.086  0.00  0.00    +0.000 A 
ATOM      7  C   UNL     1      -3.853  11.597  18.122  0.00  0.00    +0.000 A 
ATOM      8  C   UNL     1      -3.547  10.875  16.955  0.00  0.00    +0.000 A 
ATOM      9  F   UNL     1      -4.493  10.701  16.000  0.00  0.00    +0.000 F 
ATOM     10  C   UNL     1      -2.265  10.325  16.772  0.00  0.00    +0.000 A 
ATOM     11  C   UNL     1      -1.271  10.498  17.745  0.00  0.00    +0.000 A 
ATOM     12  C   UNL     1      -1.579  11.240  18.891  0.00  0.00    +0.000 A 
ENDROOT
BRANCH   5  13
ATOM     13  C   UNL     1      -5.224  13.155  20.564  0.00  0.00    +0.000 A 
ATOM     14  C   UNL     1      -5.644  14.297  19.864  0.00  0.00    +0.000 A 
ATOM     15  C   UNL     1      -6.944  14.372  19.354  0.00  0.00    +0.000 A 
ATOM     16  C   UNL     1      -7.829  13.305  19.537  0.00  0.00    +0.000 A 
ATOM     17  C   UNL     1      -7.414  12.163  20.229  0.00  0.00    +0.000 A 
ATOM     18  C   UNL     1      -6.113  12.084  20.741  0.00  0.00    +0.000 A 
ENDBRANCH   5  13
BRANCH   5  19
ATOM     19  C   UNL     1      -3.588  13.655  22.401  0.00  0.00    +0.000 A 
ATOM     20  C   UNL     1      -3.918  13.072  23.607  0.00  0.00    +0.000 A 
ATOM     21  C   UNL     1      -3.533  13.968  24.585  0.00  0.00    +0.000 A 
ATOM     22  C   UNL     1      -2.982  15.055  23.934  0.00  0.00    +0.000 A 
ATOM     23  N   UNL     1      -3.021  14.858  22.604  0.00  0.00    +0.000 N 
ATOM     24  H   UNL     1      -2.678  15.518  21.870  0.00  0.00    +0.000 HD
ENDBRANCH   5  19
BRANCH   1  25
ATOM     25  C   UNL     1       0.688  11.219  20.131  0.00  0.00    +0.000 C 
BRANCH  25  26
ATOM     26  C   UNL     1       1.613  12.245  19.457  0.00  0.00    +0.000 C 
BRANCH  26  27
ATOM     27  C   UNL     1       2.222  13.249  20.455  0.00  0.00    +0.000 C 
BRANCH  27  29
ATOM     28  C   UNL     1       0.903  14.732  19.010  0.00  0.00    +0.000 C 
ATOM     29  N   UNL     1       1.856  14.649  20.134  0.00  0.00    +0.000 NA
ATOM     30  C   UNL     1       1.253  15.284  21.318  0.00  0.00    +0.000 C 
ENDBRANCH  27  29
ENDBRANCH  26  27
ENDBRANCH  25  26
ENDBRANCH   1  25
TORSDOF 6
ENDMDL
MODEL 8
REMARK VINA RESULT:      -5.7      3.006      4.744
REMARK  Name = 
REMARK  8 active torsions:
REMARK  status: ('A' for Active; 'I' for Inactive)
REMARK    1  A    between atoms: C_1  and  N_2
REMARK    2  A    between atoms: N_2  and  C_3
REMARK    3  A    between atoms: N_2  and  C_4
REMARK    4  A    between atoms: C_4  and  C_5
REMARK    5  A    between atoms: C_5  and  C_6
REMARK    6  A    between atoms: C_6  and  N_7
REMARK    7  A    between atoms: C_11  and  C_12
REMARK    8  A    between atoms: C_11  and  C_18
REMARK                            x       y       z     vdW  Elec       q    Type
REMARK                         _______ _______ _______ _____ _____    ______ ____
ROOT
ATOM      1  N   UNL     1      -1.742  12.736  20.500  0.00  0.00    +0.000 N 
ATOM      2  C   UNL     1      -3.011  12.518  20.089  0.00  0.00    +0.000 C 
ATOM      3  O   UNL     1      -3.294  12.010  19.013  0.00  0.00    +0.000 OA
ATOM      4  C   UNL     1      -3.984  12.974  21.108  0.00  0.00    +0.000 C 
ATOM      5  C   UNL     1      -5.337  12.935  21.004  0.00  0.00    +0.000 C 
ATOM      6  C   UNL     1      -3.124  13.477  22.202  0.00  0.00    +0.000 A 
ATOM      7  C   UNL     1      -3.423  14.020  23.459  0.00  0.00    +0.000 A 
ATOM      8  C   UNL     1      -2.360  14.422  24.287  0.00  0.00    +0.000 A 
ATOM      9  F   UNL     1      -2.616  14.941  25.513  0.00  0.00    +0.000 F 
ATOM     10  C   UNL     1      -1.029  14.295  23.851  0.00  0.00    +0.000 A 
ATOM     11  C   UNL     1      -0.742  13.755  22.590  0.00  0.00    +0.000 A 
ATOM     12  C   UNL     1      -1.806  13.334  21.784  0.00  0.00    +0.000 A 
ENDROOT
BRANCH   5  13
ATOM     13  C   UNL     1      -6.241  13.477  22.034  0.00  0.00    +0.000 A 
ATOM     14  C   UNL     1      -6.672  12.645  23.080  0.00  0.00    +0.000 A 
ATOM     15  C   UNL     1      -7.506  13.148  24.083  0.00  0.00    +0.000 A 
ATOM     16  C   UNL     1      -7.909  14.486  24.050  0.00  0.00    +0.000 A 
ATOM     17  C   UNL     1      -7.479  15.321  23.014  0.00  0.00    +0.000 A 
ATOM     18  C   UNL     1      -6.644  14.821  22.007  0.00  0.00    +0.000 A 
ENDBRANCH   5  13
BRANCH   5  19
ATOM     19  C   UNL     1      -5.967  12.417  19.776  0.00  0.00    +0.000 A 
ATOM     20  C   UNL     1      -6.562  11.181  19.631  0.00  0.00    +0.000 A 
ATOM     21  C   UNL     1      -6.981  11.107  18.317  0.00  0.00    +0.000 A 
ATOM     22  C   UNL     1      -6.627  12.301  17.719  0.00  0.00    +0.000 A 
ATOM     23  N   UNL     1      -6.008  13.093  18.613  0.00  0.00    +0.000 N 
ATOM     24  H   UNL     1      -5.628  14.050  18.434  0.00  0.00    +0.000 HD
ENDBRANCH   5  19
BRANCH   1  25
ATOM     25  C   UNL     1      -0.548  12.393  19.734  0.00  0.00    +0.000 C 
BRANCH  25  26
ATOM     26  C   UNL     1      -0.088  10.948  19.990  0.00  0.00    +0.000 C 
BRANCH  26  27
ATOM     27  C   UNL     1       0.936  10.841  21.137  0.00  0.00    +0.000 C 
BRANCH  27  29
ATOM     28  C   UNL     1      -0.275   9.078  22.342  0.00  0.00    +0.000 C 
ATOM     29  N   UNL     1       0.998   9.474  21.706  0.00  0.00    +0.000 NA
ATOM     30  C   UNL     1       1.318   8.511  20.640  0.00  0.00    +0.000 C 
ENDBRANCH  27  29
ENDBRANCH  26  27
ENDBRANCH  25  26
ENDBRANCH   1  25
TORSDOF 6
ENDMDL
MODEL 9
REMARK VINA RESULT:      -5.7      2.989      7.285
REMARK  Name = 
REMARK  8 active torsions:
REMARK  status: ('A' for Active; 'I' for Inactive)
REMARK    1  A    between atoms: C_1  and  N_2
REMARK    2  A    between atoms: N_2  and  C_3
REMARK    3  A    between atoms: N_2  and  C_4
REMARK    4  A    between atoms: C_4  and  C_5
REMARK    5  A    between atoms: C_5  and  C_6
REMARK    6  A    between atoms: C_6  and  N_7
REMARK    7  A    between atoms: C_11  and  C_12
REMARK    8  A    between atoms: C_11  and  C_18
REMARK                            x       y       z     vdW  Elec       q    Type
REMARK                         _______ _______ _______ _____ _____    ______ ____
ROOT
ATOM      1  N   UNL     1      -5.085  12.552  21.100  0.00  0.00    +0.000 N 
ATOM      2  C   UNL     1      -4.575  12.108  19.929  0.00  0.00    +0.000 C 
ATOM      3  O   UNL     1      -5.252  11.591  19.052  0.00  0.00    +0.000 OA
ATOM      4  C   UNL     1      -3.114  12.335  19.868  0.00  0.00    +0.000 C 
ATOM      5  C   UNL     1      -2.285  11.980  18.853  0.00  0.00    +0.000 C 
ATOM      6  C   UNL     1      -2.815  12.999  21.157  0.00  0.00    +0.000 A 
ATOM      7  C   UNL     1      -1.625  13.495  21.706  0.00  0.00    +0.000 A 
ATOM      8  C   UNL     1      -1.667  14.076  22.985  0.00  0.00    +0.000 A 
ATOM      9  F   UNL     1      -0.534  14.573  23.540  0.00  0.00    +0.000 F 
ATOM     10  C   UNL     1      -2.877  14.141  23.700  0.00  0.00    +0.000 A 
ATOM     11  C   UNL     1      -4.060  13.638  23.143  0.00  0.00    +0.000 A 
ATOM     12  C   UNL     1      -4.012  13.085  21.858  0.00  0.00    +0.000 A 
ENDROOT
BRANCH   5  13
ATOM     13  C   UNL     1      -0.825  12.175  18.898  0.00  0.00    +0.000 A 
ATOM     14  C   UNL     1      -0.007  11.152  19.403  0.00  0.00    +0.000 A 
ATOM     15  C   UNL     1       1.382  11.306  19.426  0.00  0.00    +0.000 A 
ATOM     16  C   UNL     1       1.962  12.482  18.941  0.00  0.00    +0.000 A 
ATOM     17  C   UNL     1       1.153  13.503  18.432  0.00  0.00    +0.000 A 
ATOM     18  C   UNL     1      -0.239  13.352  18.407  0.00  0.00    +0.000 A 
ENDBRANCH   5  13
BRANCH   5  19
ATOM     19  C   UNL     1      -2.824  11.280  17.673  0.00  0.00    +0.000 A 
ATOM     20  C   UNL     1      -2.659   9.942  17.380  0.00  0.00    +0.000 A 
ATOM     21  C   UNL     1      -3.296   9.731  16.173  0.00  0.00    +0.000 A 
ATOM     22  C   UNL     1      -3.825  10.947  15.785  0.00  0.00    +0.000 A 
ATOM     23  N   UNL     1      -3.532  11.886  16.702  0.00  0.00    +0.000 N 
ATOM     24  H   UNL     1      -3.801  12.895  16.663  0.00  0.00    +0.000 HD
ENDBRANCH   5  19
BRANCH   1  25
ATOM     25  C   UNL     1      -6.495  12.486  21.472  0.00  0.00    +0.000 C 
BRANCH  25  26
ATOM     26  C   UNL     1      -7.232  13.808  21.199  0.00  0.00    +0.000 C 
BRANCH  26  27
ATOM     27  C   UNL     1      -7.916  14.382  22.454  0.00  0.00    +0.000 C 
BRANCH  27  29
ATOM     28  C   UNL     1      -6.583  16.151  23.512  0.00  0.00    +0.000 C 
ATOM     29  N   UNL     1      -7.697  15.841  22.594  0.00  0.00    +0.000 NA
ATOM     30  C   UNL     1      -7.402  16.423  21.274  0.00  0.00    +0.000 C 
ENDBRANCH  27  29
ENDBRANCH  26  27
ENDBRANCH  25  26
ENDBRANCH   1  25
TORSDOF 6
ENDMDL
