MODEL 1
REMARK VINA RESULT:      -9.1      0.000      0.000
REMARK  Name = 
REMARK  5 active torsions:
REMARK  status: ('A' for Active; 'I' for Inactive)
REMARK    1  A    between atoms: C_6  and  S_7
REMARK    2  A    between atoms: S_7  and  C_8
REMARK    3  A    between atoms: N_14  and  C_15
REMARK    4  A    between atoms: C_18  and  O_19
REMARK    5  A    between atoms: O_19  and  C_20
REMARK                            x       y       z     vdW  Elec       q    Type
REMARK                         _______ _______ _______ _____ _____    ______ ____
ROOT
ATOM      1  C   UNL     1       5.076   5.907  17.944  0.00  0.00    +0.000 A 
ATOM      2  N   UNL     1       5.816   5.870  19.038  0.00  0.00    +0.000 NA
ATOM      3  C   UNL     1       7.096   5.672  18.776  0.00  0.00    +0.000 A 
ATOM      4 CL   UNL     1       8.130   5.568  20.134  0.00  0.00    +0.000 Cl
ATOM      5  N   UNL     1       7.680   5.520  17.591  0.00  0.00    +0.000 NA
ATOM      6  C   UNL     1       6.838   5.538  16.576  0.00  0.00    +0.000 A 
ATOM      7  N   UNL     1       7.370   5.368  15.296  0.00  0.00    +0.000 N 
ATOM      8  N   UNL     1       5.526   5.733  16.710  0.00  0.00    +0.000 NA
ATOM      9  H   UNL     1       8.381   5.321  15.324  0.00  0.00    +0.000 HD
ENDROOT
BRANCH   7  10
ATOM     10  C   UNL     1       6.777   4.734  14.193  0.00  0.00    +0.000 A 
ATOM     11  C   UNL     1       5.536   4.108  14.343  0.00  0.00    +0.000 A 
ATOM     12  C   UNL     1       4.937   3.445  13.265  0.00  0.00    +0.000 A 
ATOM     13  C   UNL     1       5.556   3.417  12.012  0.00  0.00    +0.000 A 
ATOM     14  C   UNL     1       6.813   3.990  11.869  0.00  0.00    +0.000 A 
ATOM     15  C   UNL     1       7.408   4.654  12.946  0.00  0.00    +0.000 A 
BRANCH  13  16
ATOM     16  O   UNL     1       4.879   2.749  11.040  0.00  0.00    +0.000 OA
BRANCH  16  17
ATOM     17  C   UNL     1       3.589   3.210  10.653  0.00  0.00    +0.000 C 
ATOM     18  F   UNL     1       2.578   2.787  11.439  0.00  0.00    +0.000 F 
ATOM     19  F   UNL     1       3.589   4.561  10.645  0.00  0.00    +0.000 F 
ATOM     20  F   UNL     1       3.339   2.783   9.395  0.00  0.00    +0.000 F 
ENDBRANCH  16  17
ENDBRANCH  13  16
ENDBRANCH   7  10
BRANCH   1  21
ATOM     21  S   UNL     1       3.352   6.296  18.132  0.00  0.00    +0.000 S 
BRANCH  21  27
ATOM     22  F   UNL     1       0.777   3.012  21.112  0.00  0.00    +0.000 F 
ATOM     23  C   UNL     1       1.424   3.223  19.959  0.00  0.00    +0.000 A 
ATOM     24  C   UNL     1       1.500   2.199  19.022  0.00  0.00    +0.000 A 
ATOM     25  C   UNL     1       2.161   2.421  17.816  0.00  0.00    +0.000 A 
ATOM     26  C   UNL     1       2.742   3.667  17.562  0.00  0.00    +0.000 A 
ATOM     27  C   UNL     1       2.670   4.695  18.513  0.00  0.00    +0.000 A 
ATOM     28  C   UNL     1       1.998   4.467  19.717  0.00  0.00    +0.000 A 
ENDBRANCH  21  27
ENDBRANCH   1  21
TORSDOF 5
ENDMDL
MODEL 2
REMARK VINA RESULT:      -9.0      0.946      1.258
REMARK  Name = 
REMARK  5 active torsions:
REMARK  status: ('A' for Active; 'I' for Inactive)
REMARK    1  A    between atoms: C_6  and  S_7
REMARK    2  A    between atoms: S_7  and  C_8
REMARK    3  A    between atoms: N_14  and  C_15
REMARK    4  A    between atoms: C_18  and  O_19
REMARK    5  A    between atoms: O_19  and  C_20
REMARK                            x       y       z     vdW  Elec       q    Type
REMARK                         _______ _______ _______ _____ _____    ______ ____
ROOT
ATOM      1  C   UNL     1       5.175   5.807  18.007  0.00  0.00    +0.000 A 
ATOM      2  N   UNL     1       5.943   5.766  19.083  0.00  0.00    +0.000 NA
ATOM      3  C   UNL     1       7.219   5.592  18.787  0.00  0.00    +0.000 A 
ATOM      4 CL   UNL     1       8.286   5.486  20.119  0.00  0.00    +0.000 Cl
ATOM      5  N   UNL     1       7.776   5.464  17.587  0.00  0.00    +0.000 NA
ATOM      6  C   UNL     1       6.910   5.482  16.593  0.00  0.00    +0.000 A 
ATOM      7  N   UNL     1       7.413   5.338  15.298  0.00  0.00    +0.000 N 
ATOM      8  N   UNL     1       5.599   5.656  16.760  0.00  0.00    +0.000 NA
ATOM      9  H   UNL     1       8.425   5.305  15.302  0.00  0.00    +0.000 HD
ENDROOT
BRANCH   7  10
ATOM     10  C   UNL     1       6.803   4.709  14.202  0.00  0.00    +0.000 A 
ATOM     11  C   UNL     1       5.566   4.080  14.368  0.00  0.00    +0.000 A 
ATOM     12  C   UNL     1       4.952   3.422  13.295  0.00  0.00    +0.000 A 
ATOM     13  C   UNL     1       5.550   3.403  12.033  0.00  0.00    +0.000 A 
ATOM     14  C   UNL     1       6.803   3.978  11.873  0.00  0.00    +0.000 A 
ATOM     15  C   UNL     1       7.415   4.637  12.943  0.00  0.00    +0.000 A 
BRANCH  13  16
ATOM     16  O   UNL     1       4.859   2.739  11.068  0.00  0.00    +0.000 OA
BRANCH  16  17
ATOM     17  C   UNL     1       3.587   3.235  10.663  0.00  0.00    +0.000 C 
ATOM     18  F   UNL     1       2.547   2.791  11.397  0.00  0.00    +0.000 F 
ATOM     19  F   UNL     1       3.604   4.585  10.715  0.00  0.00    +0.000 F 
ATOM     20  F   UNL     1       3.371   2.867   9.379  0.00  0.00    +0.000 F 
ENDBRANCH  16  17
ENDBRANCH  13  16
ENDBRANCH   7  10
BRANCH   1  21
ATOM     21  S   UNL     1       3.452   6.166  18.241  0.00  0.00    +0.000 S 
BRANCH  21  27
ATOM     22  F   UNL     1       3.635   1.043  18.115  0.00  0.00    +0.000 F 
ATOM     23  C   UNL     1       2.972   2.141  18.498  0.00  0.00    +0.000 A 
ATOM     24  C   UNL     1       1.793   2.008  19.223  0.00  0.00    +0.000 A 
ATOM     25  C   UNL     1       1.108   3.149  19.634  0.00  0.00    +0.000 A 
ATOM     26  C   UNL     1       1.610   4.414  19.311  0.00  0.00    +0.000 A 
ATOM     27  C   UNL     1       2.795   4.544  18.572  0.00  0.00    +0.000 A 
ATOM     28  C   UNL     1       3.480   3.394  18.171  0.00  0.00    +0.000 A 
ENDBRANCH  21  27
ENDBRANCH   1  21
TORSDOF 5
ENDMDL
MODEL 3
REMARK VINA RESULT:      -8.7      0.164      1.196
REMARK  Name = 
REMARK  5 active torsions:
REMARK  status: ('A' for Active; 'I' for Inactive)
REMARK    1  A    between atoms: C_6  and  S_7
REMARK    2  A    between atoms: S_7  and  C_8
REMARK    3  A    between atoms: N_14  and  C_15
REMARK    4  A    between atoms: C_18  and  O_19
REMARK    5  A    between atoms: O_19  and  C_20
REMARK                            x       y       z     vdW  Elec       q    Type
REMARK                         _______ _______ _______ _____ _____    ______ ____
ROOT
ATOM      1  C   UNL     1       5.175   5.861  18.059  0.00  0.00    +0.000 A 
ATOM      2  N   UNL     1       5.955   5.810  19.125  0.00  0.00    +0.000 NA
ATOM      3  C   UNL     1       7.218   5.575  18.816  0.00  0.00    +0.000 A 
ATOM      4 CL   UNL     1       8.299   5.449  20.135  0.00  0.00    +0.000 Cl
ATOM      5  N   UNL     1       7.752   5.400  17.611  0.00  0.00    +0.000 NA
ATOM      6  C   UNL     1       6.874   5.435  16.628  0.00  0.00    +0.000 A 
ATOM      7  N   UNL     1       7.352   5.244  15.330  0.00  0.00    +0.000 N 
ATOM      8  N   UNL     1       5.574   5.668  16.810  0.00  0.00    +0.000 NA
ATOM      9  H   UNL     1       8.362   5.168  15.321  0.00  0.00    +0.000 HD
ENDROOT
BRANCH   7  10
ATOM     10  C   UNL     1       6.701   4.621  14.255  0.00  0.00    +0.000 A 
ATOM     11  C   UNL     1       7.317   4.587  13.001  0.00  0.00    +0.000 A 
ATOM     12  C   UNL     1       6.674   3.995  11.907  0.00  0.00    +0.000 A 
ATOM     13  C   UNL     1       5.416   3.404  12.053  0.00  0.00    +0.000 A 
ATOM     14  C   UNL     1       4.774   3.481  13.282  0.00  0.00    +0.000 A 
ATOM     15  C   UNL     1       5.418   4.070  14.374  0.00  0.00    +0.000 A 
BRANCH  13  16
ATOM     16  O   UNL     1       4.892   2.856  10.924  0.00  0.00    +0.000 OA
BRANCH  16  17
ATOM     17  C   UNL     1       3.604   3.274  10.485  0.00  0.00    +0.000 C 
ATOM     18  F   UNL     1       3.308   2.950   9.210  0.00  0.00    +0.000 F 
ATOM     19  F   UNL     1       2.666   2.734  11.294  0.00  0.00    +0.000 F 
ATOM     20  F   UNL     1       3.529   4.620  10.594  0.00  0.00    +0.000 F 
ENDBRANCH  16  17
ENDBRANCH  13  16
ENDBRANCH   7  10
BRANCH   1  21
ATOM     21  S   UNL     1       3.471   6.299  18.308  0.00  0.00    +0.000 S 
BRANCH  21  27
ATOM     22  F   UNL     1       0.825   3.055  21.270  0.00  0.00    +0.000 F 
ATOM     23  C   UNL     1       1.473   3.260  20.117  0.00  0.00    +0.000 A 
ATOM     24  C   UNL     1       1.522   2.242  19.171  0.00  0.00    +0.000 A 
ATOM     25  C   UNL     1       2.184   2.458  17.965  0.00  0.00    +0.000 A 
ATOM     26  C   UNL     1       2.795   3.691  17.719  0.00  0.00    +0.000 A 
ATOM     27  C   UNL     1       2.751   4.713  18.679  0.00  0.00    +0.000 A 
ATOM     28  C   UNL     1       2.077   4.491  19.882  0.00  0.00    +0.000 A 
ENDBRANCH  21  27
ENDBRANCH   1  21
TORSDOF 5
ENDMDL
MODEL 4
REMARK VINA RESULT:      -8.6      0.879      1.715
REMARK  Name = 
REMARK  5 active torsions:
REMARK  status: ('A' for Active; 'I' for Inactive)
REMARK    1  A    between atoms: C_6  and  S_7
REMARK    2  A    between atoms: S_7  and  C_8
REMARK    3  A    between atoms: N_14  and  C_15
REMARK    4  A    between atoms: C_18  and  O_19
REMARK    5  A    between atoms: O_19  and  C_20
REMARK                            x       y       z     vdW  Elec       q    Type
REMARK                         _______ _______ _______ _____ _____    ______ ____
ROOT
ATOM      1  C   UNL     1       5.205   6.105  17.884  0.00  0.00    +0.000 A 
ATOM      2  N   UNL     1       5.947   6.031  18.975  0.00  0.00    +0.000 NA
ATOM      3  C   UNL     1       7.194   5.677  18.715  0.00  0.00    +0.000 A 
ATOM      4 CL   UNL     1       8.222   5.514  20.072  0.00  0.00    +0.000 Cl
ATOM      5  N   UNL     1       7.745   5.408  17.536  0.00  0.00    +0.000 NA
ATOM      6  C   UNL     1       6.901   5.478  16.525  0.00  0.00    +0.000 A 
ATOM      7  N   UNL     1       7.398   5.194  15.251  0.00  0.00    +0.000 N 
ATOM      8  N   UNL     1       5.621   5.828  16.656  0.00  0.00    +0.000 NA
ATOM      9  H   UNL     1       8.397   5.033  15.277  0.00  0.00    +0.000 HD
ENDROOT
BRANCH   7  10
ATOM     10  C   UNL     1       6.726   4.585  14.180  0.00  0.00    +0.000 A 
ATOM     11  C   UNL     1       7.315   4.573  12.913  0.00  0.00    +0.000 A 
ATOM     12  C   UNL     1       6.651   3.995  11.824  0.00  0.00    +0.000 A 
ATOM     13  C   UNL     1       5.398   3.397  11.987  0.00  0.00    +0.000 A 
ATOM     14  C   UNL     1       4.783   3.452  13.231  0.00  0.00    +0.000 A 
ATOM     15  C   UNL     1       5.448   4.027  14.318  0.00  0.00    +0.000 A 
BRANCH  13  16
ATOM     16  O   UNL     1       4.853   2.864  10.861  0.00  0.00    +0.000 OA
BRANCH  16  17
ATOM     17  C   UNL     1       3.581   3.330  10.422  0.00  0.00    +0.000 C 
ATOM     18  F   UNL     1       3.367   4.649  10.606  0.00  0.00    +0.000 F 
ATOM     19  F   UNL     1       3.441   3.052   9.107  0.00  0.00    +0.000 F 
ATOM     20  F   UNL     1       2.620   2.659  11.098  0.00  0.00    +0.000 F 
ENDBRANCH  16  17
ENDBRANCH  13  16
ENDBRANCH   7  10
BRANCH   1  21
ATOM     21  S   UNL     1       3.540   6.696  18.062  0.00  0.00    +0.000 S 
BRANCH  21  27
ATOM     22  F   UNL     1       2.217   1.788  17.377  0.00  0.00    +0.000 F 
ATOM     23  C   UNL     1       2.133   2.885  18.139  0.00  0.00    +0.000 A 
ATOM     24  C   UNL     1       1.426   2.833  19.335  0.00  0.00    +0.000 A 
ATOM     25  C   UNL     1       1.349   3.970  20.136  0.00  0.00    +0.000 A 
ATOM     26  C   UNL     1       1.978   5.150  19.730  0.00  0.00    +0.000 A 
ATOM     27  C   UNL     1       2.683   5.201  18.518  0.00  0.00    +0.000 A 
ATOM     28  C   UNL     1       2.764   4.054  17.725  0.00  0.00    +0.000 A 
ENDBRANCH  21  27
ENDBRANCH   1  21
TORSDOF 5
ENDMDL
MODEL 5
REMARK VINA RESULT:      -8.2      6.364      8.672
REMARK  Name = 
REMARK  5 active torsions:
REMARK  status: ('A' for Active; 'I' for Inactive)
REMARK    1  A    between atoms: C_6  and  S_7
REMARK    2  A    between atoms: S_7  and  C_8
REMARK    3  A    between atoms: N_14  and  C_15
REMARK    4  A    between atoms: C_18  and  O_19
REMARK    5  A    between atoms: O_19  and  C_20
REMARK                            x       y       z     vdW  Elec       q    Type
REMARK                         _______ _______ _______ _____ _____    ______ ____
ROOT
ATOM      1  C   UNL     1       0.131  10.831  19.008  0.00  0.00    +0.000 A 
ATOM      2  N   UNL     1       0.647  12.034  18.820  0.00  0.00    +0.000 NA
ATOM      3  C   UNL     1       1.840  11.989  18.254  0.00  0.00    +0.000 A 
ATOM      4 CL   UNL     1       2.606  13.498  18.007  0.00  0.00    +0.000 Cl
ATOM      5  N   UNL     1       2.532  10.920  17.873  0.00  0.00    +0.000 NA
ATOM      6  C   UNL     1       1.935   9.775  18.144  0.00  0.00    +0.000 A 
ATOM      7  N   UNL     1       2.604   8.601  17.789  0.00  0.00    +0.000 N 
ATOM      8  N   UNL     1       0.730   9.687  18.708  0.00  0.00    +0.000 NA
ATOM      9  H   UNL     1       3.461   8.806  17.291  0.00  0.00    +0.000 HD
ENDROOT
BRANCH   7  10
ATOM     10  C   UNL     1       2.584   7.365  18.453  0.00  0.00    +0.000 A 
ATOM     11  C   UNL     1       2.209   7.310  19.798  0.00  0.00    +0.000 A 
ATOM     12  C   UNL     1       2.208   6.091  20.488  0.00  0.00    +0.000 A 
ATOM     13  C   UNL     1       2.557   4.904  19.840  0.00  0.00    +0.000 A 
ATOM     14  C   UNL     1       2.982   4.958  18.519  0.00  0.00    +0.000 A 
ATOM     15  C   UNL     1       2.980   6.174  17.831  0.00  0.00    +0.000 A 
BRANCH  13  16
ATOM     16  O   UNL     1       2.515   3.783  20.609  0.00  0.00    +0.000 OA
BRANCH  16  17
ATOM     17  C   UNL     1       1.328   2.997  20.621  0.00  0.00    +0.000 C 
ATOM     18  F   UNL     1       0.925   2.598  21.844  0.00  0.00    +0.000 F 
ATOM     19  F   UNL     1       0.327   3.702  20.049  0.00  0.00    +0.000 F 
ATOM     20  F   UNL     1       1.539   1.888  19.876  0.00  0.00    +0.000 F 
ENDBRANCH  16  17
ENDBRANCH  13  16
ENDBRANCH   7  10
BRANCH   1  21
ATOM     21  S   UNL     1      -1.526  10.738  19.641  0.00  0.00    +0.000 S 
BRANCH  21  27
ATOM     22  F   UNL     1      -2.464   9.701  14.706  0.00  0.00    +0.000 F 
ATOM     23  C   UNL     1      -2.866  10.308  15.830  0.00  0.00    +0.000 A 
ATOM     24  C   UNL     1      -4.079  10.987  15.842  0.00  0.00    +0.000 A 
ATOM     25  C   UNL     1      -4.505  11.608  17.014  0.00  0.00    +0.000 A 
ATOM     26  C   UNL     1      -3.710  11.545  18.162  0.00  0.00    +0.000 A 
ATOM     27  C   UNL     1      -2.482  10.866  18.144  0.00  0.00    +0.000 A 
ATOM     28  C   UNL     1      -2.066  10.239  16.967  0.00  0.00    +0.000 A 
ENDBRANCH  21  27
ENDBRANCH   1  21
TORSDOF 5
ENDMDL
MODEL 6
REMARK VINA RESULT:      -8.2      6.343      8.688
REMARK  Name = 
REMARK  5 active torsions:
REMARK  status: ('A' for Active; 'I' for Inactive)
REMARK    1  A    between atoms: C_6  and  S_7
REMARK    2  A    between atoms: S_7  and  C_8
REMARK    3  A    between atoms: N_14  and  C_15
REMARK    4  A    between atoms: C_18  and  O_19
REMARK    5  A    between atoms: O_19  and  C_20
REMARK                            x       y       z     vdW  Elec       q    Type
REMARK                         _______ _______ _______ _____ _____    ______ ____
ROOT
ATOM      1  C   UNL     1       0.083  10.746  19.019  0.00  0.00    +0.000 A 
ATOM      2  N   UNL     1       0.583  11.956  18.836  0.00  0.00    +0.000 NA
ATOM      3  C   UNL     1       1.788  11.928  18.293  0.00  0.00    +0.000 A 
ATOM      4 CL   UNL     1       2.534  13.447  18.055  0.00  0.00    +0.000 Cl
ATOM      5  N   UNL     1       2.504  10.868  17.932  0.00  0.00    +0.000 NA
ATOM      6  C   UNL     1       1.921   9.715  18.196  0.00  0.00    +0.000 A 
ATOM      7  N   UNL     1       2.615   8.551  17.860  0.00  0.00    +0.000 N 
ATOM      8  N   UNL     1       0.706   9.611  18.737  0.00  0.00    +0.000 NA
ATOM      9  H   UNL     1       3.478   8.767  17.378  0.00  0.00    +0.000 HD
ENDROOT
BRANCH   7  10
ATOM     10  C   UNL     1       2.601   7.317  18.529  0.00  0.00    +0.000 A 
ATOM     11  C   UNL     1       2.949   6.154  17.837  0.00  0.00    +0.000 A 
ATOM     12  C   UNL     1       2.916   4.908  18.476  0.00  0.00    +0.000 A 
ATOM     13  C   UNL     1       2.560   4.806  19.823  0.00  0.00    +0.000 A 
ATOM     14  C   UNL     1       2.161   5.950  20.503  0.00  0.00    +0.000 A 
ATOM     15  C   UNL     1       2.197   7.193  19.865  0.00  0.00    +0.000 A 
BRANCH  13  16
ATOM     16  O   UNL     1       2.569   3.547  20.338  0.00  0.00    +0.000 OA
BRANCH  16  17
ATOM     17  C   UNL     1       1.359   2.798  20.354  0.00  0.00    +0.000 C 
ATOM     18  F   UNL     1       0.311   3.402  19.756  0.00  0.00    +0.000 F 
ATOM     19  F   UNL     1       1.570   1.608  19.749  0.00  0.00    +0.000 F 
ATOM     20  F   UNL     1       1.017   2.560  21.641  0.00  0.00    +0.000 F 
ENDBRANCH  16  17
ENDBRANCH  13  16
ENDBRANCH   7  10
BRANCH   1  21
ATOM     21  S   UNL     1      -1.584  10.628  19.620  0.00  0.00    +0.000 S 
BRANCH  21  27
ATOM     22  F   UNL     1      -2.411   9.852  14.619  0.00  0.00    +0.000 F 
ATOM     23  C   UNL     1      -2.846  10.387  15.766  0.00  0.00    +0.000 A 
ATOM     24  C   UNL     1      -4.072  11.042  15.793  0.00  0.00    +0.000 A 
ATOM     25  C   UNL     1      -4.532  11.588  16.989  0.00  0.00    +0.000 A 
ATOM     26  C   UNL     1      -3.757  11.476  18.147  0.00  0.00    +0.000 A 
ATOM     27  C   UNL     1      -2.516  10.823  18.114  0.00  0.00    +0.000 A 
ATOM     28  C   UNL     1      -2.066  10.270  16.913  0.00  0.00    +0.000 A 
ENDBRANCH  21  27
ENDBRANCH   1  21
TORSDOF 5
ENDMDL
MODEL 7
REMARK VINA RESULT:      -8.2      6.530      8.392
REMARK  Name = 
REMARK  5 active torsions:
REMARK  status: ('A' for Active; 'I' for Inactive)
REMARK    1  A    between atoms: C_6  and  S_7
REMARK    2  A    between atoms: S_7  and  C_8
REMARK    3  A    between atoms: N_14  and  C_15
REMARK    4  A    between atoms: C_18  and  O_19
REMARK    5  A    between atoms: O_19  and  C_20
REMARK                            x       y       z     vdW  Elec       q    Type
REMARK                         _______ _______ _______ _____ _____    ______ ____
ROOT
ATOM      1  C   UNL     1       0.069  10.431  19.956  0.00  0.00    +0.000 A 
ATOM      2  N   UNL     1      -0.622  10.937  20.963  0.00  0.00    +0.000 NA
ATOM      3  C   UNL     1      -0.446  10.264  22.086  0.00  0.00    +0.000 A 
ATOM      4 CL   UNL     1      -1.332  10.821  23.437  0.00  0.00    +0.000 Cl
ATOM      5  N   UNL     1       0.314   9.193  22.294  0.00  0.00    +0.000 NA
ATOM      6  C   UNL     1       0.926   8.755  21.211  0.00  0.00    +0.000 A 
ATOM      7  N   UNL     1       1.734   7.623  21.341  0.00  0.00    +0.000 N 
ATOM      8  N   UNL     1       0.833   9.349  20.021  0.00  0.00    +0.000 NA
ATOM      9  H   UNL     1       1.790   7.325  22.306  0.00  0.00    +0.000 HD
ENDROOT
BRANCH   7  10
ATOM     10  C   UNL     1       1.960   6.613  20.393  0.00  0.00    +0.000 A 
ATOM     11  C   UNL     1       1.511   5.315  20.648  0.00  0.00    +0.000 A 
ATOM     12  C   UNL     1       1.750   4.284  19.730  0.00  0.00    +0.000 A 
ATOM     13  C   UNL     1       2.418   4.540  18.530  0.00  0.00    +0.000 A 
ATOM     14  C   UNL     1       2.914   5.815  18.293  0.00  0.00    +0.000 A 
ATOM     15  C   UNL     1       2.673   6.842  19.209  0.00  0.00    +0.000 A 
BRANCH  13  16
ATOM     16  O   UNL     1       2.587   3.464  17.714  0.00  0.00    +0.000 OA
BRANCH  16  17
ATOM     17  C   UNL     1       3.841   2.791  17.709  0.00  0.00    +0.000 C 
ATOM     18  F   UNL     1       4.668   3.142  16.703  0.00  0.00    +0.000 F 
ATOM     19  F   UNL     1       4.470   3.022  18.882  0.00  0.00    +0.000 F 
ATOM     20  F   UNL     1       3.615   1.461  17.609  0.00  0.00    +0.000 F 
ENDBRANCH  16  17
ENDBRANCH  13  16
ENDBRANCH   7  10
BRANCH   1  21
ATOM     21  S   UNL     1       0.034  11.308  18.412  0.00  0.00    +0.000 S 
BRANCH  21  27
ATOM     22  F   UNL     1      -4.991  12.331  18.348  0.00  0.00    +0.000 F 
ATOM     23  C   UNL     1      -3.984  11.581  17.883  0.00  0.00    +0.000 A 
ATOM     24  C   UNL     1      -4.244  10.611  16.922  0.00  0.00    +0.000 A 
ATOM     25  C   UNL     1      -3.195   9.839  16.426  0.00  0.00    +0.000 A 
ATOM     26  C   UNL     1      -1.897  10.043  16.902  0.00  0.00    +0.000 A 
ATOM     27  C   UNL     1      -1.641  11.017  17.879  0.00  0.00    +0.000 A 
ATOM     28  C   UNL     1      -2.696  11.794  18.364  0.00  0.00    +0.000 A 
ENDBRANCH  21  27
ENDBRANCH   1  21
TORSDOF 5
ENDMDL
MODEL 8
REMARK VINA RESULT:      -8.1      6.479      8.414
REMARK  Name = 
REMARK  5 active torsions:
REMARK  status: ('A' for Active; 'I' for Inactive)
REMARK    1  A    between atoms: C_6  and  S_7
REMARK    2  A    between atoms: S_7  and  C_8
REMARK    3  A    between atoms: N_14  and  C_15
REMARK    4  A    between atoms: C_18  and  O_19
REMARK    5  A    between atoms: O_19  and  C_20
REMARK                            x       y       z     vdW  Elec       q    Type
REMARK                         _______ _______ _______ _____ _____    ______ ____
ROOT
ATOM      1  C   UNL     1       0.061  10.560  19.986  0.00  0.00    +0.000 A 
ATOM      2  N   UNL     1      -0.638  11.064  20.988  0.00  0.00    +0.000 NA
ATOM      3  C   UNL     1      -0.490  10.374  22.105  0.00  0.00    +0.000 A 
ATOM      4 CL   UNL     1      -1.389  10.927  23.450  0.00  0.00    +0.000 Cl
ATOM      5  N   UNL     1       0.251   9.290  22.311  0.00  0.00    +0.000 NA
ATOM      6  C   UNL     1       0.874   8.857  21.232  0.00  0.00    +0.000 A 
ATOM      7  N   UNL     1       1.662   7.711  21.360  0.00  0.00    +0.000 N 
ATOM      8  N   UNL     1       0.808   9.467  20.048  0.00  0.00    +0.000 NA
ATOM      9  H   UNL     1       1.700   7.400  22.323  0.00  0.00    +0.000 HD
ENDROOT
BRANCH   7  10
ATOM     10  C   UNL     1       1.889   6.710  20.403  0.00  0.00    +0.000 A 
ATOM     11  C   UNL     1       1.457   5.405  20.655  0.00  0.00    +0.000 A 
ATOM     12  C   UNL     1       1.697   4.383  19.728  0.00  0.00    +0.000 A 
ATOM     13  C   UNL     1       2.348   4.653  18.521  0.00  0.00    +0.000 A 
ATOM     14  C   UNL     1       2.826   5.936  18.287  0.00  0.00    +0.000 A 
ATOM     15  C   UNL     1       2.585   6.955  19.212  0.00  0.00    +0.000 A 
BRANCH  13  16
ATOM     16  O   UNL     1       2.519   3.586  17.697  0.00  0.00    +0.000 OA
BRANCH  16  17
ATOM     17  C   UNL     1       3.769   2.903  17.699  0.00  0.00    +0.000 C 
ATOM     18  F   UNL     1       3.681   1.562  17.595  0.00  0.00    +0.000 F 
ATOM     19  F   UNL     1       4.523   3.364  16.677  0.00  0.00    +0.000 F 
ATOM     20  F   UNL     1       4.411   3.185  18.856  0.00  0.00    +0.000 F 
ENDBRANCH  16  17
ENDBRANCH  13  16
ENDBRANCH   7  10
BRANCH   1  21
ATOM     21  S   UNL     1       0.063  11.457  18.453  0.00  0.00    +0.000 S 
BRANCH  21  27
ATOM     22  F   UNL     1      -3.459   9.256  15.444  0.00  0.00    +0.000 F 
ATOM     23  C   UNL     1      -3.201  10.095  16.455  0.00  0.00    +0.000 A 
ATOM     24  C   UNL     1      -4.257  10.712  17.115  0.00  0.00    +0.000 A 
ATOM     25  C   UNL     1      -3.992  11.575  18.176  0.00  0.00    +0.000 A 
ATOM     26  C   UNL     1      -2.671  11.814  18.563  0.00  0.00    +0.000 A 
ATOM     27  C   UNL     1      -1.607  11.195  17.889  0.00  0.00    +0.000 A 
ATOM     28  C   UNL     1      -1.882  10.324  16.832  0.00  0.00    +0.000 A 
ENDBRANCH  21  27
ENDBRANCH   1  21
TORSDOF 5
ENDMDL
MODEL 9
REMARK VINA RESULT:      -8.1      6.448      8.656
REMARK  Name = 
REMARK  5 active torsions:
REMARK  status: ('A' for Active; 'I' for Inactive)
REMARK    1  A    between atoms: C_6  and  S_7
REMARK    2  A    between atoms: S_7  and  C_8
REMARK    3  A    between atoms: N_14  and  C_15
REMARK    4  A    between atoms: C_18  and  O_19
REMARK    5  A    between atoms: O_19  and  C_20
REMARK                            x       y       z     vdW  Elec       q    Type
REMARK                         _______ _______ _______ _____ _____    ______ ____
ROOT
ATOM      1  C   UNL     1       0.185  10.789  18.978  0.00  0.00    +0.000 A 
ATOM      2  N   UNL     1       0.691  11.992  18.767  0.00  0.00    +0.000 NA
ATOM      3  C   UNL     1       1.884  11.946  18.200  0.00  0.00    +0.000 A 
ATOM      4 CL   UNL     1       2.638  13.455  17.924  0.00  0.00    +0.000 Cl
ATOM      5  N   UNL     1       2.583  10.875  17.838  0.00  0.00    +0.000 NA
ATOM      6  C   UNL     1       1.996   9.731  18.131  0.00  0.00    +0.000 A 
ATOM      7  N   UNL     1       2.672   8.556  17.797  0.00  0.00    +0.000 N 
ATOM      8  N   UNL     1       0.792   9.644  18.699  0.00  0.00    +0.000 NA
ATOM      9  H   UNL     1       3.527   8.758  17.294  0.00  0.00    +0.000 HD
ENDROOT
BRANCH   7  10
ATOM     10  C   UNL     1       2.663   7.332  18.484  0.00  0.00    +0.000 A 
ATOM     11  C   UNL     1       3.067   6.168  17.824  0.00  0.00    +0.000 A 
ATOM     12  C   UNL     1       3.040   4.931  18.479  0.00  0.00    +0.000 A 
ATOM     13  C   UNL     1       2.632   4.839  19.813  0.00  0.00    +0.000 A 
ATOM     14  C   UNL     1       2.178   5.982  20.458  0.00  0.00    +0.000 A 
ATOM     15  C   UNL     1       2.208   7.216  19.804  0.00  0.00    +0.000 A 
BRANCH  13  16
ATOM     16  O   UNL     1       2.652   3.588  20.346  0.00  0.00    +0.000 OA
BRANCH  16  17
ATOM     17  C   UNL     1       1.451   2.824  20.362  0.00  0.00    +0.000 C 
ATOM     18  F   UNL     1       1.335   1.931  19.358  0.00  0.00    +0.000 F 
ATOM     19  F   UNL     1       1.366   2.162  21.537  0.00  0.00    +0.000 F 
ATOM     20  F   UNL     1       0.400   3.672  20.281  0.00  0.00    +0.000 F 
ENDBRANCH  16  17
ENDBRANCH  13  16
ENDBRANCH   7  10
BRANCH   1  21
ATOM     21  S   UNL     1      -1.470  10.695  19.617  0.00  0.00    +0.000 S 
BRANCH  21  27
ATOM     22  F   UNL     1      -5.394  12.246  16.701  0.00  0.00    +0.000 F 
ATOM     23  C   UNL     1      -4.282  11.505  16.800  0.00  0.00    +0.000 A 
ATOM     24  C   UNL     1      -3.837  10.793  15.693  0.00  0.00    +0.000 A 
ATOM     25  C   UNL     1      -2.673  10.033  15.789  0.00  0.00    +0.000 A 
ATOM     26  C   UNL     1      -1.969   9.991  16.996  0.00  0.00    +0.000 A 
ATOM     27  C   UNL     1      -2.427  10.704  18.114  0.00  0.00    +0.000 A 
ATOM     28  C   UNL     1      -3.590  11.472  18.006  0.00  0.00    +0.000 A 
ENDBRANCH  21  27
ENDBRANCH   1  21
TORSDOF 5
ENDMDL
