MODEL 1
REMARK VINA RESULT:      -5.1      0.000      0.000
REMARK  Name = 
REMARK  3 active torsions:
REMARK  status: ('A' for Active; 'I' for Inactive)
REMARK    1  A    between atoms: C_2  and  C_3
REMARK    2  A    between atoms: C_3  and  C_4
REMARK    3  A    between atoms: C_3  and  C_6
REMARK                            x       y       z     vdW  Elec       q    Type
REMARK                         _______ _______ _______ _____ _____    ______ ____
ROOT
ATOM      1  C   UNL     1       6.588   4.732  14.723  0.00  0.00    +0.000 A 
ATOM      2  C   UNL     1       5.869   3.797  13.971  0.00  0.00    +0.000 A 
ATOM      3  C   UNL     1       6.215   3.589  12.638  0.00  0.00    +0.000 A 
ATOM      4  C   UNL     1       7.258   4.318  12.082  0.00  0.00    +0.000 A 
ATOM      5  C   UNL     1       7.915   5.232  12.884  0.00  0.00    +0.000 A 
ATOM      6  N   UNL     1       7.609   5.451  14.183  0.00  0.00    +0.000 NA
ENDROOT
BRANCH   1   7
ATOM      7  C   UNL     1       6.259   5.004  16.181  0.00  0.00    +0.000 C 
BRANCH   7   9
ATOM      8  N   UNL     1       8.216   4.223  17.762  0.00  0.00    +0.000 NA
ATOM      9  C   UNL     1       7.349   4.562  17.068  0.00  0.00    +0.000 C 
ENDBRANCH   7   9
BRANCH   7  10
ATOM     10  C   UNL     1       4.972   4.395  16.550  0.00  0.00    +0.000 C 
ATOM     11  N   UNL     1       3.952   3.922  16.847  0.00  0.00    +0.000 NA
ENDBRANCH   7  10
ENDBRANCH   1   7
TORSDOF 3
ENDMDL
MODEL 2
REMARK VINA RESULT:      -5.1      2.051      2.918
REMARK  Name = 
REMARK  3 active torsions:
REMARK  status: ('A' for Active; 'I' for Inactive)
REMARK    1  A    between atoms: C_2  and  C_3
REMARK    2  A    between atoms: C_3  and  C_4
REMARK    3  A    between atoms: C_3  and  C_6
REMARK                            x       y       z     vdW  Elec       q    Type
REMARK                         _______ _______ _______ _____ _____    ______ ____
ROOT
ATOM      1  C   UNL     1       6.962   5.134  16.419  0.00  0.00    +0.000 A 
ATOM      2  C   UNL     1       5.894   4.232  16.442  0.00  0.00    +0.000 A 
ATOM      3  C   UNL     1       5.456   3.669  15.246  0.00  0.00    +0.000 A 
ATOM      4  C   UNL     1       6.081   4.022  14.057  0.00  0.00    +0.000 A 
ATOM      5  C   UNL     1       7.123   4.928  14.111  0.00  0.00    +0.000 A 
ATOM      6  N   UNL     1       7.576   5.485  15.257  0.00  0.00    +0.000 NA
ENDROOT
BRANCH   1   7
ATOM      7  C   UNL     1       7.486   5.781  17.689  0.00  0.00    +0.000 C 
BRANCH   7   9
ATOM      8  N   UNL     1       6.042   5.098  19.784  0.00  0.00    +0.000 NA
ATOM      9  C   UNL     1       6.681   5.393  18.860  0.00  0.00    +0.000 C 
ENDBRANCH   7   9
BRANCH   7  10
ATOM     10  C   UNL     1       7.566   7.242  17.539  0.00  0.00    +0.000 C 
ATOM     11  N   UNL     1       7.638   8.396  17.416  0.00  0.00    +0.000 NA
ENDBRANCH   7  10
ENDBRANCH   1   7
TORSDOF 3
ENDMDL
MODEL 3
REMARK VINA RESULT:      -5.1      1.026      2.142
REMARK  Name = 
REMARK  3 active torsions:
REMARK  status: ('A' for Active; 'I' for Inactive)
REMARK    1  A    between atoms: C_2  and  C_3
REMARK    2  A    between atoms: C_3  and  C_4
REMARK    3  A    between atoms: C_3  and  C_6
REMARK                            x       y       z     vdW  Elec       q    Type
REMARK                         _______ _______ _______ _____ _____    ______ ____
ROOT
ATOM      1  C   UNL     1       6.537   4.553  14.613  0.00  0.00    +0.000 A 
ATOM      2  C   UNL     1       5.924   3.687  13.701  0.00  0.00    +0.000 A 
ATOM      3  C   UNL     1       6.372   3.664  12.383  0.00  0.00    +0.000 A 
ATOM      4  C   UNL     1       7.408   4.505  11.999  0.00  0.00    +0.000 A 
ATOM      5  C   UNL     1       7.957   5.342  12.953  0.00  0.00    +0.000 A 
ATOM      6  N   UNL     1       7.550   5.381  14.243  0.00  0.00    +0.000 NA
ENDROOT
BRANCH   1   7
ATOM      7  C   UNL     1       6.094   4.624  16.064  0.00  0.00    +0.000 C 
BRANCH   7   9
ATOM      8  N   UNL     1       4.800   6.861  16.575  0.00  0.00    +0.000 NA
ATOM      9  C   UNL     1       5.368   5.874  16.344  0.00  0.00    +0.000 C 
ENDBRANCH   7   9
BRANCH   7  10
ATOM     10  C   UNL     1       7.238   4.440  16.970  0.00  0.00    +0.000 C 
ATOM     11  N   UNL     1       8.149   4.292  17.679  0.00  0.00    +0.000 NA
ENDBRANCH   7  10
ENDBRANCH   1   7
TORSDOF 3
ENDMDL
MODEL 4
REMARK VINA RESULT:      -5.0      2.848      4.835
REMARK  Name = 
REMARK  3 active torsions:
REMARK  status: ('A' for Active; 'I' for Inactive)
REMARK    1  A    between atoms: C_2  and  C_3
REMARK    2  A    between atoms: C_3  and  C_4
REMARK    3  A    between atoms: C_3  and  C_6
REMARK                            x       y       z     vdW  Elec       q    Type
REMARK                         _______ _______ _______ _____ _____    ______ ____
ROOT
ATOM      1  C   UNL     1       4.612   5.229  17.780  0.00  0.00    +0.000 A 
ATOM      2  C   UNL     1       3.397   5.886  17.998  0.00  0.00    +0.000 A 
ATOM      3  C   UNL     1       2.214   5.153  17.959  0.00  0.00    +0.000 A 
ATOM      4  C   UNL     1       2.264   3.790  17.696  0.00  0.00    +0.000 A 
ATOM      5  C   UNL     1       3.500   3.212  17.480  0.00  0.00    +0.000 A 
ATOM      6  N   UNL     1       4.667   3.895  17.519  0.00  0.00    +0.000 NA
ENDROOT
BRANCH   1   7
ATOM      7  C   UNL     1       5.936   5.973  17.810  0.00  0.00    +0.000 C 
BRANCH   7   9
ATOM      8  N   UNL     1       7.317   5.578  15.602  0.00  0.00    +0.000 NA
ATOM      9  C   UNL     1       6.703   5.754  16.572  0.00  0.00    +0.000 C 
ENDBRANCH   7   9
BRANCH   7  10
ATOM     10  C   UNL     1       6.713   5.612  19.006  0.00  0.00    +0.000 C 
ATOM     11  N   UNL     1       7.326   5.317  19.949  0.00  0.00    +0.000 NA
ENDBRANCH   7  10
ENDBRANCH   1   7
TORSDOF 3
ENDMDL
MODEL 5
REMARK VINA RESULT:      -5.0      3.097      5.121
REMARK  Name = 
REMARK  3 active torsions:
REMARK  status: ('A' for Active; 'I' for Inactive)
REMARK    1  A    between atoms: C_2  and  C_3
REMARK    2  A    between atoms: C_3  and  C_4
REMARK    3  A    between atoms: C_3  and  C_6
REMARK                            x       y       z     vdW  Elec       q    Type
REMARK                         _______ _______ _______ _____ _____    ______ ____
ROOT
ATOM      1  C   UNL     1       4.807   4.186  18.092  0.00  0.00    +0.000 A 
ATOM      2  C   UNL     1       3.735   3.949  17.227  0.00  0.00    +0.000 A 
ATOM      3  C   UNL     1       2.814   2.954  17.545  0.00  0.00    +0.000 A 
ATOM      4  C   UNL     1       2.984   2.213  18.707  0.00  0.00    +0.000 A 
ATOM      5  C   UNL     1       4.074   2.496  19.508  0.00  0.00    +0.000 A 
ATOM      6  N   UNL     1       4.980   3.462  19.231  0.00  0.00    +0.000 NA
ENDROOT
BRANCH   1   7
ATOM      7  C   UNL     1       5.843   5.258  17.801  0.00  0.00    +0.000 C 
BRANCH   7   9
ATOM      8  N   UNL     1       5.274   6.587  15.599  0.00  0.00    +0.000 NA
ATOM      9  C   UNL     1       5.521   5.995  16.568  0.00  0.00    +0.000 C 
ENDBRANCH   7   9
BRANCH   7  10
ATOM     10  C   UNL     1       7.196   4.680  17.757  0.00  0.00    +0.000 C 
ATOM     11  N   UNL     1       8.269   4.233  17.723  0.00  0.00    +0.000 NA
ENDBRANCH   7  10
ENDBRANCH   1   7
TORSDOF 3
ENDMDL
MODEL 6
REMARK VINA RESULT:      -5.0      3.431      5.283
REMARK  Name = 
REMARK  3 active torsions:
REMARK  status: ('A' for Active; 'I' for Inactive)
REMARK    1  A    between atoms: C_2  and  C_3
REMARK    2  A    between atoms: C_3  and  C_4
REMARK    3  A    between atoms: C_3  and  C_6
REMARK                            x       y       z     vdW  Elec       q    Type
REMARK                         _______ _______ _______ _____ _____    ______ ____
ROOT
ATOM      1  C   UNL     1       3.735   4.679  18.047  0.00  0.00    +0.000 A 
ATOM      2  C   UNL     1       2.353   4.894  18.046  0.00  0.00    +0.000 A 
ATOM      3  C   UNL     1       1.497   3.796  18.013  0.00  0.00    +0.000 A 
ATOM      4  C   UNL     1       2.032   2.515  17.973  0.00  0.00    +0.000 A 
ATOM      5  C   UNL     1       3.407   2.381  17.965  0.00  0.00    +0.000 A 
ATOM      6  N   UNL     1       4.264   3.427  18.004  0.00  0.00    +0.000 NA
ENDROOT
BRANCH   1   7
ATOM      7  C   UNL     1       4.720   5.835  18.082  0.00  0.00    +0.000 C 
BRANCH   7   9
ATOM      8  N   UNL     1       5.465   6.529  15.652  0.00  0.00    +0.000 NA
ATOM      9  C   UNL     1       5.143   6.222  16.726  0.00  0.00    +0.000 C 
ENDBRANCH   7   9
BRANCH   7  10
ATOM     10  C   UNL     1       5.869   5.518  18.945  0.00  0.00    +0.000 C 
ATOM     11  N   UNL     1       6.771   5.261  19.632  0.00  0.00    +0.000 NA
ENDBRANCH   7  10
ENDBRANCH   1   7
TORSDOF 3
ENDMDL
MODEL 7
REMARK VINA RESULT:      -5.0      3.116      4.934
REMARK  Name = 
REMARK  3 active torsions:
REMARK  status: ('A' for Active; 'I' for Inactive)
REMARK    1  A    between atoms: C_2  and  C_3
REMARK    2  A    between atoms: C_3  and  C_4
REMARK    3  A    between atoms: C_3  and  C_6
REMARK                            x       y       z     vdW  Elec       q    Type
REMARK                         _______ _______ _______ _____ _____    ______ ____
ROOT
ATOM      1  C   UNL     1       5.082   4.617  18.209  0.00  0.00    +0.000 A 
ATOM      2  C   UNL     1       4.142   4.501  17.180  0.00  0.00    +0.000 A 
ATOM      3  C   UNL     1       3.190   3.487  17.243  0.00  0.00    +0.000 A 
ATOM      4  C   UNL     1       3.199   2.608  18.318  0.00  0.00    +0.000 A 
ATOM      5  C   UNL     1       4.165   2.778  19.292  0.00  0.00    +0.000 A 
ATOM      6  N   UNL     1       5.097   3.758  19.264  0.00  0.00    +0.000 NA
ENDROOT
BRANCH   1   7
ATOM      7  C   UNL     1       6.144   5.703  18.198  0.00  0.00    +0.000 C 
BRANCH   7   9
ATOM      8  N   UNL     1       7.402   5.808  15.886  0.00  0.00    +0.000 NA
ATOM      9  C   UNL     1       6.843   5.758  16.903  0.00  0.00    +0.000 C 
ENDBRANCH   7   9
BRANCH   7  10
ATOM     10  C   UNL     1       7.081   5.530  19.319  0.00  0.00    +0.000 C 
ATOM     11  N   UNL     1       7.814   5.390  20.211  0.00  0.00    +0.000 NA
ENDBRANCH   7  10
ENDBRANCH   1   7
TORSDOF 3
ENDMDL
MODEL 8
REMARK VINA RESULT:      -5.0      3.055      5.091
REMARK  Name = 
REMARK  3 active torsions:
REMARK  status: ('A' for Active; 'I' for Inactive)
REMARK    1  A    between atoms: C_2  and  C_3
REMARK    2  A    between atoms: C_3  and  C_4
REMARK    3  A    between atoms: C_3  and  C_6
REMARK                            x       y       z     vdW  Elec       q    Type
REMARK                         _______ _______ _______ _____ _____    ______ ____
ROOT
ATOM      1  C   UNL     1       4.017   4.072  17.659  0.00  0.00    +0.000 A 
ATOM      2  C   UNL     1       2.916   4.925  17.778  0.00  0.00    +0.000 A 
ATOM      3  C   UNL     1       1.660   4.379  18.034  0.00  0.00    +0.000 A 
ATOM      4  C   UNL     1       1.526   3.003  18.156  0.00  0.00    +0.000 A 
ATOM      5  C   UNL     1       2.658   2.222  18.015  0.00  0.00    +0.000 A 
ATOM      6  N   UNL     1       3.892   2.722  17.775  0.00  0.00    +0.000 NA
ENDROOT
BRANCH   1   7
ATOM      7  C   UNL     1       5.412   4.605  17.381  0.00  0.00    +0.000 C 
BRANCH   7   9
ATOM      8  N   UNL     1       6.653   5.277  19.605  0.00  0.00    +0.000 NA
ATOM      9  C   UNL     1       6.100   4.984  18.627  0.00  0.00    +0.000 C 
ENDBRANCH   7   9
BRANCH   7  10
ATOM     10  C   UNL     1       5.365   5.719  16.421  0.00  0.00    +0.000 C 
ATOM     11  N   UNL     1       5.321   6.595  15.656  0.00  0.00    +0.000 NA
ENDBRANCH   7  10
ENDBRANCH   1   7
TORSDOF 3
ENDMDL
MODEL 9
REMARK VINA RESULT:      -5.0      2.824      4.780
REMARK  Name = 
REMARK  3 active torsions:
REMARK  status: ('A' for Active; 'I' for Inactive)
REMARK    1  A    between atoms: C_2  and  C_3
REMARK    2  A    between atoms: C_3  and  C_4
REMARK    3  A    between atoms: C_3  and  C_6
REMARK                            x       y       z     vdW  Elec       q    Type
REMARK                         _______ _______ _______ _____ _____    ______ ____
ROOT
ATOM      1  C   UNL     1       4.605   5.371  17.666  0.00  0.00    +0.000 A 
ATOM      2  C   UNL     1       4.388   4.104  17.115  0.00  0.00    +0.000 A 
ATOM      3  C   UNL     1       3.103   3.568  17.134  0.00  0.00    +0.000 A 
ATOM      4  C   UNL     1       2.068   4.297  17.705  0.00  0.00    +0.000 A 
ATOM      5  C   UNL     1       2.360   5.538  18.239  0.00  0.00    +0.000 A 
ATOM      6  N   UNL     1       3.596   6.089  18.229  0.00  0.00    +0.000 NA
ENDROOT
BRANCH   1   7
ATOM      7  C   UNL     1       5.983   6.010  17.675  0.00  0.00    +0.000 C 
BRANCH   7   9
ATOM      8  N   UNL     1       7.329   5.399  15.494  0.00  0.00    +0.000 NA
ATOM      9  C   UNL     1       6.739   5.675  16.456  0.00  0.00    +0.000 C 
ENDBRANCH   7   9
BRANCH   7  10
ATOM     10  C   UNL     1       6.721   5.646  18.895  0.00  0.00    +0.000 C 
ATOM     11  N   UNL     1       7.305   5.368  19.861  0.00  0.00    +0.000 NA
ENDBRANCH   7  10
ENDBRANCH   1   7
TORSDOF 3
ENDMDL
