MODEL 1
REMARK VINA RESULT:      -7.8      0.000      0.000
REMARK  Name = 
REMARK  7 active torsions:
REMARK  status: ('A' for Active; 'I' for Inactive)
REMARK    1  A    between atoms: C_1  and  C_2
REMARK    2  A    between atoms: C_4  and  C_5
REMARK    3  A    between atoms: C_9  and  O_10
REMARK    4  A    between atoms: C_14  and  N_15
REMARK    5  A    between atoms: N_15  and  C_16
REMARK    6  A    between atoms: C_16  and  C_17
REMARK    7  A    between atoms: C_17  and  N_18
REMARK                            x       y       z     vdW  Elec       q    Type
REMARK                         _______ _______ _______ _____ _____    ______ ____
ROOT
ATOM      1  C   UNL     1       2.086   3.808  21.030  0.00  0.00    +0.000 C 
ATOM      2  C   UNL     1       2.196   5.073  20.232  0.00  0.00    +0.000 A 
ATOM      3  C   UNL     1       1.591   6.242  20.720  0.00  0.00    +0.000 A 
ATOM      4  C   UNL     1       1.703   7.439  20.025  0.00  0.00    +0.000 A 
ATOM      5  N   UNL     1       2.392   7.471  18.872  0.00  0.00    +0.000 NA
ATOM      6  N   UNL     1       3.010   6.329  18.402  0.00  0.00    +0.000 NA
ATOM      7  C   UNL     1       2.939   5.149  19.057  0.00  0.00    +0.000 A 
ENDROOT
BRANCH   4   8
ATOM      8  C   UNL     1       1.129   8.713  20.500  0.00  0.00    +0.000 A 
ATOM      9  C   UNL     1       1.004   9.825  19.643  0.00  0.00    +0.000 A 
ATOM     10  C   UNL     1       0.502  11.051  20.105  0.00  0.00    +0.000 A 
ATOM     11  C   UNL     1       0.114  11.196  21.434  0.00  0.00    +0.000 A 
ATOM     12  C   UNL     1       0.224  10.104  22.283  0.00  0.00    +0.000 A 
ATOM     13  C   UNL     1       0.709   8.880  21.831  0.00  0.00    +0.000 A 
BRANCH  12  14
ATOM     14  O   UNL     1      -0.129  10.183  23.597  0.00  0.00    +0.000 OA
ATOM     15  H   UNL     1      -0.536  11.051  23.758  0.00  0.00    +0.000 HD
ENDBRANCH  12  14
ENDBRANCH   4   8
BRANCH   7  16
ATOM     16  N   UNL     1       3.667   4.035  18.611  0.00  0.00    +0.000 N 
ATOM     17  H   UNL     1       3.528   3.829  17.630  0.00  0.00    +0.000 HD
BRANCH  16  18
ATOM     18  C   UNL     1       5.024   3.909  19.147  0.00  0.00    +0.000 C 
BRANCH  18  19
ATOM     19  C   UNL     1       5.799   5.242  19.244  0.00  0.00    +0.000 C 
BRANCH  19  20
ATOM     20  N   UNL     1       7.202   5.106  18.782  0.00  0.00    +0.000 NA
ATOM     21  C   UNL     1       7.942   6.391  18.735  0.00  0.00    +0.000 C 
ATOM     22  C   UNL     1       7.472   7.320  17.607  0.00  0.00    +0.000 C 
ATOM     23  O   UNL     1       7.630   6.683  16.334  0.00  0.00    +0.000 OA
ATOM     24  C   UNL     1       6.912   5.444  16.284  0.00  0.00    +0.000 C 
ATOM     25  C   UNL     1       7.297   4.499  17.438  0.00  0.00    +0.000 C 
ENDBRANCH  19  20
ENDBRANCH  18  19
ENDBRANCH  16  18
ENDBRANCH   7  16
TORSDOF 6
ENDMDL
MODEL 2
REMARK VINA RESULT:      -7.7      1.093      1.596
REMARK  Name = 
REMARK  7 active torsions:
REMARK  status: ('A' for Active; 'I' for Inactive)
REMARK    1  A    between atoms: C_1  and  C_2
REMARK    2  A    between atoms: C_4  and  C_5
REMARK    3  A    between atoms: C_9  and  O_10
REMARK    4  A    between atoms: C_14  and  N_15
REMARK    5  A    between atoms: N_15  and  C_16
REMARK    6  A    between atoms: C_16  and  C_17
REMARK    7  A    between atoms: C_17  and  N_18
REMARK                            x       y       z     vdW  Elec       q    Type
REMARK                         _______ _______ _______ _____ _____    ______ ____
ROOT
ATOM      1  C   UNL     1       3.865   7.094  16.900  0.00  0.00    +0.000 C 
ATOM      2  C   UNL     1       3.183   6.846  18.213  0.00  0.00    +0.000 A 
ATOM      3  C   UNL     1       2.456   7.886  18.811  0.00  0.00    +0.000 A 
ATOM      4  C   UNL     1       1.782   7.681  20.009  0.00  0.00    +0.000 A 
ATOM      5  N   UNL     1       1.836   6.475  20.598  0.00  0.00    +0.000 NA
ATOM      6  N   UNL     1       2.529   5.441  19.999  0.00  0.00    +0.000 NA
ATOM      7  C   UNL     1       3.183   5.595  18.826  0.00  0.00    +0.000 A 
ENDROOT
BRANCH   4   8
ATOM      8  C   UNL     1       0.966   8.716  20.671  0.00  0.00    +0.000 A 
ATOM      9  C   UNL     1       0.329   9.732  19.930  0.00  0.00    +0.000 A 
ATOM     10  C   UNL     1      -0.410  10.744  20.560  0.00  0.00    +0.000 A 
ATOM     11  C   UNL     1      -0.531  10.766  21.947  0.00  0.00    +0.000 A 
ATOM     12  C   UNL     1       0.083   9.764  22.685  0.00  0.00    +0.000 A 
ATOM     13  C   UNL     1       0.808   8.749  22.067  0.00  0.00    +0.000 A 
BRANCH  12  14
ATOM     14  O   UNL     1       0.012   9.734  24.046  0.00  0.00    +0.000 OA
ATOM     15  H   UNL     1       0.489  10.503  24.400  0.00  0.00    +0.000 HD
ENDBRANCH  12  14
ENDBRANCH   4   8
BRANCH   7  16
ATOM     16  N   UNL     1       3.786   4.499  18.190  0.00  0.00    +0.000 N 
ATOM     17  H   UNL     1       3.707   4.527  17.180  0.00  0.00    +0.000 HD
BRANCH  16  18
ATOM     18  C   UNL     1       5.059   4.056  18.760  0.00  0.00    +0.000 C 
BRANCH  18  19
ATOM     19  C   UNL     1       5.949   5.197  19.301  0.00  0.00    +0.000 C 
BRANCH  19  20
ATOM     20  N   UNL     1       7.341   5.105  18.798  0.00  0.00    +0.000 NA
ATOM     21  C   UNL     1       8.046   6.409  18.749  0.00  0.00    +0.000 C 
ATOM     22  C   UNL     1       7.520   7.340  17.648  0.00  0.00    +0.000 C 
ATOM     23  O   UNL     1       7.659   6.724  16.362  0.00  0.00    +0.000 OA
ATOM     24  C   UNL     1       6.972   5.468  16.314  0.00  0.00    +0.000 C 
ATOM     25  C   UNL     1       7.414   4.518  17.444  0.00  0.00    +0.000 C 
ENDBRANCH  19  20
ENDBRANCH  18  19
ENDBRANCH  16  18
ENDBRANCH   7  16
TORSDOF 6
ENDMDL
MODEL 3
REMARK VINA RESULT:      -7.7      4.667      6.714
REMARK  Name = 
REMARK  7 active torsions:
REMARK  status: ('A' for Active; 'I' for Inactive)
REMARK    1  A    between atoms: C_1  and  C_2
REMARK    2  A    between atoms: C_4  and  C_5
REMARK    3  A    between atoms: C_9  and  O_10
REMARK    4  A    between atoms: C_14  and  N_15
REMARK    5  A    between atoms: N_15  and  C_16
REMARK    6  A    between atoms: C_16  and  C_17
REMARK    7  A    between atoms: C_17  and  N_18
REMARK                            x       y       z     vdW  Elec       q    Type
REMARK                         _______ _______ _______ _____ _____    ______ ____
ROOT
ATOM      1  C   UNL     1       8.312   5.980  19.389  0.00  0.00    +0.000 C 
ATOM      2  C   UNL     1       7.170   6.077  18.422  0.00  0.00    +0.000 A 
ATOM      3  C   UNL     1       6.060   5.234  18.590  0.00  0.00    +0.000 A 
ATOM      4  C   UNL     1       4.969   5.321  17.734  0.00  0.00    +0.000 A 
ATOM      5  N   UNL     1       4.984   6.218  16.735  0.00  0.00    +0.000 NA
ATOM      6  N   UNL     1       6.063   7.068  16.581  0.00  0.00    +0.000 NA
ATOM      7  C   UNL     1       7.136   7.026  17.402  0.00  0.00    +0.000 A 
ENDROOT
BRANCH   4   8
ATOM      8  C   UNL     1       3.755   4.496  17.878  0.00  0.00    +0.000 A 
ATOM      9  C   UNL     1       2.468   5.070  17.821  0.00  0.00    +0.000 A 
ATOM     10  C   UNL     1       1.313   4.296  18.004  0.00  0.00    +0.000 A 
ATOM     11  C   UNL     1       1.415   2.929  18.248  0.00  0.00    +0.000 A 
ATOM     12  C   UNL     1       2.676   2.352  18.296  0.00  0.00    +0.000 A 
ATOM     13  C   UNL     1       3.827   3.110  18.104  0.00  0.00    +0.000 A 
BRANCH  12  14
ATOM     14  O   UNL     1       2.844   1.022  18.542  0.00  0.00    +0.000 OA
ATOM     15  H   UNL     1       2.045   0.683  18.979  0.00  0.00    +0.000 HD
ENDBRANCH  12  14
ENDBRANCH   4   8
BRANCH   7  16
ATOM     16  N   UNL     1       8.165   7.973  17.288  0.00  0.00    +0.000 N 
ATOM     17  H   UNL     1       8.649   7.937  16.399  0.00  0.00    +0.000 HD
BRANCH  16  18
ATOM     18  C   UNL     1       7.878   9.292  17.854  0.00  0.00    +0.000 C 
BRANCH  18  19
ATOM     19  C   UNL     1       8.995   9.857  18.760  0.00  0.00    +0.000 C 
BRANCH  19  20
ATOM     20  N   UNL     1       9.010  11.340  18.768  0.00  0.00    +0.000 NA
ATOM     21  C   UNL     1       9.922  11.933  17.760  0.00  0.00    +0.000 C 
ATOM     22  C   UNL     1      11.407  11.738  18.098  0.00  0.00    +0.000 C 
ATOM     23  O   UNL     1      11.716  12.332  19.364  0.00  0.00    +0.000 OA
ATOM     24  C   UNL     1      10.898  11.784  20.405  0.00  0.00    +0.000 C 
ATOM     25  C   UNL     1       9.394  11.893  20.084  0.00  0.00    +0.000 C 
ENDBRANCH  19  20
ENDBRANCH  18  19
ENDBRANCH  16  18
ENDBRANCH   7  16
TORSDOF 6
ENDMDL
MODEL 4
REMARK VINA RESULT:      -7.6      4.264      6.002
REMARK  Name = 
REMARK  7 active torsions:
REMARK  status: ('A' for Active; 'I' for Inactive)
REMARK    1  A    between atoms: C_1  and  C_2
REMARK    2  A    between atoms: C_4  and  C_5
REMARK    3  A    between atoms: C_9  and  O_10
REMARK    4  A    between atoms: C_14  and  N_15
REMARK    5  A    between atoms: N_15  and  C_16
REMARK    6  A    between atoms: C_16  and  C_17
REMARK    7  A    between atoms: C_17  and  N_18
REMARK                            x       y       z     vdW  Elec       q    Type
REMARK                         _______ _______ _______ _____ _____    ______ ____
ROOT
ATOM      1  C   UNL     1       8.188   5.823  19.423  0.00  0.00    +0.000 C 
ATOM      2  C   UNL     1       6.892   5.914  18.673  0.00  0.00    +0.000 A 
ATOM      3  C   UNL     1       5.792   5.167  19.121  0.00  0.00    +0.000 A 
ATOM      4  C   UNL     1       4.566   5.254  18.472  0.00  0.00    +0.000 A 
ATOM      5  N   UNL     1       4.441   6.058  17.403  0.00  0.00    +0.000 NA
ATOM      6  N   UNL     1       5.515   6.814  16.975  0.00  0.00    +0.000 NA
ATOM      7  C   UNL     1       6.718   6.771  17.588  0.00  0.00    +0.000 A 
ENDROOT
BRANCH   4   8
ATOM      8  C   UNL     1       3.359   4.531  18.914  0.00  0.00    +0.000 A 
ATOM      9  C   UNL     1       2.312   4.235  18.017  0.00  0.00    +0.000 A 
ATOM     10  C   UNL     1       1.143   3.588  18.444  0.00  0.00    +0.000 A 
ATOM     11  C   UNL     1       0.991   3.222  19.778  0.00  0.00    +0.000 A 
ATOM     12  C   UNL     1       2.019   3.499  20.667  0.00  0.00    +0.000 A 
ATOM     13  C   UNL     1       3.188   4.129  20.250  0.00  0.00    +0.000 A 
BRANCH  12  14
ATOM     14  O   UNL     1       1.928   3.176  21.988  0.00  0.00    +0.000 OA
ATOM     15  H   UNL     1       2.741   3.463  22.436  0.00  0.00    +0.000 HD
ENDBRANCH  12  14
ENDBRANCH   4   8
BRANCH   7  16
ATOM     16  N   UNL     1       7.756   7.631  17.198  0.00  0.00    +0.000 N 
ATOM     17  H   UNL     1       8.054   7.493  16.240  0.00  0.00    +0.000 HD
BRANCH  16  18
ATOM     18  C   UNL     1       7.657   9.007  17.688  0.00  0.00    +0.000 C 
BRANCH  18  19
ATOM     19  C   UNL     1       8.836   9.454  18.580  0.00  0.00    +0.000 C 
BRANCH  19  20
ATOM     20  N   UNL     1       8.709  10.870  19.004  0.00  0.00    +0.000 NA
ATOM     21  C   UNL     1       9.041  11.844  17.937  0.00  0.00    +0.000 C 
ATOM     22  C   UNL     1      10.538  11.892  17.604  0.00  0.00    +0.000 C 
ATOM     23  O   UNL     1      11.300  12.246  18.765  0.00  0.00    +0.000 OA
ATOM     24  C   UNL     1      11.062  11.326  19.838  0.00  0.00    +0.000 C 
ATOM     25  C   UNL     1       9.563  11.189  20.168  0.00  0.00    +0.000 C 
ENDBRANCH  19  20
ENDBRANCH  18  19
ENDBRANCH  16  18
ENDBRANCH   7  16
TORSDOF 6
ENDMDL
MODEL 5
REMARK VINA RESULT:      -7.5      4.468      7.053
REMARK  Name = 
REMARK  7 active torsions:
REMARK  status: ('A' for Active; 'I' for Inactive)
REMARK    1  A    between atoms: C_1  and  C_2
REMARK    2  A    between atoms: C_4  and  C_5
REMARK    3  A    between atoms: C_9  and  O_10
REMARK    4  A    between atoms: C_14  and  N_15
REMARK    5  A    between atoms: N_15  and  C_16
REMARK    6  A    between atoms: C_16  and  C_17
REMARK    7  A    between atoms: C_17  and  N_18
REMARK                            x       y       z     vdW  Elec       q    Type
REMARK                         _______ _______ _______ _____ _____    ______ ____
ROOT
ATOM      1  C   UNL     1       5.471   6.179  16.100  0.00  0.00    +0.000 C 
ATOM      2  C   UNL     1       6.534   6.505  17.107  0.00  0.00    +0.000 A 
ATOM      3  C   UNL     1       7.022   7.818  17.182  0.00  0.00    +0.000 A 
ATOM      4  C   UNL     1       7.980   8.164  18.127  0.00  0.00    +0.000 A 
ATOM      5  N   UNL     1       8.444   7.226  18.969  0.00  0.00    +0.000 NA
ATOM      6  N   UNL     1       7.948   5.938  18.915  0.00  0.00    +0.000 NA
ATOM      7  C   UNL     1       7.004   5.566  18.023  0.00  0.00    +0.000 A 
ENDROOT
BRANCH   4   8
ATOM      8  C   UNL     1       8.506   9.533  18.290  0.00  0.00    +0.000 A 
ATOM      9  C   UNL     1       9.474   9.835  19.269  0.00  0.00    +0.000 A 
ATOM     10  C   UNL     1       9.941  11.144  19.457  0.00  0.00    +0.000 A 
ATOM     11  C   UNL     1       9.452  12.184  18.671  0.00  0.00    +0.000 A 
ATOM     12  C   UNL     1       8.506  11.896  17.697  0.00  0.00    +0.000 A 
ATOM     13  C   UNL     1       8.046  10.598  17.495  0.00  0.00    +0.000 A 
BRANCH  12  14
ATOM     14  O   UNL     1       7.980  12.870  16.903  0.00  0.00    +0.000 OA
ATOM     15  H   UNL     1       7.270  13.320  17.391  0.00  0.00    +0.000 HD
ENDBRANCH  12  14
ENDBRANCH   4   8
BRANCH   7  16
ATOM     16  N   UNL     1       6.442   4.281  18.064  0.00  0.00    +0.000 N 
ATOM     17  H   UNL     1       7.127   3.539  17.986  0.00  0.00    +0.000 HD
BRANCH  16  18
ATOM     18  C   UNL     1       5.348   4.099  19.020  0.00  0.00    +0.000 C 
BRANCH  18  19
ATOM     19  C   UNL     1       4.024   3.612  18.390  0.00  0.00    +0.000 C 
BRANCH  19  20
ATOM     20  N   UNL     1       3.473   2.429  19.095  0.00  0.00    +0.000 NA
ATOM     21  C   UNL     1       2.124   2.029  18.625  0.00  0.00    +0.000 C 
ATOM     22  C   UNL     1       1.022   3.012  19.041  0.00  0.00    +0.000 C 
ATOM     23  O   UNL     1       0.966   3.130  20.467  0.00  0.00    +0.000 OA
ATOM     24  C   UNL     1       2.228   3.550  21.001  0.00  0.00    +0.000 C 
ATOM     25  C   UNL     1       3.383   2.632  20.556  0.00  0.00    +0.000 C 
ENDBRANCH  19  20
ENDBRANCH  18  19
ENDBRANCH  16  18
ENDBRANCH   7  16
TORSDOF 6
ENDMDL
MODEL 6
REMARK VINA RESULT:      -7.5      3.497      8.391
REMARK  Name = 
REMARK  7 active torsions:
REMARK  status: ('A' for Active; 'I' for Inactive)
REMARK    1  A    between atoms: C_1  and  C_2
REMARK    2  A    between atoms: C_4  and  C_5
REMARK    3  A    between atoms: C_9  and  O_10
REMARK    4  A    between atoms: C_14  and  N_15
REMARK    5  A    between atoms: N_15  and  C_16
REMARK    6  A    between atoms: C_16  and  C_17
REMARK    7  A    between atoms: C_17  and  N_18
REMARK                            x       y       z     vdW  Elec       q    Type
REMARK                         _______ _______ _______ _____ _____    ______ ____
ROOT
ATOM      1  C   UNL     1       0.945   8.575  21.522  0.00  0.00    +0.000 C 
ATOM      2  C   UNL     1       1.387   8.612  20.089  0.00  0.00    +0.000 A 
ATOM      3  C   UNL     1       2.230   7.598  19.609  0.00  0.00    +0.000 A 
ATOM      4  C   UNL     1       2.631   7.582  18.279  0.00  0.00    +0.000 A 
ATOM      5  N   UNL     1       2.208   8.551  17.450  0.00  0.00    +0.000 NA
ATOM      6  N   UNL     1       1.357   9.536  17.913  0.00  0.00    +0.000 NA
ATOM      7  C   UNL     1       0.932   9.578  19.195  0.00  0.00    +0.000 A 
ENDROOT
BRANCH   4   8
ATOM      8  C   UNL     1       3.480   6.525  17.697  0.00  0.00    +0.000 A 
ATOM      9  C   UNL     1       3.078   5.174  17.707  0.00  0.00    +0.000 A 
ATOM     10  C   UNL     1       3.903   4.160  17.197  0.00  0.00    +0.000 A 
ATOM     11  C   UNL     1       5.152   4.473  16.665  0.00  0.00    +0.000 A 
ATOM     12  C   UNL     1       5.553   5.802  16.642  0.00  0.00    +0.000 A 
ATOM     13  C   UNL     1       4.735   6.814  17.134  0.00  0.00    +0.000 A 
BRANCH  12  14
ATOM     14  O   UNL     1       6.766   6.172  16.145  0.00  0.00    +0.000 OA
ATOM     15  H   UNL     1       6.796   7.142  16.086  0.00  0.00    +0.000 HD
ENDBRANCH  12  14
ENDBRANCH   4   8
BRANCH   7  16
ATOM     16  N   UNL     1      -0.017  10.527  19.607  0.00  0.00    +0.000 N 
ATOM     17  H   UNL     1      -0.079  10.624  20.613  0.00  0.00    +0.000 HD
BRANCH  16  18
ATOM     18  C   UNL     1      -0.084  11.747  18.801  0.00  0.00    +0.000 C 
BRANCH  18  19
ATOM     19  C   UNL     1      -1.433  11.963  18.079  0.00  0.00    +0.000 C 
BRANCH  19  20
ATOM     20  N   UNL     1      -2.256  10.729  18.053  0.00  0.00    +0.000 NA
ATOM     21  C   UNL     1      -2.092   9.929  16.815  0.00  0.00    +0.000 C 
ATOM     22  C   UNL     1      -2.721  10.588  15.580  0.00  0.00    +0.000 C 
ATOM     23  O   UNL     1      -4.125  10.793  15.781  0.00  0.00    +0.000 OA
ATOM     24  C   UNL     1      -4.369  11.593  16.945  0.00  0.00    +0.000 C 
ATOM     25  C   UNL     1      -3.699  11.010  18.204  0.00  0.00    +0.000 C 
ENDBRANCH  19  20
ENDBRANCH  18  19
ENDBRANCH  16  18
ENDBRANCH   7  16
TORSDOF 6
ENDMDL
MODEL 7
REMARK VINA RESULT:      -7.4      0.947      1.376
REMARK  Name = 
REMARK  7 active torsions:
REMARK  status: ('A' for Active; 'I' for Inactive)
REMARK    1  A    between atoms: C_1  and  C_2
REMARK    2  A    between atoms: C_4  and  C_5
REMARK    3  A    between atoms: C_9  and  O_10
REMARK    4  A    between atoms: C_14  and  N_15
REMARK    5  A    between atoms: N_15  and  C_16
REMARK    6  A    between atoms: C_16  and  C_17
REMARK    7  A    between atoms: C_17  and  N_18
REMARK                            x       y       z     vdW  Elec       q    Type
REMARK                         _______ _______ _______ _____ _____    ______ ____
ROOT
ATOM      1  C   UNL     1       2.078   3.747  21.207  0.00  0.00    +0.000 C 
ATOM      2  C   UNL     1       2.118   5.029  20.428  0.00  0.00    +0.000 A 
ATOM      3  C   UNL     1       1.532   6.179  20.978  0.00  0.00    +0.000 A 
ATOM      4  C   UNL     1       1.581   7.391  20.301  0.00  0.00    +0.000 A 
ATOM      5  N   UNL     1       2.192   7.455  19.106  0.00  0.00    +0.000 NA
ATOM      6  N   UNL     1       2.793   6.331  18.574  0.00  0.00    +0.000 NA
ATOM      7  C   UNL     1       2.781   5.138  19.208  0.00  0.00    +0.000 A 
ENDROOT
BRANCH   4   8
ATOM      8  C   UNL     1       1.024   8.647  20.838  0.00  0.00    +0.000 A 
ATOM      9  C   UNL     1       0.660   8.766  22.195  0.00  0.00    +0.000 A 
ATOM     10  C   UNL     1       0.087   9.943  22.699  0.00  0.00    +0.000 A 
ATOM     11  C   UNL     1      -0.137  11.030  21.859  0.00  0.00    +0.000 A 
ATOM     12  C   UNL     1       0.227  10.927  20.523  0.00  0.00    +0.000 A 
ATOM     13  C   UNL     1       0.808   9.768  20.018  0.00  0.00    +0.000 A 
BRANCH  12  14
ATOM     14  O   UNL     1       0.025  11.952  19.647  0.00  0.00    +0.000 OA
ATOM     15  H   UNL     1       0.047  12.790  20.139  0.00  0.00    +0.000 HD
ENDBRANCH  12  14
ENDBRANCH   4   8
BRANCH   7  16
ATOM     16  N   UNL     1       3.493   4.043  18.694  0.00  0.00    +0.000 N 
ATOM     17  H   UNL     1       3.283   3.846  17.723  0.00  0.00    +0.000 HD
BRANCH  16  18
ATOM     18  C   UNL     1       4.889   3.937  19.123  0.00  0.00    +0.000 C 
BRANCH  18  19
ATOM     19  C   UNL     1       5.651   5.280  19.158  0.00  0.00    +0.000 C 
BRANCH  19  20
ATOM     20  N   UNL     1       7.073   5.124  18.767  0.00  0.00    +0.000 NA
ATOM     21  C   UNL     1       7.815   6.406  18.691  0.00  0.00    +0.000 C 
ATOM     22  C   UNL     1       7.397   7.277  17.498  0.00  0.00    +0.000 C 
ATOM     23  O   UNL     1       7.612   6.579  16.266  0.00  0.00    +0.000 OA
ATOM     24  C   UNL     1       6.896   5.338  16.245  0.00  0.00    +0.000 C 
ATOM     25  C   UNL     1       7.229   4.451  17.460  0.00  0.00    +0.000 C 
ENDBRANCH  19  20
ENDBRANCH  18  19
ENDBRANCH  16  18
ENDBRANCH   7  16
TORSDOF 6
ENDMDL
MODEL 8
REMARK VINA RESULT:      -7.4      4.486      6.909
REMARK  Name = 
REMARK  7 active torsions:
REMARK  status: ('A' for Active; 'I' for Inactive)
REMARK    1  A    between atoms: C_1  and  C_2
REMARK    2  A    between atoms: C_4  and  C_5
REMARK    3  A    between atoms: C_9  and  O_10
REMARK    4  A    between atoms: C_14  and  N_15
REMARK    5  A    between atoms: N_15  and  C_16
REMARK    6  A    between atoms: C_16  and  C_17
REMARK    7  A    between atoms: C_17  and  N_18
REMARK                            x       y       z     vdW  Elec       q    Type
REMARK                         _______ _______ _______ _____ _____    ______ ____
ROOT
ATOM      1  C   UNL     1       5.659   6.211  15.997  0.00  0.00    +0.000 C 
ATOM      2  C   UNL     1       6.660   6.546  17.062  0.00  0.00    +0.000 A 
ATOM      3  C   UNL     1       7.139   7.862  17.158  0.00  0.00    +0.000 A 
ATOM      4  C   UNL     1       8.041   8.216  18.154  0.00  0.00    +0.000 A 
ATOM      5  N   UNL     1       8.458   7.285  19.028  0.00  0.00    +0.000 NA
ATOM      6  N   UNL     1       7.970   5.995  18.952  0.00  0.00    +0.000 NA
ATOM      7  C   UNL     1       7.080   5.615  18.009  0.00  0.00    +0.000 A 
ENDROOT
BRANCH   4   8
ATOM      8  C   UNL     1       8.552   9.588  18.339  0.00  0.00    +0.000 A 
ATOM      9  C   UNL     1       9.482   9.892  19.353  0.00  0.00    +0.000 A 
ATOM     10  C   UNL     1       9.935  11.204  19.561  0.00  0.00    +0.000 A 
ATOM     11  C   UNL     1       9.468  12.243  18.760  0.00  0.00    +0.000 A 
ATOM     12  C   UNL     1       8.560  11.952  17.752  0.00  0.00    +0.000 A 
ATOM     13  C   UNL     1       8.115  10.651  17.531  0.00  0.00    +0.000 A 
BRANCH  12  14
ATOM     14  O   UNL     1       8.057  12.925  16.942  0.00  0.00    +0.000 OA
ATOM     15  H   UNL     1       7.328  12.550  16.420  0.00  0.00    +0.000 HD
ENDBRANCH  12  14
ENDBRANCH   4   8
BRANCH   7  16
ATOM     16  N   UNL     1       6.520   4.328  18.026  0.00  0.00    +0.000 N 
ATOM     17  H   UNL     1       7.174   3.601  17.764  0.00  0.00    +0.000 HD
BRANCH  16  18
ATOM     18  C   UNL     1       5.602   4.050  19.132  0.00  0.00    +0.000 C 
BRANCH  18  19
ATOM     19  C   UNL     1       4.180   4.623  18.942  0.00  0.00    +0.000 C 
BRANCH  19  20
ATOM     20  N   UNL     1       3.464   3.977  17.815  0.00  0.00    +0.000 NA
ATOM     21  C   UNL     1       2.027   4.333  17.739  0.00  0.00    +0.000 C 
ATOM     22  C   UNL     1       1.188   3.710  18.863  0.00  0.00    +0.000 C 
ATOM     23  O   UNL     1       1.282   2.282  18.827  0.00  0.00    +0.000 OA
ATOM     24  C   UNL     1       2.645   1.851  18.933  0.00  0.00    +0.000 C 
ATOM     25  C   UNL     1       3.546   2.502  17.866  0.00  0.00    +0.000 C 
ENDBRANCH  19  20
ENDBRANCH  18  19
ENDBRANCH  16  18
ENDBRANCH   7  16
TORSDOF 6
ENDMDL
MODEL 9
REMARK VINA RESULT:      -7.3      3.595      6.964
REMARK  Name = 
REMARK  7 active torsions:
REMARK  status: ('A' for Active; 'I' for Inactive)
REMARK    1  A    between atoms: C_1  and  C_2
REMARK    2  A    between atoms: C_4  and  C_5
REMARK    3  A    between atoms: C_9  and  O_10
REMARK    4  A    between atoms: C_14  and  N_15
REMARK    5  A    between atoms: N_15  and  C_16
REMARK    6  A    between atoms: C_16  and  C_17
REMARK    7  A    between atoms: C_17  and  N_18
REMARK                            x       y       z     vdW  Elec       q    Type
REMARK                         _______ _______ _______ _____ _____    ______ ____
ROOT
ATOM      1  C   UNL     1       5.198   6.654  16.186  0.00  0.00    +0.000 C 
ATOM      2  C   UNL     1       6.363   6.865  17.107  0.00  0.00    +0.000 A 
ATOM      3  C   UNL     1       6.909   8.152  17.233  0.00  0.00    +0.000 A 
ATOM      4  C   UNL     1       7.965   8.390  18.104  0.00  0.00    +0.000 A 
ATOM      5  N   UNL     1       8.469   7.374  18.824  0.00  0.00    +0.000 NA
ATOM      6  N   UNL     1       7.918   6.111  18.721  0.00  0.00    +0.000 NA
ATOM      7  C   UNL     1       6.880   5.842  17.899  0.00  0.00    +0.000 A 
ENDROOT
BRANCH   4   8
ATOM      8  C   UNL     1       8.558   9.724  18.318  0.00  0.00    +0.000 A 
ATOM      9  C   UNL     1       9.532   9.941  19.314  0.00  0.00    +0.000 A 
ATOM     10  C   UNL     1      10.064  11.218  19.550  0.00  0.00    +0.000 A 
ATOM     11  C   UNL     1       9.636  12.308  18.797  0.00  0.00    +0.000 A 
ATOM     12  C   UNL     1       8.685  12.102  17.807  0.00  0.00    +0.000 A 
ATOM     13  C   UNL     1       8.161  10.837  17.557  0.00  0.00    +0.000 A 
BRANCH  12  14
ATOM     14  O   UNL     1       8.217  13.128  17.042  0.00  0.00    +0.000 OA
ATOM     15  H   UNL     1       7.278  12.968  16.847  0.00  0.00    +0.000 HD
ENDBRANCH  12  14
ENDBRANCH   4   8
BRANCH   7  16
ATOM     16  N   UNL     1       6.273   4.577  17.898  0.00  0.00    +0.000 N 
ATOM     17  H   UNL     1       6.881   3.838  17.567  0.00  0.00    +0.000 HD
BRANCH  16  18
ATOM     18  C   UNL     1       5.413   4.285  19.047  0.00  0.00    +0.000 C 
BRANCH  18  19
ATOM     19  C   UNL     1       4.079   3.595  18.688  0.00  0.00    +0.000 C 
BRANCH  19  20
ATOM     20  N   UNL     1       2.996   4.575  18.427  0.00  0.00    +0.000 NA
ATOM     21  C   UNL     1       2.658   5.417  19.601  0.00  0.00    +0.000 C 
ATOM     22  C   UNL     1       1.935   4.644  20.713  0.00  0.00    +0.000 C 
ATOM     23  O   UNL     1       0.715   4.079  20.220  0.00  0.00    +0.000 OA
ATOM     24  C   UNL     1       0.959   3.219  19.100  0.00  0.00    +0.000 C 
ATOM     25  C   UNL     1       1.744   3.927  17.980  0.00  0.00    +0.000 C 
ENDBRANCH  19  20
ENDBRANCH  18  19
ENDBRANCH  16  18
ENDBRANCH   7  16
TORSDOF 6
ENDMDL
