MODEL 1
REMARK VINA RESULT:      -8.0      0.000      0.000
REMARK  Name = 
REMARK  5 active torsions:
REMARK  status: ('A' for Active; 'I' for Inactive)
REMARK    1  A    between atoms: C_1  and  N_2
REMARK    2  A    between atoms: C_8  and  C_10
REMARK    3  A    between atoms: C_10  and  C_11
REMARK    4  A    between atoms: C_11  and  C_12
REMARK    5  A    between atoms: C_18  and  C_19
REMARK                            x       y       z     vdW  Elec       q    Type
REMARK                         _______ _______ _______ _____ _____    ______ ____
ROOT
ATOM      1  C   UNL     1       3.352   3.119  17.175  0.00  0.00    +0.000 C 
ATOM      2  N   UNL     1       3.517   2.924  18.614  0.00  0.00    +0.000 NA
ATOM      3  O   UNL     1       2.249   2.250  18.961  0.00  0.00    +0.000 OA
ATOM      4  C   UNL     1       1.318   3.265  19.391  0.00  0.00    +0.000 C 
ATOM      5  C   UNL     1       2.113   4.544  19.575  0.00  0.00    +0.000 C 
ATOM      6  C   UNL     1       1.901   5.604  18.486  0.00  0.00    +0.000 C 
ATOM      7  N   UNL     1       3.013   6.559  18.233  0.00  0.00    +0.000 N 
ATOM      8  C   UNL     1       2.744   7.911  17.925  0.00  0.00    +0.000 C 
ATOM      9  O   UNL     1       3.622   8.768  17.858  0.00  0.00    +0.000 OA
ATOM     10  C   UNL     1       4.442   6.146  18.463  0.00  0.00    +0.000 C 
ATOM     11  C   UNL     1       4.461   5.221  19.683  0.00  0.00    +0.000 C 
ATOM     12  C   UNL     1       3.518   4.026  19.584  0.00  0.00    +0.000 C 
ENDROOT
BRANCH  10  13
ATOM     13  C   UNL     1       5.387   5.687  17.317  0.00  0.00    +0.000 A 
ATOM     14  C   UNL     1       4.831   5.583  16.002  0.00  0.00    +0.000 A 
ATOM     15  C   UNL     1       5.479   4.991  14.914  0.00  0.00    +0.000 A 
ATOM     16  C   UNL     1       6.734   4.445  15.092  0.00  0.00    +0.000 A 
ATOM     17  C   UNL     1       7.351   4.581  16.334  0.00  0.00    +0.000 A 
ATOM     18  C   UNL     1       6.710   5.215  17.423  0.00  0.00    +0.000 A 
ATOM     19 BR   UNL     1       7.844   5.484  18.919  0.00  0.00    +0.000 Br
ENDBRANCH  10  13
BRANCH   8  20
ATOM     20  C   UNL     1       1.274   8.273  17.701  0.00  0.00    +0.000 C 
BRANCH  20  21
ATOM     21  C   UNL     1       0.894   9.685  18.143  0.00  0.00    +0.000 C 
BRANCH  21  22
ATOM     22  C   UNL     1       0.564   9.702  19.621  0.00  0.00    +0.000 A 
ATOM     23  C   UNL     1      -0.270  10.698  20.152  0.00  0.00    +0.000 A 
ATOM     24  C   UNL     1      -0.545  10.748  21.521  0.00  0.00    +0.000 A 
ATOM     25  C   UNL     1       0.014   9.802  22.377  0.00  0.00    +0.000 A 
ATOM     26  C   UNL     1       0.840   8.804  21.863  0.00  0.00    +0.000 A 
ATOM     27  C   UNL     1       1.117   8.756  20.496  0.00  0.00    +0.000 A 
ENDBRANCH  21  22
ENDBRANCH  20  21
ENDBRANCH   8  20
TORSDOF 4
ENDMDL
MODEL 2
REMARK VINA RESULT:      -7.7      1.349      2.156
REMARK  Name = 
REMARK  5 active torsions:
REMARK  status: ('A' for Active; 'I' for Inactive)
REMARK    1  A    between atoms: C_1  and  N_2
REMARK    2  A    between atoms: C_8  and  C_10
REMARK    3  A    between atoms: C_10  and  C_11
REMARK    4  A    between atoms: C_11  and  C_12
REMARK    5  A    between atoms: C_18  and  C_19
REMARK                            x       y       z     vdW  Elec       q    Type
REMARK                         _______ _______ _______ _____ _____    ______ ____
ROOT
ATOM      1  C   UNL     1       3.193   3.295  17.116  0.00  0.00    +0.000 C 
ATOM      2  N   UNL     1       3.338   3.077  18.555  0.00  0.00    +0.000 NA
ATOM      3  O   UNL     1       2.039   2.454  18.884  0.00  0.00    +0.000 OA
ATOM      4  C   UNL     1       1.149   3.504  19.318  0.00  0.00    +0.000 C 
ATOM      5  C   UNL     1       1.998   4.745  19.524  0.00  0.00    +0.000 C 
ATOM      6  C   UNL     1       1.842   5.826  18.446  0.00  0.00    +0.000 C 
ATOM      7  N   UNL     1       2.997   6.734  18.213  0.00  0.00    +0.000 N 
ATOM      8  C   UNL     1       2.790   8.101  17.918  0.00  0.00    +0.000 C 
ATOM      9  O   UNL     1       3.704   8.919  17.869  0.00  0.00    +0.000 OA
ATOM     10  C   UNL     1       4.404   6.257  18.449  0.00  0.00    +0.000 C 
ATOM     11  C   UNL     1       4.372   5.317  19.658  0.00  0.00    +0.000 C 
ATOM     12  C   UNL     1       3.378   4.166  19.537  0.00  0.00    +0.000 C 
ENDROOT
BRANCH  10  13
ATOM     13  C   UNL     1       5.337   5.769  17.305  0.00  0.00    +0.000 A 
ATOM     14  C   UNL     1       4.782   5.685  15.989  0.00  0.00    +0.000 A 
ATOM     15  C   UNL     1       5.415   5.075  14.902  0.00  0.00    +0.000 A 
ATOM     16  C   UNL     1       6.651   4.489  15.082  0.00  0.00    +0.000 A 
ATOM     17  C   UNL     1       7.269   4.604  16.326  0.00  0.00    +0.000 A 
ATOM     18  C   UNL     1       6.644   5.256  17.414  0.00  0.00    +0.000 A 
ATOM     19 BR   UNL     1       7.782   5.486  18.914  0.00  0.00    +0.000 Br
ENDBRANCH  10  13
BRANCH   8  20
ATOM     20  C   UNL     1       1.339   8.529  17.687  0.00  0.00    +0.000 C 
BRANCH  20  21
ATOM     21  C   UNL     1       0.848   9.636  18.619  0.00  0.00    +0.000 C 
BRANCH  21  22
ATOM     22  C   UNL     1      -0.511  10.133  18.174  0.00  0.00    +0.000 A 
ATOM     23  C   UNL     1      -1.181   9.514  17.108  0.00  0.00    +0.000 A 
ATOM     24  C   UNL     1      -2.415   9.994  16.661  0.00  0.00    +0.000 A 
ATOM     25  C   UNL     1      -2.993  11.103  17.274  0.00  0.00    +0.000 A 
ATOM     26  C   UNL     1      -2.341  11.726  18.337  0.00  0.00    +0.000 A 
ATOM     27  C   UNL     1      -1.107  11.248  18.782  0.00  0.00    +0.000 A 
ENDBRANCH  21  22
ENDBRANCH  20  21
ENDBRANCH   8  20
TORSDOF 4
ENDMDL
MODEL 3
REMARK VINA RESULT:      -7.6      4.403      8.955
REMARK  Name = 
REMARK  5 active torsions:
REMARK  status: ('A' for Active; 'I' for Inactive)
REMARK    1  A    between atoms: C_1  and  N_2
REMARK    2  A    between atoms: C_8  and  C_10
REMARK    3  A    between atoms: C_10  and  C_11
REMARK    4  A    between atoms: C_11  and  C_12
REMARK    5  A    between atoms: C_18  and  C_19
REMARK                            x       y       z     vdW  Elec       q    Type
REMARK                         _______ _______ _______ _____ _____    ______ ____
ROOT
ATOM      1  C   UNL     1      -2.739  11.696  19.811  0.00  0.00    +0.000 C 
ATOM      2  N   UNL     1      -1.865  12.342  18.833  0.00  0.00    +0.000 NA
ATOM      3  O   UNL     1      -2.287  11.675  17.584  0.00  0.00    +0.000 OA
ATOM      4  C   UNL     1      -1.400  10.558  17.365  0.00  0.00    +0.000 C 
ATOM      5  C   UNL     1      -0.249  10.708  18.342  0.00  0.00    +0.000 C 
ATOM      6  C   UNL     1      -0.273   9.736  19.529  0.00  0.00    +0.000 C 
ATOM      7  N   UNL     1       0.392  10.173  20.786  0.00  0.00    +0.000 N 
ATOM      8  C   UNL     1       1.105   9.249  21.582  0.00  0.00    +0.000 C 
ATOM      9  O   UNL     1       1.795   9.586  22.541  0.00  0.00    +0.000 OA
ATOM     10  C   UNL     1       0.459  11.633  21.148  0.00  0.00    +0.000 C 
ATOM     11  C   UNL     1       0.640  12.420  19.847  0.00  0.00    +0.000 C 
ATOM     12  C   UNL     1      -0.413  12.130  18.782  0.00  0.00    +0.000 C 
ENDROOT
BRANCH  10  13
ATOM     13  C   UNL     1      -0.522  12.303  22.150  0.00  0.00    +0.000 A 
ATOM     14  C   UNL     1      -1.512  11.472  22.765  0.00  0.00    +0.000 A 
ATOM     15  C   UNL     1      -2.588  11.949  23.518  0.00  0.00    +0.000 A 
ATOM     16  C   UNL     1      -2.746  13.310  23.684  0.00  0.00    +0.000 A 
ATOM     17  C   UNL     1      -1.771  14.162  23.166  0.00  0.00    +0.000 A 
ATOM     18  C   UNL     1      -0.662  13.675  22.438  0.00  0.00    +0.000 A 
ATOM     19 BR   UNL     1       0.635  15.005  22.052  0.00  0.00    +0.000 Br
ENDBRANCH  10  13
BRANCH   8  20
ATOM     20  C   UNL     1       1.001   7.779  21.167  0.00  0.00    +0.000 C 
BRANCH  20  21
ATOM     21  C   UNL     1       2.181   7.267  20.345  0.00  0.00    +0.000 C 
BRANCH  21  22
ATOM     22  C   UNL     1       1.879   5.889  19.793  0.00  0.00    +0.000 A 
ATOM     23  C   UNL     1       2.124   5.594  18.443  0.00  0.00    +0.000 A 
ATOM     24  C   UNL     1       1.807   4.340  17.915  0.00  0.00    +0.000 A 
ATOM     25  C   UNL     1       1.237   3.365  18.732  0.00  0.00    +0.000 A 
ATOM     26  C   UNL     1       0.993   3.643  20.075  0.00  0.00    +0.000 A 
ATOM     27  C   UNL     1       1.307   4.897  20.602  0.00  0.00    +0.000 A 
ENDBRANCH  21  22
ENDBRANCH  20  21
ENDBRANCH   8  20
TORSDOF 4
ENDMDL
MODEL 4
REMARK VINA RESULT:      -7.3      3.755      7.511
REMARK  Name = 
REMARK  5 active torsions:
REMARK  status: ('A' for Active; 'I' for Inactive)
REMARK    1  A    between atoms: C_1  and  N_2
REMARK    2  A    between atoms: C_8  and  C_10
REMARK    3  A    between atoms: C_10  and  C_11
REMARK    4  A    between atoms: C_11  and  C_12
REMARK    5  A    between atoms: C_18  and  C_19
REMARK                            x       y       z     vdW  Elec       q    Type
REMARK                         _______ _______ _______ _____ _____    ______ ____
ROOT
ATOM      1  C   UNL     1       1.195  11.745  21.821  0.00  0.00    +0.000 C 
ATOM      2  N   UNL     1      -0.186  11.278  21.925  0.00  0.00    +0.000 NA
ATOM      3  O   UNL     1      -0.156  10.573  23.223  0.00  0.00    +0.000 OA
ATOM      4  C   UNL     1       0.103   9.179  22.957  0.00  0.00    +0.000 C 
ATOM      5  C   UNL     1      -0.049   8.979  21.461  0.00  0.00    +0.000 C 
ATOM      6  C   UNL     1       1.267   8.791  20.694  0.00  0.00    +0.000 C 
ATOM      7  N   UNL     1       1.288   9.193  19.262  0.00  0.00    +0.000 N 
ATOM      8  C   UNL     1       2.016   8.440  18.313  0.00  0.00    +0.000 C 
ATOM      9  O   UNL     1       1.943   8.639  17.104  0.00  0.00    +0.000 OA
ATOM     10  C   UNL     1       0.406  10.308  18.767  0.00  0.00    +0.000 C 
ATOM     11  C   UNL     1      -0.912  10.226  19.542  0.00  0.00    +0.000 C 
ATOM     12  C   UNL     1      -0.754  10.236  21.059  0.00  0.00    +0.000 C 
ENDROOT
BRANCH  10  13
ATOM     13  C   UNL     1       0.914  11.761  18.554  0.00  0.00    +0.000 A 
ATOM     14  C   UNL     1       2.296  11.937  18.224  0.00  0.00    +0.000 A 
ATOM     15  C   UNL     1       2.953  13.171  18.205  0.00  0.00    +0.000 A 
ATOM     16  C   UNL     1       2.255  14.313  18.541  0.00  0.00    +0.000 A 
ATOM     17  C   UNL     1       0.890  14.207  18.801  0.00  0.00    +0.000 A 
ATOM     18  C   UNL     1       0.217  12.964  18.781  0.00  0.00    +0.000 A 
ATOM     19 BR   UNL     1      -1.667  13.117  18.930  0.00  0.00    +0.000 Br
ENDBRANCH  10  13
BRANCH   8  20
ATOM     20  C   UNL     1       2.897   7.320  18.873  0.00  0.00    +0.000 C 
BRANCH  20  21
ATOM     21  C   UNL     1       2.807   6.001  18.109  0.00  0.00    +0.000 C 
BRANCH  21  22
ATOM     22  C   UNL     1       2.201   4.926  18.987  0.00  0.00    +0.000 A 
ATOM     23  C   UNL     1       2.402   4.945  20.375  0.00  0.00    +0.000 A 
ATOM     24  C   UNL     1       1.884   3.933  21.189  0.00  0.00    +0.000 A 
ATOM     25  C   UNL     1       1.161   2.886  20.620  0.00  0.00    +0.000 A 
ATOM     26  C   UNL     1       0.951   2.856  19.243  0.00  0.00    +0.000 A 
ATOM     27  C   UNL     1       1.470   3.866  18.431  0.00  0.00    +0.000 A 
ENDBRANCH  21  22
ENDBRANCH  20  21
ENDBRANCH   8  20
TORSDOF 4
ENDMDL
MODEL 5
REMARK VINA RESULT:      -7.3      1.179      1.873
REMARK  Name = 
REMARK  5 active torsions:
REMARK  status: ('A' for Active; 'I' for Inactive)
REMARK    1  A    between atoms: C_1  and  N_2
REMARK    2  A    between atoms: C_8  and  C_10
REMARK    3  A    between atoms: C_10  and  C_11
REMARK    4  A    between atoms: C_11  and  C_12
REMARK    5  A    between atoms: C_18  and  C_19
REMARK                            x       y       z     vdW  Elec       q    Type
REMARK                         _______ _______ _______ _____ _____    ______ ____
ROOT
ATOM      1  C   UNL     1       3.264   3.227  17.132  0.00  0.00    +0.000 C 
ATOM      2  N   UNL     1       3.456   3.017  18.566  0.00  0.00    +0.000 NA
ATOM      3  O   UNL     1       2.169   2.397  18.941  0.00  0.00    +0.000 OA
ATOM      4  C   UNL     1       1.294   3.449  19.399  0.00  0.00    +0.000 C 
ATOM      5  C   UNL     1       2.149   4.692  19.569  0.00  0.00    +0.000 C 
ATOM      6  C   UNL     1       1.956   5.766  18.491  0.00  0.00    +0.000 C 
ATOM      7  N   UNL     1       3.103   6.673  18.215  0.00  0.00    +0.000 N 
ATOM      8  C   UNL     1       2.886   8.038  17.920  0.00  0.00    +0.000 C 
ATOM      9  O   UNL     1       3.799   8.856  17.835  0.00  0.00    +0.000 OA
ATOM     10  C   UNL     1       4.518   6.197  18.407  0.00  0.00    +0.000 C 
ATOM     11  C   UNL     1       4.526   5.264  19.622  0.00  0.00    +0.000 C 
ATOM     12  C   UNL     1       3.529   4.112  19.540  0.00  0.00    +0.000 C 
ENDROOT
BRANCH  10  13
ATOM     13  C   UNL     1       5.412   5.702  17.236  0.00  0.00    +0.000 A 
ATOM     14  C   UNL     1       4.827   5.654  15.930  0.00  0.00    +0.000 A 
ATOM     15  C   UNL     1       5.420   5.045  14.821  0.00  0.00    +0.000 A 
ATOM     16  C   UNL     1       6.643   4.423  14.964  0.00  0.00    +0.000 A 
ATOM     17  C   UNL     1       7.290   4.502  16.197  0.00  0.00    +0.000 A 
ATOM     18  C   UNL     1       6.707   5.153  17.308  0.00  0.00    +0.000 A 
ATOM     19 BR   UNL     1       7.883   5.328  18.786  0.00  0.00    +0.000 Br
ENDBRANCH  10  13
BRANCH   8  20
ATOM     20  C   UNL     1       1.428   8.465  17.734  0.00  0.00    +0.000 C 
BRANCH  20  21
ATOM     21  C   UNL     1       0.786   9.081  18.975  0.00  0.00    +0.000 C 
BRANCH  21  22
ATOM     22  C   UNL     1       0.276  10.474  18.666  0.00  0.00    +0.000 A 
ATOM     23  C   UNL     1       1.108  11.590  18.840  0.00  0.00    +0.000 A 
ATOM     24  C   UNL     1       0.633  12.883  18.600  0.00  0.00    +0.000 A 
ATOM     25  C   UNL     1      -0.684  13.074  18.186  0.00  0.00    +0.000 A 
ATOM     26  C   UNL     1      -1.520  11.973  18.005  0.00  0.00    +0.000 A 
ATOM     27  C   UNL     1      -1.046  10.683  18.247  0.00  0.00    +0.000 A 
ENDBRANCH  21  22
ENDBRANCH  20  21
ENDBRANCH   8  20
TORSDOF 4
ENDMDL
MODEL 6
REMARK VINA RESULT:      -7.1      2.090      3.897
REMARK  Name = 
REMARK  5 active torsions:
REMARK  status: ('A' for Active; 'I' for Inactive)
REMARK    1  A    between atoms: C_1  and  N_2
REMARK    2  A    between atoms: C_8  and  C_10
REMARK    3  A    between atoms: C_10  and  C_11
REMARK    4  A    between atoms: C_11  and  C_12
REMARK    5  A    between atoms: C_18  and  C_19
REMARK                            x       y       z     vdW  Elec       q    Type
REMARK                         _______ _______ _______ _____ _____    ______ ____
ROOT
ATOM      1  C   UNL     1       6.228   4.834  19.365  0.00  0.00    +0.000 C 
ATOM      2  N   UNL     1       6.760   4.791  18.004  0.00  0.00    +0.000 NA
ATOM      3  O   UNL     1       7.899   5.727  18.110  0.00  0.00    +0.000 OA
ATOM      4  C   UNL     1       7.435   7.028  17.692  0.00  0.00    +0.000 C 
ATOM      5  C   UNL     1       6.072   6.828  17.057  0.00  0.00    +0.000 C 
ATOM      6  C   UNL     1       4.884   7.297  17.907  0.00  0.00    +0.000 C 
ATOM      7  N   UNL     1       3.575   6.625  17.686  0.00  0.00    +0.000 N 
ATOM      8  C   UNL     1       2.369   7.360  17.744  0.00  0.00    +0.000 C 
ATOM      9  O   UNL     1       1.283   6.888  17.421  0.00  0.00    +0.000 OA
ATOM     10  C   UNL     1       3.518   5.191  17.234  0.00  0.00    +0.000 C 
ATOM     11  C   UNL     1       4.691   4.967  16.274  0.00  0.00    +0.000 C 
ATOM     12  C   UNL     1       6.054   5.346  16.843  0.00  0.00    +0.000 C 
ENDROOT
BRANCH  10  13
ATOM     13  C   UNL     1       3.275   4.004  18.207  0.00  0.00    +0.000 A 
ATOM     14  C   UNL     1       3.670   2.699  17.772  0.00  0.00    +0.000 A 
ATOM     15  C   UNL     1       3.336   1.511  18.429  0.00  0.00    +0.000 A 
ATOM     16  C   UNL     1       2.558   1.566  19.568  0.00  0.00    +0.000 A 
ATOM     17  C   UNL     1       2.206   2.815  20.075  0.00  0.00    +0.000 A 
ATOM     18  C   UNL     1       2.578   4.017  19.431  0.00  0.00    +0.000 A 
ATOM     19 BR   UNL     1       2.185   5.573  20.442  0.00  0.00    +0.000 Br
ENDBRANCH  10  13
BRANCH   8  20
ATOM     20  C   UNL     1       2.487   8.813  18.212  0.00  0.00    +0.000 C 
BRANCH  20  21
ATOM     21  C   UNL     1       1.189   9.613  18.125  0.00  0.00    +0.000 C 
BRANCH  21  22
ATOM     22  C   UNL     1       0.635   9.867  19.512  0.00  0.00    +0.000 A 
ATOM     23  C   UNL     1      -0.265  10.921  19.736  0.00  0.00    +0.000 A 
ATOM     24  C   UNL     1      -0.747  11.191  21.020  0.00  0.00    +0.000 A 
ATOM     25  C   UNL     1      -0.332  10.410  22.097  0.00  0.00    +0.000 A 
ATOM     26  C   UNL     1       0.558   9.358  21.888  0.00  0.00    +0.000 A 
ATOM     27  C   UNL     1       1.041   9.090  20.606  0.00  0.00    +0.000 A 
ENDBRANCH  21  22
ENDBRANCH  20  21
ENDBRANCH   8  20
TORSDOF 4
ENDMDL
MODEL 7
REMARK VINA RESULT:      -7.0      2.068      4.102
REMARK  Name = 
REMARK  5 active torsions:
REMARK  status: ('A' for Active; 'I' for Inactive)
REMARK    1  A    between atoms: C_1  and  N_2
REMARK    2  A    between atoms: C_8  and  C_10
REMARK    3  A    between atoms: C_10  and  C_11
REMARK    4  A    between atoms: C_11  and  C_12
REMARK    5  A    between atoms: C_18  and  C_19
REMARK                            x       y       z     vdW  Elec       q    Type
REMARK                         _______ _______ _______ _____ _____    ______ ____
ROOT
ATOM      1  C   UNL     1       5.924   4.877  19.686  0.00  0.00    +0.000 C 
ATOM      2  N   UNL     1       6.320   4.426  18.353  0.00  0.00    +0.000 NA
ATOM      3  O   UNL     1       7.551   5.213  18.137  0.00  0.00    +0.000 OA
ATOM      4  C   UNL     1       7.184   6.412  17.422  0.00  0.00    +0.000 C 
ATOM      5  C   UNL     1       5.754   6.224  16.951  0.00  0.00    +0.000 C 
ATOM      6  C   UNL     1       4.703   7.034  17.723  0.00  0.00    +0.000 C 
ATOM      7  N   UNL     1       3.319   6.491  17.770  0.00  0.00    +0.000 N 
ATOM      8  C   UNL     1       2.204   7.358  17.710  0.00  0.00    +0.000 C 
ATOM      9  O   UNL     1       1.050   6.954  17.592  0.00  0.00    +0.000 OA
ATOM     10  C   UNL     1       3.077   5.007  17.714  0.00  0.00    +0.000 C 
ATOM     11  C   UNL     1       4.126   4.407  16.773  0.00  0.00    +0.000 C 
ATOM     12  C   UNL     1       5.568   4.750  17.135  0.00  0.00    +0.000 C 
ENDROOT
BRANCH  10  13
ATOM     13  C   UNL     1       2.807   4.144  18.978  0.00  0.00    +0.000 A 
ATOM     14  C   UNL     1       2.269   4.804  20.128  0.00  0.00    +0.000 A 
ATOM     15  C   UNL     1       2.166   4.225  21.396  0.00  0.00    +0.000 A 
ATOM     16  C   UNL     1       2.622   2.937  21.589  0.00  0.00    +0.000 A 
ATOM     17  C   UNL     1       3.089   2.223  20.487  0.00  0.00    +0.000 A 
ATOM     18  C   UNL     1       3.156   2.797  19.197  0.00  0.00    +0.000 A 
ATOM     19 BR   UNL     1       3.598   1.553  17.835  0.00  0.00    +0.000 Br
ENDBRANCH  10  13
BRANCH   8  20
ATOM     20  C   UNL     1       2.510   8.856  17.772  0.00  0.00    +0.000 C 
BRANCH  20  21
ATOM     21  C   UNL     1       1.293   9.741  18.036  0.00  0.00    +0.000 C 
BRANCH  21  22
ATOM     22  C   UNL     1       0.927   9.705  19.505  0.00  0.00    +0.000 A 
ATOM     23  C   UNL     1       1.491   8.742  20.355  0.00  0.00    +0.000 A 
ATOM     24  C   UNL     1       1.126   8.672  21.702  0.00  0.00    +0.000 A 
ATOM     25  C   UNL     1       0.188   9.565  22.215  0.00  0.00    +0.000 A 
ATOM     26  C   UNL     1      -0.378  10.530  21.384  0.00  0.00    +0.000 A 
ATOM     27  C   UNL     1      -0.015  10.598  20.038  0.00  0.00    +0.000 A 
ENDBRANCH  21  22
ENDBRANCH  20  21
ENDBRANCH   8  20
TORSDOF 4
ENDMDL
MODEL 8
REMARK VINA RESULT:      -7.0      4.471      9.113
REMARK  Name = 
REMARK  5 active torsions:
REMARK  status: ('A' for Active; 'I' for Inactive)
REMARK    1  A    between atoms: C_1  and  N_2
REMARK    2  A    between atoms: C_8  and  C_10
REMARK    3  A    between atoms: C_10  and  C_11
REMARK    4  A    between atoms: C_11  and  C_12
REMARK    5  A    between atoms: C_18  and  C_19
REMARK                            x       y       z     vdW  Elec       q    Type
REMARK                         _______ _______ _______ _____ _____    ______ ____
ROOT
ATOM      1  C   UNL     1      -3.255  11.580  19.410  0.00  0.00    +0.000 C 
ATOM      2  N   UNL     1      -2.438  12.208  18.373  0.00  0.00    +0.000 NA
ATOM      3  O   UNL     1      -2.824  11.421  17.184  0.00  0.00    +0.000 OA
ATOM      4  C   UNL     1      -1.865  10.353  17.036  0.00  0.00    +0.000 C 
ATOM      5  C   UNL     1      -0.717  10.657  17.982  0.00  0.00    +0.000 C 
ATOM      6  C   UNL     1      -0.662   9.779  19.239  0.00  0.00    +0.000 C 
ATOM      7  N   UNL     1      -0.017  10.355  20.449  0.00  0.00    +0.000 N 
ATOM      8  C   UNL     1       0.767   9.545  21.302  0.00  0.00    +0.000 C 
ATOM      9  O   UNL     1       1.441  10.000  22.222  0.00  0.00    +0.000 OA
ATOM     10  C   UNL     1      -0.048  11.838  20.700  0.00  0.00    +0.000 C 
ATOM     11  C   UNL     1       0.065  12.535  19.340  0.00  0.00    +0.000 C 
ATOM     12  C   UNL     1      -0.975  12.093  18.316  0.00  0.00    +0.000 C 
ENDROOT
BRANCH  10  13
ATOM     13  C   UNL     1      -1.063  12.514  21.663  0.00  0.00    +0.000 A 
ATOM     14  C   UNL     1      -1.716  11.682  22.627  0.00  0.00    +0.000 A 
ATOM     15  C   UNL     1      -2.796  12.086  23.418  0.00  0.00    +0.000 A 
ATOM     16  C   UNL     1      -3.302  13.361  23.269  0.00  0.00    +0.000 A 
ATOM     17  C   UNL     1      -2.659  14.236  22.395  0.00  0.00    +0.000 A 
ATOM     18  C   UNL     1      -1.542  13.839  21.625  0.00  0.00    +0.000 A 
ATOM     19 BR   UNL     1      -0.709  15.271  20.702  0.00  0.00    +0.000 Br
ENDBRANCH  10  13
BRANCH   8  20
ATOM     20  C   UNL     1       0.761   8.044  21.001  0.00  0.00    +0.000 C 
BRANCH  20  21
ATOM     21  C   UNL     1       2.096   7.491  20.505  0.00  0.00    +0.000 C 
BRANCH  21  22
ATOM     22  C   UNL     1       1.893   6.148  19.837  0.00  0.00    +0.000 A 
ATOM     23  C   UNL     1       1.370   5.065  20.561  0.00  0.00    +0.000 A 
ATOM     24  C   UNL     1       1.221   3.810  19.965  0.00  0.00    +0.000 A 
ATOM     25  C   UNL     1       1.596   3.622  18.636  0.00  0.00    +0.000 A 
ATOM     26  C   UNL     1       2.111   4.689  17.904  0.00  0.00    +0.000 A 
ATOM     27  C   UNL     1       2.263   5.942  18.500  0.00  0.00    +0.000 A 
ENDBRANCH  21  22
ENDBRANCH  20  21
ENDBRANCH   8  20
TORSDOF 4
ENDMDL
MODEL 9
REMARK VINA RESULT:      -7.0      4.156      9.149
REMARK  Name = 
REMARK  5 active torsions:
REMARK  status: ('A' for Active; 'I' for Inactive)
REMARK    1  A    between atoms: C_1  and  N_2
REMARK    2  A    between atoms: C_8  and  C_10
REMARK    3  A    between atoms: C_10  and  C_11
REMARK    4  A    between atoms: C_11  and  C_12
REMARK    5  A    between atoms: C_18  and  C_19
REMARK                            x       y       z     vdW  Elec       q    Type
REMARK                         _______ _______ _______ _____ _____    ______ ____
ROOT
ATOM      1  C   UNL     1      -0.189  13.720  18.168  0.00  0.00    +0.000 C 
ATOM      2  N   UNL     1       0.336  14.431  19.332  0.00  0.00    +0.000 NA
ATOM      3  O   UNL     1       1.678  14.820  18.851  0.00  0.00    +0.000 OA
ATOM      4  C   UNL     1       2.608  13.804  19.282  0.00  0.00    +0.000 C 
ATOM      5  C   UNL     1       1.872  12.926  20.278  0.00  0.00    +0.000 C 
ATOM      6  C   UNL     1       1.470  11.542  19.751  0.00  0.00    +0.000 C 
ATOM      7  N   UNL     1       0.284  10.891  20.369  0.00  0.00    +0.000 N 
ATOM      8  C   UNL     1       0.261   9.495  20.587  0.00  0.00    +0.000 C 
ATOM      9  O   UNL     1      -0.624   8.934  21.228  0.00  0.00    +0.000 OA
ATOM     10  C   UNL     1      -0.841  11.722  20.925  0.00  0.00    +0.000 C 
ATOM     11  C   UNL     1      -0.221  12.979  21.543  0.00  0.00    +0.000 C 
ATOM     12  C   UNL     1       0.678  13.770  20.597  0.00  0.00    +0.000 C 
ENDROOT
BRANCH  10  13
ATOM     13  C   UNL     1      -2.158  11.997  20.145  0.00  0.00    +0.000 A 
ATOM     14  C   UNL     1      -3.090  12.915  20.723  0.00  0.00    +0.000 A 
ATOM     15  C   UNL     1      -4.395  13.112  20.263  0.00  0.00    +0.000 A 
ATOM     16  C   UNL     1      -4.852  12.371  19.192  0.00  0.00    +0.000 A 
ATOM     17  C   UNL     1      -3.963  11.514  18.547  0.00  0.00    +0.000 A 
ATOM     18  C   UNL     1      -2.631  11.346  18.989  0.00  0.00    +0.000 A 
ATOM     19 BR   UNL     1      -1.563  10.315  17.807  0.00  0.00    +0.000 Br
ENDBRANCH  10  13
BRANCH   8  20
ATOM     20  C   UNL     1       1.429   8.701  19.999  0.00  0.00    +0.000 C 
BRANCH  20  21
ATOM     21  C   UNL     1       1.889   7.522  20.855  0.00  0.00    +0.000 C 
BRANCH  21  22
ATOM     22  C   UNL     1       1.920   6.253  20.028  0.00  0.00    +0.000 A 
ATOM     23  C   UNL     1       2.377   6.280  18.702  0.00  0.00    +0.000 A 
ATOM     24  C   UNL     1       2.368   5.124  17.917  0.00  0.00    +0.000 A 
ATOM     25  C   UNL     1       1.898   3.925  18.450  0.00  0.00    +0.000 A 
ATOM     26  C   UNL     1       1.446   3.883  19.767  0.00  0.00    +0.000 A 
ATOM     27  C   UNL     1       1.452   5.039  20.551  0.00  0.00    +0.000 A 
ENDBRANCH  21  22
ENDBRANCH  20  21
ENDBRANCH   8  20
TORSDOF 4
ENDMDL
