MODEL 1
REMARK VINA RESULT:      -7.6      0.000      0.000
REMARK  Name = 
REMARK  6 active torsions:
REMARK  status: ('A' for Active; 'I' for Inactive)
REMARK    1  A    between atoms: C_8  and  C_9
REMARK    2  A    between atoms: C_9  and  O_11
REMARK    3  A    between atoms: O_11  and  C_12
REMARK    4  A    between atoms: C_15  and  C_16
REMARK    5  A    between atoms: C_16  and  C_17
REMARK    6  A    between atoms: C_17  and  O_19
REMARK                            x       y       z     vdW  Elec       q    Type
REMARK                         _______ _______ _______ _____ _____    ______ ____
ROOT
ATOM      1  C   UNL     1       5.973   4.747  16.361  0.00  0.00    +0.000 C 
ATOM      2  O   UNL     1       6.527   3.703  16.034  0.00  0.00    +0.000 OA
ENDROOT
BRANCH   1  10
ATOM      3  N   UNL     1       9.878  10.617  19.682  0.00  0.00    +0.000 NA
ATOM      4  C   UNL     1       9.046   9.956  18.950  0.00  0.00    +0.000 C 
ATOM      5  N   UNL     1       8.213  10.582  18.093  0.00  0.00    +0.000 N 
ATOM      6  N   UNL     1       8.935   8.621  19.084  0.00  0.00    +0.000 N 
ATOM      7  C   UNL     1       8.180   7.708  18.370  0.00  0.00    +0.000 A 
ATOM      8  N   UNL     1       7.721   8.001  17.131  0.00  0.00    +0.000 NA
ATOM      9  C   UNL     1       7.021   7.042  16.475  0.00  0.00    +0.000 A 
ATOM     10  C   UNL     1       6.722   5.819  17.025  0.00  0.00    +0.000 A 
ATOM     11  C   UNL     1       7.219   5.617  18.292  0.00  0.00    +0.000 A 
ATOM     12  N   UNL     1       7.960   6.524  18.965  0.00  0.00    +0.000 NA
ATOM     13  H   UNL     1       9.778  11.614  19.481  0.00  0.00    +0.000 HD
ATOM     14  H   UNL     1       8.462  11.514  17.798  0.00  0.00    +0.000 HD
ATOM     15  H   UNL     1       7.889   9.991  17.329  0.00  0.00    +0.000 HD
ATOM     16  H   UNL     1       9.406   8.211  19.875  0.00  0.00    +0.000 HD
ENDBRANCH   1  10
BRANCH   1  17
ATOM     17  O   UNL     1       4.658   5.063  16.215  0.00  0.00    +0.000 OA
BRANCH  17  18
ATOM     18  C   UNL     1       3.830   4.551  17.229  0.00  0.00    +0.000 A 
ATOM     19  C   UNL     1       3.594   3.238  17.451  0.00  0.00    +0.000 A 
ATOM     20  C   UNL     1       2.659   2.791  18.474  0.00  0.00    +0.000 A 
ATOM     21  C   UNL     1       2.062   3.703  19.269  0.00  0.00    +0.000 A 
ATOM     22  N   UNL     1       2.392   5.056  19.096  0.00  0.00    +0.000 N 
ATOM     23  N   UNL     1       1.977   6.112  19.851  0.00  0.00    +0.000 NA
ATOM     24  C   UNL     1       2.527   7.147  19.208  0.00  0.00    +0.000 A 
ATOM     25  N   UNL     1       3.323   6.836  18.146  0.00  0.00    +0.000 NA
ATOM     26  C   UNL     1       3.249   5.523  18.093  0.00  0.00    +0.000 A 
BRANCH  21  27
ATOM     27  C   UNL     1       1.011   3.354  20.283  0.00  0.00    +0.000 C 
BRANCH  27  28
ATOM     28  C   UNL     1       1.607   3.042  21.639  0.00  0.00    +0.000 C 
ATOM     29  O   UNL     1       1.298   2.055  22.295  0.00  0.00    +0.000 OA
BRANCH  28  30
ATOM     30  O   UNL     1       2.500   3.956  22.081  0.00  0.00    +0.000 OA
ATOM     31  H   UNL     1       2.087   4.758  22.477  0.00  0.00    +0.000 HD
ENDBRANCH  28  30
ENDBRANCH  27  28
ENDBRANCH  21  27
ENDBRANCH  17  18
ENDBRANCH   1  17
TORSDOF 6
ENDMDL
MODEL 2
REMARK VINA RESULT:      -7.5      2.858      6.322
REMARK  Name = 
REMARK  6 active torsions:
REMARK  status: ('A' for Active; 'I' for Inactive)
REMARK    1  A    between atoms: C_8  and  C_9
REMARK    2  A    between atoms: C_9  and  O_11
REMARK    3  A    between atoms: O_11  and  C_12
REMARK    4  A    between atoms: C_15  and  C_16
REMARK    5  A    between atoms: C_16  and  C_17
REMARK    6  A    between atoms: C_17  and  O_19
REMARK                            x       y       z     vdW  Elec       q    Type
REMARK                         _______ _______ _______ _____ _____    ______ ____
ROOT
ATOM      1  C   UNL     1       2.768   3.776  17.631  0.00  0.00    +0.000 C 
ATOM      2  O   UNL     1       2.048   3.514  16.675  0.00  0.00    +0.000 OA
ENDROOT
BRANCH   1  10
ATOM      3  N   UNL     1       1.053   9.825  22.236  0.00  0.00    +0.000 NA
ATOM      4  C   UNL     1       1.218   9.087  21.190  0.00  0.00    +0.000 C 
ATOM      5  N   UNL     1       0.990   9.567  19.950  0.00  0.00    +0.000 N 
ATOM      6  N   UNL     1       1.548   7.788  21.320  0.00  0.00    +0.000 N 
ATOM      7  C   UNL     1       1.844   6.839  20.359  0.00  0.00    +0.000 A 
ATOM      8  N   UNL     1       2.236   7.204  19.116  0.00  0.00    +0.000 NA
ATOM      9  C   UNL     1       2.548   6.217  18.239  0.00  0.00    +0.000 A 
ATOM     10  C   UNL     1       2.441   4.881  18.538  0.00  0.00    +0.000 A 
ATOM     11  C   UNL     1       2.024   4.607  19.821  0.00  0.00    +0.000 A 
ATOM     12  N   UNL     1       1.747   5.555  20.742  0.00  0.00    +0.000 NA
ATOM     13  H   UNL     1       0.751  10.756  21.943  0.00  0.00    +0.000 HD
ATOM     14  H   UNL     1       1.005  10.568  19.827  0.00  0.00    +0.000 HD
ATOM     15  H   UNL     1       1.487   9.063  19.217  0.00  0.00    +0.000 HD
ATOM     16  H   UNL     1       1.499   7.406  22.251  0.00  0.00    +0.000 HD
ENDBRANCH   1  10
BRANCH   1  17
ATOM     17  O   UNL     1       3.934   3.165  17.979  0.00  0.00    +0.000 OA
BRANCH  17  18
ATOM     18  C   UNL     1       5.018   4.046  18.133  0.00  0.00    +0.000 A 
ATOM     19  C   UNL     1       5.450   4.549  19.312  0.00  0.00    +0.000 A 
ATOM     20  C   UNL     1       6.532   5.521  19.378  0.00  0.00    +0.000 A 
ATOM     21  C   UNL     1       7.169   5.880  18.245  0.00  0.00    +0.000 A 
ATOM     22  N   UNL     1       6.779   5.276  17.040  0.00  0.00    +0.000 N 
ATOM     23  N   UNL     1       7.353   5.429  15.813  0.00  0.00    +0.000 NA
ATOM     24  C   UNL     1       6.550   4.694  15.037  0.00  0.00    +0.000 A 
ATOM     25  N   UNL     1       5.552   4.021  15.676  0.00  0.00    +0.000 NA
ATOM     26  C   UNL     1       5.713   4.376  16.934  0.00  0.00    +0.000 A 
BRANCH  21  27
ATOM     27  C   UNL     1       8.227   6.945  18.193  0.00  0.00    +0.000 C 
BRANCH  27  28
ATOM     28  C   UNL     1       7.682   8.268  17.700  0.00  0.00    +0.000 C 
ATOM     29  O   UNL     1       8.141   9.350  18.042  0.00  0.00    +0.000 OA
BRANCH  28  30
ATOM     30  O   UNL     1       6.627   8.160  16.861  0.00  0.00    +0.000 OA
ATOM     31  H   UNL     1       6.693   8.735  16.063  0.00  0.00    +0.000 HD
ENDBRANCH  28  30
ENDBRANCH  27  28
ENDBRANCH  21  27
ENDBRANCH  17  18
ENDBRANCH   1  17
TORSDOF 6
ENDMDL
MODEL 3
REMARK VINA RESULT:      -7.4      3.901      7.133
REMARK  Name = 
REMARK  6 active torsions:
REMARK  status: ('A' for Active; 'I' for Inactive)
REMARK    1  A    between atoms: C_8  and  C_9
REMARK    2  A    between atoms: C_9  and  O_11
REMARK    3  A    between atoms: O_11  and  C_12
REMARK    4  A    between atoms: C_15  and  C_16
REMARK    5  A    between atoms: C_16  and  C_17
REMARK    6  A    between atoms: C_17  and  O_19
REMARK                            x       y       z     vdW  Elec       q    Type
REMARK                         _______ _______ _______ _____ _____    ______ ____
ROOT
ATOM      1  C   UNL     1       2.070   7.489  19.314  0.00  0.00    +0.000 C 
ATOM      2  O   UNL     1       2.435   6.908  20.330  0.00  0.00    +0.000 OA
ENDROOT
BRANCH   1  10
ATOM      3  N   UNL     1      -1.098  14.608  19.415  0.00  0.00    +0.000 NA
ATOM      4  C   UNL     1      -0.708  13.444  19.016  0.00  0.00    +0.000 C 
ATOM      5  N   UNL     1      -0.890  13.042  17.742  0.00  0.00    +0.000 N 
ATOM      6  N   UNL     1      -0.175  12.570  19.891  0.00  0.00    +0.000 N 
ATOM      7  C   UNL     1       0.372  11.317  19.684  0.00  0.00    +0.000 A 
ATOM      8  N   UNL     1       0.816  10.944  18.461  0.00  0.00    +0.000 NA
ATOM      9  C   UNL     1       1.377   9.714  18.343  0.00  0.00    +0.000 A 
ATOM     10  C   UNL     1       1.471   8.826  19.385  0.00  0.00    +0.000 A 
ATOM     11  C   UNL     1       0.983   9.288  20.586  0.00  0.00    +0.000 A 
ATOM     12  N   UNL     1       0.458  10.521  20.762  0.00  0.00    +0.000 NA
ATOM     13  H   UNL     1      -1.525  15.103  18.630  0.00  0.00    +0.000 HD
ATOM     14  H   UNL     1      -1.034  13.755  17.043  0.00  0.00    +0.000 HD
ATOM     15  H   UNL     1      -0.245  12.311  17.446  0.00  0.00    +0.000 HD
ATOM     16  H   UNL     1      -0.250  12.811  20.866  0.00  0.00    +0.000 HD
ENDBRANCH   1  10
BRANCH   1  17
ATOM     17  O   UNL     1       2.114   7.022  18.036  0.00  0.00    +0.000 OA
BRANCH  17  18
ATOM     18  C   UNL     1       3.346   6.448  17.679  0.00  0.00    +0.000 A 
ATOM     19  C   UNL     1       4.485   7.139  17.439  0.00  0.00    +0.000 A 
ATOM     20  C   UNL     1       5.702   6.474  16.994  0.00  0.00    +0.000 A 
ATOM     21  C   UNL     1       5.720   5.131  16.883  0.00  0.00    +0.000 A 
ATOM     22  N   UNL     1       4.563   4.417  17.231  0.00  0.00    +0.000 N 
ATOM     23  N   UNL     1       4.408   3.063  17.280  0.00  0.00    +0.000 NA
ATOM     24  C   UNL     1       3.115   2.943  17.596  0.00  0.00    +0.000 A 
ATOM     25  N   UNL     1       2.445   4.107  17.828  0.00  0.00    +0.000 NA
ATOM     26  C   UNL     1       3.363   5.026  17.616  0.00  0.00    +0.000 A 
BRANCH  21  27
ATOM     27  C   UNL     1       6.890   4.361  16.340  0.00  0.00    +0.000 C 
BRANCH  27  28
ATOM     28  C   UNL     1       7.025   4.511  14.840  0.00  0.00    +0.000 C 
ATOM     29  O   UNL     1       7.642   5.428  14.312  0.00  0.00    +0.000 OA
BRANCH  28  30
ATOM     30  O   UNL     1       6.389   3.557  14.123  0.00  0.00    +0.000 OA
ATOM     31  H   UNL     1       5.969   2.857  14.675  0.00  0.00    +0.000 HD
ENDBRANCH  28  30
ENDBRANCH  27  28
ENDBRANCH  21  27
ENDBRANCH  17  18
ENDBRANCH   1  17
TORSDOF 6
ENDMDL
MODEL 4
REMARK VINA RESULT:      -7.3      2.783      4.395
REMARK  Name = 
REMARK  6 active torsions:
REMARK  status: ('A' for Active; 'I' for Inactive)
REMARK    1  A    between atoms: C_8  and  C_9
REMARK    2  A    between atoms: C_9  and  O_11
REMARK    3  A    between atoms: O_11  and  C_12
REMARK    4  A    between atoms: C_15  and  C_16
REMARK    5  A    between atoms: C_16  and  C_17
REMARK    6  A    between atoms: C_17  and  O_19
REMARK                            x       y       z     vdW  Elec       q    Type
REMARK                         _______ _______ _______ _____ _____    ______ ____
ROOT
ATOM      1  C   UNL     1       7.963   8.044  18.005  0.00  0.00    +0.000 C 
ATOM      2  O   UNL     1       8.306   7.129  18.746  0.00  0.00    +0.000 OA
ENDROOT
BRANCH   1  10
ATOM      3  N   UNL     1      10.276  15.414  19.031  0.00  0.00    +0.000 NA
ATOM      4  C   UNL     1       9.588  14.383  18.673  0.00  0.00    +0.000 C 
ATOM      5  N   UNL     1       8.463  14.510  17.941  0.00  0.00    +0.000 N 
ATOM      6  N   UNL     1       9.940  13.153  19.091  0.00  0.00    +0.000 N 
ATOM      7  C   UNL     1       9.409  11.915  18.781  0.00  0.00    +0.000 A 
ATOM      8  N   UNL     1       8.671  11.734  17.661  0.00  0.00    +0.000 NA
ATOM      9  C   UNL     1       8.215  10.483  17.401  0.00  0.00    +0.000 A 
ATOM     10  C   UNL     1       8.428   9.415  18.239  0.00  0.00    +0.000 A 
ATOM     11  C   UNL     1       9.177   9.697  19.358  0.00  0.00    +0.000 A 
ATOM     12  N   UNL     1       9.690  10.916  19.634  0.00  0.00    +0.000 NA
ATOM     13  H   UNL     1       9.827  16.257  18.668  0.00  0.00    +0.000 HD
ATOM     14  H   UNL     1       8.341  15.362  17.415  0.00  0.00    +0.000 HD
ATOM     15  H   UNL     1       8.219  13.673  17.414  0.00  0.00    +0.000 HD
ATOM     16  H   UNL     1      10.649  13.110  19.807  0.00  0.00    +0.000 HD
ENDBRANCH   1  10
BRANCH   1  17
ATOM     17  O   UNL     1       7.123   7.970  16.937  0.00  0.00    +0.000 OA
BRANCH  17  18
ATOM     18  C   UNL     1       6.138   6.974  17.052  0.00  0.00    +0.000 A 
ATOM     19  C   UNL     1       5.019   7.070  17.807  0.00  0.00    +0.000 A 
ATOM     20  C   UNL     1       4.086   5.959  17.935  0.00  0.00    +0.000 A 
ATOM     21  C   UNL     1       4.302   4.828  17.233  0.00  0.00    +0.000 A 
ATOM     22  N   UNL     1       5.412   4.777  16.375  0.00  0.00    +0.000 N 
ATOM     23  N   UNL     1       5.750   3.774  15.516  0.00  0.00    +0.000 NA
ATOM     24  C   UNL     1       6.909   4.215  15.017  0.00  0.00    +0.000 A 
ATOM     25  N   UNL     1       7.306   5.452  15.427  0.00  0.00    +0.000 NA
ATOM     26  C   UNL     1       6.354   5.807  16.264  0.00  0.00    +0.000 A 
BRANCH  21  27
ATOM     27  C   UNL     1       3.458   3.594  17.371  0.00  0.00    +0.000 C 
BRANCH  27  28
ATOM     28  C   UNL     1       4.028   2.623  18.382  0.00  0.00    +0.000 C 
ATOM     29  O   UNL     1       3.566   1.504  18.569  0.00  0.00    +0.000 OA
BRANCH  28  30
ATOM     30  O   UNL     1       5.083   3.098  19.081  0.00  0.00    +0.000 OA
ATOM     31  H   UNL     1       5.589   3.801  18.611  0.00  0.00    +0.000 HD
ENDBRANCH  28  30
ENDBRANCH  27  28
ENDBRANCH  21  27
ENDBRANCH  17  18
ENDBRANCH   1  17
TORSDOF 6
ENDMDL
MODEL 5
REMARK VINA RESULT:      -7.3      3.069      6.538
REMARK  Name = 
REMARK  6 active torsions:
REMARK  status: ('A' for Active; 'I' for Inactive)
REMARK    1  A    between atoms: C_8  and  C_9
REMARK    2  A    between atoms: C_9  and  O_11
REMARK    3  A    between atoms: O_11  and  C_12
REMARK    4  A    between atoms: C_15  and  C_16
REMARK    5  A    between atoms: C_16  and  C_17
REMARK    6  A    between atoms: C_17  and  O_19
REMARK                            x       y       z     vdW  Elec       q    Type
REMARK                         _______ _______ _______ _____ _____    ______ ____
ROOT
ATOM      1  C   UNL     1       2.494   5.922  19.833  0.00  0.00    +0.000 C 
ATOM      2  O   UNL     1       1.631   5.076  20.040  0.00  0.00    +0.000 OA
ENDROOT
BRANCH   1  10
ATOM      3  N   UNL     1       0.500  13.267  18.158  0.00  0.00    +0.000 NA
ATOM      4  C   UNL     1       0.886  12.217  18.801  0.00  0.00    +0.000 C 
ATOM      5  N   UNL     1       1.150  12.261  20.123  0.00  0.00    +0.000 N 
ATOM      6  N   UNL     1       1.109  11.063  18.145  0.00  0.00    +0.000 N 
ATOM      7  C   UNL     1       1.449   9.811  18.624  0.00  0.00    +0.000 A 
ATOM      8  N   UNL     1       1.216   9.472  19.913  0.00  0.00    +0.000 NA
ATOM      9  C   UNL     1       1.539   8.212  20.302  0.00  0.00    +0.000 A 
ATOM     10  C   UNL     1       2.128   7.295  19.467  0.00  0.00    +0.000 A 
ATOM     11  C   UNL     1       2.338   7.733  18.180  0.00  0.00    +0.000 A 
ATOM     12  N   UNL     1       1.990   8.961  17.736  0.00  0.00    +0.000 NA
ATOM     13  H   UNL     1       0.441  14.053  18.809  0.00  0.00    +0.000 HD
ATOM     14  H   UNL     1       0.745  13.016  20.655  0.00  0.00    +0.000 HD
ATOM     15  H   UNL     1       1.078  11.357  20.587  0.00  0.00    +0.000 HD
ATOM     16  H   UNL     1       1.114  11.115  17.138  0.00  0.00    +0.000 HD
ENDBRANCH   1  10
BRANCH   1  17
ATOM     17  O   UNL     1       3.843   5.750  19.864  0.00  0.00    +0.000 OA
BRANCH  17  18
ATOM     18  C   UNL     1       4.381   5.233  18.672  0.00  0.00    +0.000 A 
ATOM     19  C   UNL     1       3.657   4.824  17.606  0.00  0.00    +0.000 A 
ATOM     20  C   UNL     1       4.288   4.224  16.438  0.00  0.00    +0.000 A 
ATOM     21  C   UNL     1       5.632   4.134  16.385  0.00  0.00    +0.000 A 
ATOM     22  N   UNL     1       6.378   4.654  17.454  0.00  0.00    +0.000 N 
ATOM     23  N   UNL     1       7.735   4.747  17.549  0.00  0.00    +0.000 NA
ATOM     24  C   UNL     1       7.893   5.243  18.780  0.00  0.00    +0.000 A 
ATOM     25  N   UNL     1       6.749   5.547  19.455  0.00  0.00    +0.000 NA
ATOM     26  C   UNL     1       5.803   5.192  18.611  0.00  0.00    +0.000 A 
BRANCH  21  27
ATOM     27  C   UNL     1       6.372   3.446  15.274  0.00  0.00    +0.000 C 
BRANCH  27  28
ATOM     28  C   UNL     1       6.624   4.366  14.099  0.00  0.00    +0.000 C 
ATOM     29  O   UNL     1       6.518   4.007  12.933  0.00  0.00    +0.000 OA
BRANCH  28  30
ATOM     30  O   UNL     1       6.998   5.619  14.441  0.00  0.00    +0.000 OA
ATOM     31  H   UNL     1       7.168   6.209  13.670  0.00  0.00    +0.000 HD
ENDBRANCH  28  30
ENDBRANCH  27  28
ENDBRANCH  21  27
ENDBRANCH  17  18
ENDBRANCH   1  17
TORSDOF 6
ENDMDL
MODEL 6
REMARK VINA RESULT:      -7.3      4.397      6.737
REMARK  Name = 
REMARK  6 active torsions:
REMARK  status: ('A' for Active; 'I' for Inactive)
REMARK    1  A    between atoms: C_8  and  C_9
REMARK    2  A    between atoms: C_9  and  O_11
REMARK    3  A    between atoms: O_11  and  C_12
REMARK    4  A    between atoms: C_15  and  C_16
REMARK    5  A    between atoms: C_16  and  C_17
REMARK    6  A    between atoms: C_17  and  O_19
REMARK                            x       y       z     vdW  Elec       q    Type
REMARK                         _______ _______ _______ _____ _____    ______ ____
ROOT
ATOM      1  C   UNL     1       2.422   6.243  19.617  0.00  0.00    +0.000 C 
ATOM      2  O   UNL     1       1.611   5.533  20.201  0.00  0.00    +0.000 OA
ENDROOT
BRANCH   1  10
ATOM      3  N   UNL     1       6.773   3.697  13.675  0.00  0.00    +0.000 NA
ATOM      4  C   UNL     1       6.383   4.346  14.719  0.00  0.00    +0.000 C 
ATOM      5  N   UNL     1       7.153   5.299  15.283  0.00  0.00    +0.000 N 
ATOM      6  N   UNL     1       5.221   4.029  15.321  0.00  0.00    +0.000 N 
ATOM      7  C   UNL     1       4.573   4.624  16.389  0.00  0.00    +0.000 A 
ATOM      8  N   UNL     1       4.846   5.901  16.746  0.00  0.00    +0.000 NA
ATOM      9  C   UNL     1       4.142   6.430  17.778  0.00  0.00    +0.000 A 
ATOM     10  C   UNL     1       3.212   5.720  18.497  0.00  0.00    +0.000 A 
ATOM     11  C   UNL     1       3.011   4.428  18.070  0.00  0.00    +0.000 A 
ATOM     12  N   UNL     1       3.654   3.874  17.018  0.00  0.00    +0.000 NA
ATOM     13  H   UNL     1       7.696   4.037  13.397  0.00  0.00    +0.000 HD
ATOM     14  H   UNL     1       7.872   5.717  14.711  0.00  0.00    +0.000 HD
ATOM     15  H   UNL     1       6.630   5.979  15.833  0.00  0.00    +0.000 HD
ATOM     16  H   UNL     1       4.775   3.180  15.013  0.00  0.00    +0.000 HD
ENDBRANCH   1  10
BRANCH   1  17
ATOM     17  O   UNL     1       2.743   7.535  19.903  0.00  0.00    +0.000 OA
BRANCH  17  18
ATOM     18  C   UNL     1       1.706   8.450  19.656  0.00  0.00    +0.000 A 
ATOM     19  C   UNL     1       1.302   8.855  18.430  0.00  0.00    +0.000 A 
ATOM     20  C   UNL     1       0.271   9.870  18.262  0.00  0.00    +0.000 A 
ATOM     21  C   UNL     1      -0.348  10.372  19.350  0.00  0.00    +0.000 A 
ATOM     22  N   UNL     1       0.009   9.871  20.611  0.00  0.00    +0.000 N 
ATOM     23  N   UNL     1      -0.557  10.173  21.813  0.00  0.00    +0.000 NA
ATOM     24  C   UNL     1       0.206   9.479  22.663  0.00  0.00    +0.000 A 
ATOM     25  N   UNL     1       1.169   8.696  22.099  0.00  0.00    +0.000 NA
ATOM     26  C   UNL     1       1.028   8.932  20.812  0.00  0.00    +0.000 A 
BRANCH  21  27
ATOM     27  C   UNL     1      -1.350  11.489  19.290  0.00  0.00    +0.000 C 
BRANCH  27  28
ATOM     28  C   UNL     1      -1.035  12.479  18.190  0.00  0.00    +0.000 C 
ATOM     29  O   UNL     1      -0.247  13.407  18.329  0.00  0.00    +0.000 OA
BRANCH  28  30
ATOM     30  O   UNL     1      -1.713  12.270  17.039  0.00  0.00    +0.000 OA
ATOM     31  H   UNL     1      -2.071  13.093  16.632  0.00  0.00    +0.000 HD
ENDBRANCH  28  30
ENDBRANCH  27  28
ENDBRANCH  21  27
ENDBRANCH  17  18
ENDBRANCH   1  17
TORSDOF 6
ENDMDL
MODEL 7
REMARK VINA RESULT:      -7.3      4.071      7.559
REMARK  Name = 
REMARK  6 active torsions:
REMARK  status: ('A' for Active; 'I' for Inactive)
REMARK    1  A    between atoms: C_8  and  C_9
REMARK    2  A    between atoms: C_9  and  O_11
REMARK    3  A    between atoms: O_11  and  C_12
REMARK    4  A    between atoms: C_15  and  C_16
REMARK    5  A    between atoms: C_16  and  C_17
REMARK    6  A    between atoms: C_17  and  O_19
REMARK                            x       y       z     vdW  Elec       q    Type
REMARK                         _______ _______ _______ _____ _____    ______ ____
ROOT
ATOM      1  C   UNL     1       1.853   8.611  18.451  0.00  0.00    +0.000 C 
ATOM      2  O   UNL     1       2.046   9.044  17.321  0.00  0.00    +0.000 OA
ENDROOT
BRANCH   1  10
ATOM      3  N   UNL     1      -2.468  12.808  23.396  0.00  0.00    +0.000 NA
ATOM      4  C   UNL     1      -2.020  12.266  22.313  0.00  0.00    +0.000 C 
ATOM      5  N   UNL     1      -2.576  12.531  21.113  0.00  0.00    +0.000 N 
ATOM      6  N   UNL     1      -1.028  11.357  22.369  0.00  0.00    +0.000 N 
ATOM      7  C   UNL     1      -0.348  10.710  21.354  0.00  0.00    +0.000 A 
ATOM      8  N   UNL     1      -0.325  11.215  20.098  0.00  0.00    +0.000 NA
ATOM      9  C   UNL     1       0.397  10.547  19.164  0.00  0.00    +0.000 A 
ATOM     10  C   UNL     1       1.057   9.371  19.421  0.00  0.00    +0.000 A 
ATOM     11  C   UNL     1       0.967   8.928  20.721  0.00  0.00    +0.000 A 
ATOM     12  N   UNL     1       0.300   9.584  21.696  0.00  0.00    +0.000 NA
ATOM     13  H   UNL     1      -3.251  13.421  23.161  0.00  0.00    +0.000 HD
ATOM     14  H   UNL     1      -3.117  13.378  21.026  0.00  0.00    +0.000 HD
ATOM     15  H   UNL     1      -1.950  12.370  20.326  0.00  0.00    +0.000 HD
ATOM     16  H   UNL     1      -0.783  11.019  23.286  0.00  0.00    +0.000 HD
ENDBRANCH   1  10
BRANCH   1  17
ATOM     17  O   UNL     1       2.335   7.456  18.986  0.00  0.00    +0.000 OA
BRANCH  17  18
ATOM     18  C   UNL     1       3.236   6.772  18.152  0.00  0.00    +0.000 A 
ATOM     19  C   UNL     1       4.328   7.320  17.572  0.00  0.00    +0.000 A 
ATOM     20  C   UNL     1       5.168   6.562  16.655  0.00  0.00    +0.000 A 
ATOM     21  C   UNL     1       4.895   5.261  16.428  0.00  0.00    +0.000 A 
ATOM     22  N   UNL     1       3.819   4.676  17.114  0.00  0.00    +0.000 N 
ATOM     23  N   UNL     1       3.441   3.367  17.099  0.00  0.00    +0.000 NA
ATOM     24  C   UNL     1       2.339   3.387  17.856  0.00  0.00    +0.000 A 
ATOM     25  N   UNL     1       2.021   4.587  18.418  0.00  0.00    +0.000 NA
ATOM     26  C   UNL     1       2.964   5.387  17.964  0.00  0.00    +0.000 A 
BRANCH  21  27
ATOM     27  C   UNL     1       5.637   4.422  15.429  0.00  0.00    +0.000 C 
BRANCH  27  28
ATOM     28  C   UNL     1       7.109   4.770  15.371  0.00  0.00    +0.000 C 
ATOM     29  O   UNL     1       7.625   5.338  14.417  0.00  0.00    +0.000 OA
BRANCH  28  30
ATOM     30  O   UNL     1       7.817   4.385  16.456  0.00  0.00    +0.000 OA
ATOM     31  H   UNL     1       8.290   3.528  16.340  0.00  0.00    +0.000 HD
ENDBRANCH  28  30
ENDBRANCH  27  28
ENDBRANCH  21  27
ENDBRANCH  17  18
ENDBRANCH   1  17
TORSDOF 6
ENDMDL
MODEL 8
REMARK VINA RESULT:      -7.2      3.183      6.804
REMARK  Name = 
REMARK  6 active torsions:
REMARK  status: ('A' for Active; 'I' for Inactive)
REMARK    1  A    between atoms: C_8  and  C_9
REMARK    2  A    between atoms: C_9  and  O_11
REMARK    3  A    between atoms: O_11  and  C_12
REMARK    4  A    between atoms: C_15  and  C_16
REMARK    5  A    between atoms: C_16  and  C_17
REMARK    6  A    between atoms: C_17  and  O_19
REMARK                            x       y       z     vdW  Elec       q    Type
REMARK                         _______ _______ _______ _____ _____    ______ ____
ROOT
ATOM      1  C   UNL     1       2.530   5.874  19.910  0.00  0.00    +0.000 C 
ATOM      2  O   UNL     1       1.799   4.889  19.897  0.00  0.00    +0.000 OA
ENDROOT
BRANCH   1  10
ATOM      3  N   UNL     1      -0.419  13.082  19.636  0.00  0.00    +0.000 NA
ATOM      4  C   UNL     1      -0.022  11.906  19.287  0.00  0.00    +0.000 C 
ATOM      5  N   UNL     1      -0.073  11.500  18.002  0.00  0.00    +0.000 N 
ATOM      6  N   UNL     1       0.385  11.022  20.218  0.00  0.00    +0.000 N 
ATOM      7  C   UNL     1       0.915   9.752  20.077  0.00  0.00    +0.000 A 
ATOM      8  N   UNL     1       1.480   9.358  18.912  0.00  0.00    +0.000 NA
ATOM      9  C   UNL     1       2.015   8.113  18.861  0.00  0.00    +0.000 A 
ATOM     10  C   UNL     1       1.966   7.228  19.910  0.00  0.00    +0.000 A 
ATOM     11  C   UNL     1       1.361   7.712  21.047  0.00  0.00    +0.000 A 
ATOM     12  N   UNL     1       0.856   8.960  21.160  0.00  0.00    +0.000 NA
ATOM     13  H   UNL     1      -0.741  13.585  18.807  0.00  0.00    +0.000 HD
ATOM     14  H   UNL     1      -0.118  12.213  17.289  0.00  0.00    +0.000 HD
ATOM     15  H   UNL     1       0.580  10.750  17.781  0.00  0.00    +0.000 HD
ATOM     16  H   UNL     1       0.209  11.272  21.178  0.00  0.00    +0.000 HD
ENDBRANCH   1  10
BRANCH   1  17
ATOM     17  O   UNL     1       3.890   5.893  19.888  0.00  0.00    +0.000 OA
BRANCH  17  18
ATOM     18  C   UNL     1       4.451   5.374  18.708  0.00  0.00    +0.000 A 
ATOM     19  C   UNL     1       3.760   5.080  17.583  0.00  0.00    +0.000 A 
ATOM     20  C   UNL     1       4.404   4.469  16.429  0.00  0.00    +0.000 A 
ATOM     21  C   UNL     1       5.734   4.251  16.451  0.00  0.00    +0.000 A 
ATOM     22  N   UNL     1       6.457   4.653  17.584  0.00  0.00    +0.000 N 
ATOM     23  N   UNL     1       7.808   4.611  17.764  0.00  0.00    +0.000 NA
ATOM     24  C   UNL     1       7.935   5.040  19.023  0.00  0.00    +0.000 A 
ATOM     25  N   UNL     1       6.784   5.426  19.643  0.00  0.00    +0.000 NA
ATOM     26  C   UNL     1       5.864   5.199  18.729  0.00  0.00    +0.000 A 
BRANCH  21  27
ATOM     27  C   UNL     1       6.475   3.539  15.356  0.00  0.00    +0.000 C 
BRANCH  27  28
ATOM     28  C   UNL     1       6.582   4.377  14.100  0.00  0.00    +0.000 C 
ATOM     29  O   UNL     1       7.237   5.410  14.038  0.00  0.00    +0.000 OA
BRANCH  28  30
ATOM     30  O   UNL     1       5.876   3.902  13.049  0.00  0.00    +0.000 OA
ATOM     31  H   UNL     1       5.263   4.562  12.649  0.00  0.00    +0.000 HD
ENDBRANCH  28  30
ENDBRANCH  27  28
ENDBRANCH  21  27
ENDBRANCH  17  18
ENDBRANCH   1  17
TORSDOF 6
ENDMDL
MODEL 9
REMARK VINA RESULT:      -7.2      4.087      7.614
REMARK  Name = 
REMARK  6 active torsions:
REMARK  status: ('A' for Active; 'I' for Inactive)
REMARK    1  A    between atoms: C_8  and  C_9
REMARK    2  A    between atoms: C_9  and  O_11
REMARK    3  A    between atoms: O_11  and  C_12
REMARK    4  A    between atoms: C_15  and  C_16
REMARK    5  A    between atoms: C_16  and  C_17
REMARK    6  A    between atoms: C_17  and  O_19
REMARK                            x       y       z     vdW  Elec       q    Type
REMARK                         _______ _______ _______ _____ _____    ______ ____
ROOT
ATOM      1  C   UNL     1       1.884   8.764  18.254  0.00  0.00    +0.000 C 
ATOM      2  O   UNL     1       2.274   9.176  17.167  0.00  0.00    +0.000 OA
ENDROOT
BRANCH   1  10
ATOM      3  N   UNL     1      -2.892  12.852  22.860  0.00  0.00    +0.000 NA
ATOM      4  C   UNL     1      -1.987  12.025  22.457  0.00  0.00    +0.000 C 
ATOM      5  N   UNL     1      -1.334  11.223  23.321  0.00  0.00    +0.000 N 
ATOM      6  N   UNL     1      -1.619  12.001  21.162  0.00  0.00    +0.000 N 
ATOM      7  C   UNL     1      -0.741  11.165  20.496  0.00  0.00    +0.000 A 
ATOM      8  N   UNL     1      -0.409   9.955  21.004  0.00  0.00    +0.000 NA
ATOM      9  C   UNL     1       0.427   9.173  20.276  0.00  0.00    +0.000 A 
ATOM     10  C   UNL     1       0.980   9.570  19.083  0.00  0.00    +0.000 A 
ATOM     11  C   UNL     1       0.594  10.818  18.652  0.00  0.00    +0.000 A 
ATOM     12  N   UNL     1      -0.271  11.612  19.320  0.00  0.00    +0.000 NA
ATOM     13  H   UNL     1      -2.994  12.766  23.873  0.00  0.00    +0.000 HD
ATOM     14  H   UNL     1      -1.769  11.044  24.213  0.00  0.00    +0.000 HD
ATOM     15  H   UNL     1      -0.941  10.387  22.890  0.00  0.00    +0.000 HD
ATOM     16  H   UNL     1      -1.963  12.752  20.585  0.00  0.00    +0.000 HD
ENDBRANCH   1  10
BRANCH   1  17
ATOM     17  O   UNL     1       2.221   7.595  18.863  0.00  0.00    +0.000 OA
BRANCH  17  18
ATOM     18  C   UNL     1       3.153   6.825  18.146  0.00  0.00    +0.000 A 
ATOM     19  C   UNL     1       4.323   7.285  17.649  0.00  0.00    +0.000 A 
ATOM     20  C   UNL     1       5.197   6.440  16.846  0.00  0.00    +0.000 A 
ATOM     21  C   UNL     1       4.869   5.147  16.648  0.00  0.00    +0.000 A 
ATOM     22  N   UNL     1       3.703   4.655  17.253  0.00  0.00    +0.000 N 
ATOM     23  N   UNL     1       3.250   3.369  17.256  0.00  0.00    +0.000 NA
ATOM     24  C   UNL     1       2.087   3.484  17.905  0.00  0.00    +0.000 A 
ATOM     25  N   UNL     1       1.791   4.725  18.386  0.00  0.00    +0.000 NA
ATOM     26  C   UNL     1       2.817   5.450  17.990  0.00  0.00    +0.000 A 
BRANCH  21  27
ATOM     27  C   UNL     1       5.648   4.223  15.757  0.00  0.00    +0.000 C 
BRANCH  27  28
ATOM     28  C   UNL     1       7.117   4.582  15.708  0.00  0.00    +0.000 C 
ATOM     29  O   UNL     1       7.621   5.218  14.790  0.00  0.00    +0.000 OA
BRANCH  28  30
ATOM     30  O   UNL     1       7.840   4.124  16.754  0.00  0.00    +0.000 OA
ATOM     31  H   UNL     1       7.566   3.231  17.068  0.00  0.00    +0.000 HD
ENDBRANCH  28  30
ENDBRANCH  27  28
ENDBRANCH  21  27
ENDBRANCH  17  18
ENDBRANCH   1  17
TORSDOF 6
ENDMDL
