MODEL 1
REMARK VINA RESULT:      -8.3      0.000      0.000
REMARK  Name = 
REMARK  3 active torsions:
REMARK  status: ('A' for Active; 'I' for Inactive)
REMARK    1  A    between atoms: N_8  and  C_9
REMARK    2  A    between atoms: C_9  and  C_10
REMARK    3  A    between atoms: C_19  and  C_20
REMARK                            x       y       z     vdW  Elec       q    Type
REMARK                         _______ _______ _______ _____ _____    ______ ____
ROOT
ATOM      1  N   UNL     1       8.334   5.343  20.446  0.00  0.00    +0.000 N 
ATOM      2  C   UNL     1       7.631   5.694  19.318  0.00  0.00    +0.000 A 
ATOM      3  N   UNL     1       6.746   4.870  18.790  0.00  0.00    +0.000 NA
ATOM      4  C   UNL     1       6.117   5.350  17.672  0.00  0.00    +0.000 A 
ATOM      5  C   UNL     1       6.255   6.571  17.037  0.00  0.00    +0.000 A 
ATOM      6  N   UNL     1       5.475   6.692  15.936  0.00  0.00    +0.000 NA
ATOM      7  C   UNL     1       4.853   5.530  15.867  0.00  0.00    +0.000 A 
ATOM      8  N   UNL     1       5.196   4.688  16.901  0.00  0.00    +0.000 N 
ATOM      9  C   UNL     1       7.228   7.469  17.655  0.00  0.00    +0.000 A 
ATOM     10  N   UNL     1       7.643   8.680  17.385  0.00  0.00    +0.000 NA
ATOM     11  C   UNL     1       8.589   8.895  18.371  0.00  0.00    +0.000 A 
ATOM     12  N   UNL     1       8.754   7.881  19.245  0.00  0.00    +0.000 NA
ATOM     13  N   UNL     1       7.876   6.979  18.752  0.00  0.00    +0.000 N 
ATOM     14  H   UNL     1       7.893   4.635  21.021  0.00  0.00    +0.000 HD
ATOM     15  H   UNL     1       8.755   6.117  20.956  0.00  0.00    +0.000 HD
ENDROOT
BRANCH  11  16
ATOM     16  C   UNL     1       9.368  10.167  18.442  0.00  0.00    +0.000 A 
ATOM     17  C   UNL     1       9.688  10.841  19.607  0.00  0.00    +0.000 A 
ATOM     18  C   UNL     1      10.425  11.989  19.228  0.00  0.00    +0.000 A 
ATOM     19  C   UNL     1      10.500  11.955  17.857  0.00  0.00    +0.000 A 
ATOM     20  O   UNL     1       9.875  10.852  17.370  0.00  0.00    +0.000 OA
ENDBRANCH  11  16
BRANCH   8  21
ATOM     21  C   UNL     1       4.742   3.317  17.065  0.00  0.00    +0.000 C 
BRANCH  21  22
ATOM     22  C   UNL     1       3.466   3.242  17.871  0.00  0.00    +0.000 A 
ATOM     23  C   UNL     1       2.297   3.798  17.317  0.00  0.00    +0.000 A 
ATOM     24  C   UNL     1       1.074   3.726  17.987  0.00  0.00    +0.000 A 
ATOM     25  C   UNL     1       0.994   3.087  19.219  0.00  0.00    +0.000 A 
ATOM     26  C   UNL     1       2.141   2.540  19.791  0.00  0.00    +0.000 A 
ATOM     27  C   UNL     1       3.372   2.624  19.130  0.00  0.00    +0.000 A 
ATOM     28 BR   UNL     1       4.873   1.899  20.040  0.00  0.00    +0.000 Br
ENDBRANCH  21  22
ENDBRANCH   8  21
TORSDOF 3
ENDMDL
MODEL 2
REMARK VINA RESULT:      -7.8      6.307      7.720
REMARK  Name = 
REMARK  3 active torsions:
REMARK  status: ('A' for Active; 'I' for Inactive)
REMARK    1  A    between atoms: N_8  and  C_9
REMARK    2  A    between atoms: C_9  and  C_10
REMARK    3  A    between atoms: C_19  and  C_20
REMARK                            x       y       z     vdW  Elec       q    Type
REMARK                         _______ _______ _______ _____ _____    ______ ____
ROOT
ATOM      1  N   UNL     1       2.004  11.002  17.573  0.00  0.00    +0.000 N 
ATOM      2  C   UNL     1       1.877   9.921  18.413  0.00  0.00    +0.000 A 
ATOM      3  N   UNL     1       2.386   8.748  18.087  0.00  0.00    +0.000 NA
ATOM      4  C   UNL     1       2.188   7.762  19.018  0.00  0.00    +0.000 A 
ATOM      5  C   UNL     1       1.561   7.824  20.249  0.00  0.00    +0.000 A 
ATOM      6  N   UNL     1       1.540   6.635  20.898  0.00  0.00    +0.000 NA
ATOM      7  C   UNL     1       2.143   5.814  20.059  0.00  0.00    +0.000 A 
ATOM      8  N   UNL     1       2.567   6.448  18.915  0.00  0.00    +0.000 N 
ATOM      9  C   UNL     1       1.025   9.140  20.591  0.00  0.00    +0.000 A 
ATOM     10  N   UNL     1       0.387   9.616  21.629  0.00  0.00    +0.000 NA
ATOM     11  C   UNL     1       0.167  10.932  21.262  0.00  0.00    +0.000 A 
ATOM     12  N   UNL     1       0.663  11.287  20.059  0.00  0.00    +0.000 NA
ATOM     13  N   UNL     1       1.196  10.114  19.650  0.00  0.00    +0.000 N 
ATOM     14  H   UNL     1       2.778  10.948  16.922  0.00  0.00    +0.000 HD
ATOM     15  H   UNL     1       1.865  11.911  18.009  0.00  0.00    +0.000 HD
ENDROOT
BRANCH  11  16
ATOM     16  C   UNL     1      -0.575  11.876  22.149  0.00  0.00    +0.000 A 
ATOM     17  C   UNL     1      -1.762  11.590  22.801  0.00  0.00    +0.000 A 
ATOM     18  C   UNL     1      -2.122  12.751  23.527  0.00  0.00    +0.000 A 
ATOM     19  C   UNL     1      -1.143  13.679  23.267  0.00  0.00    +0.000 A 
ATOM     20  O   UNL     1      -0.196  13.158  22.444  0.00  0.00    +0.000 OA
ENDBRANCH  11  16
BRANCH   8  21
ATOM     21  C   UNL     1       3.195   5.808  17.771  0.00  0.00    +0.000 C 
BRANCH  21  22
ATOM     22  C   UNL     1       4.701   5.834  17.871  0.00  0.00    +0.000 A 
ATOM     23  C   UNL     1       5.389   6.906  17.269  0.00  0.00    +0.000 A 
ATOM     24  C   UNL     1       6.778   7.017  17.360  0.00  0.00    +0.000 A 
ATOM     25  C   UNL     1       7.506   6.065  18.065  0.00  0.00    +0.000 A 
ATOM     26  C   UNL     1       6.847   4.990  18.659  0.00  0.00    +0.000 A 
ATOM     27  C   UNL     1       5.456   4.867  18.557  0.00  0.00    +0.000 A 
ATOM     28 BR   UNL     1       4.682   3.326  19.353  0.00  0.00    +0.000 Br
ENDBRANCH  21  22
ENDBRANCH   8  21
TORSDOF 3
ENDMDL
MODEL 3
REMARK VINA RESULT:      -7.7      5.797      7.521
REMARK  Name = 
REMARK  3 active torsions:
REMARK  status: ('A' for Active; 'I' for Inactive)
REMARK    1  A    between atoms: N_8  and  C_9
REMARK    2  A    between atoms: C_9  and  C_10
REMARK    3  A    between atoms: C_19  and  C_20
REMARK                            x       y       z     vdW  Elec       q    Type
REMARK                         _______ _______ _______ _____ _____    ______ ____
ROOT
ATOM      1  N   UNL     1       2.238   9.857  17.351  0.00  0.00    +0.000 N 
ATOM      2  C   UNL     1       2.125   8.829  18.257  0.00  0.00    +0.000 A 
ATOM      3  N   UNL     1       2.696   7.662  18.029  0.00  0.00    +0.000 NA
ATOM      4  C   UNL     1       2.506   6.731  19.016  0.00  0.00    +0.000 A 
ATOM      5  C   UNL     1       1.828   6.845  20.217  0.00  0.00    +0.000 A 
ATOM      6  N   UNL     1       1.833   5.700  20.943  0.00  0.00    +0.000 NA
ATOM      7  C   UNL     1       2.504   4.855  20.184  0.00  0.00    +0.000 A 
ATOM      8  N   UNL     1       2.944   5.432  19.015  0.00  0.00    +0.000 N 
ATOM      9  C   UNL     1       1.222   8.154  20.450  0.00  0.00    +0.000 A 
ATOM     10  N   UNL     1       0.524   8.668  21.429  0.00  0.00    +0.000 NA
ATOM     11  C   UNL     1       0.262   9.945  20.967  0.00  0.00    +0.000 A 
ATOM     12  N   UNL     1       0.789  10.243  19.762  0.00  0.00    +0.000 NA
ATOM     13  N   UNL     1       1.388   9.071  19.453  0.00  0.00    +0.000 N 
ATOM     14  H   UNL     1       3.038   9.796  16.734  0.00  0.00    +0.000 HD
ATOM     15  H   UNL     1       2.043  10.786  17.720  0.00  0.00    +0.000 HD
ENDROOT
BRANCH  11  16
ATOM     16  C   UNL     1      -0.555  10.910  21.761  0.00  0.00    +0.000 A 
ATOM     17  C   UNL     1      -1.065  10.671  23.025  0.00  0.00    +0.000 A 
ATOM     18  C   UNL     1      -1.774  11.834  23.409  0.00  0.00    +0.000 A 
ATOM     19  C   UNL     1      -1.666  12.709  22.355  0.00  0.00    +0.000 A 
ATOM     20  O   UNL     1      -0.921  12.166  21.357  0.00  0.00    +0.000 OA
ENDBRANCH  11  16
BRANCH   8  21
ATOM     21  C   UNL     1       3.644   4.747  17.941  0.00  0.00    +0.000 C 
BRANCH  21  22
ATOM     22  C   UNL     1       5.140   4.929  18.042  0.00  0.00    +0.000 A 
ATOM     23  C   UNL     1       5.676   5.360  19.271  0.00  0.00    +0.000 A 
ATOM     24  C   UNL     1       7.053   5.507  19.448  0.00  0.00    +0.000 A 
ATOM     25  C   UNL     1       7.923   5.216  18.403  0.00  0.00    +0.000 A 
ATOM     26  C   UNL     1       7.414   4.798  17.175  0.00  0.00    +0.000 A 
ATOM     27  C   UNL     1       6.032   4.664  16.989  0.00  0.00    +0.000 A 
ATOM     28 BR   UNL     1       5.458   4.150  15.253  0.00  0.00    +0.000 Br
ENDBRANCH  21  22
ENDBRANCH   8  21
TORSDOF 3
ENDMDL
MODEL 4
REMARK VINA RESULT:      -7.6      1.248      1.655
REMARK  Name = 
REMARK  3 active torsions:
REMARK  status: ('A' for Active; 'I' for Inactive)
REMARK    1  A    between atoms: N_8  and  C_9
REMARK    2  A    between atoms: C_9  and  C_10
REMARK    3  A    between atoms: C_19  and  C_20
REMARK                            x       y       z     vdW  Elec       q    Type
REMARK                         _______ _______ _______ _____ _____    ______ ____
ROOT
ATOM      1  N   UNL     1       8.572   5.393  20.165  0.00  0.00    +0.000 N 
ATOM      2  C   UNL     1       7.672   5.719  19.179  0.00  0.00    +0.000 A 
ATOM      3  N   UNL     1       6.767   4.848  18.774  0.00  0.00    +0.000 NA
ATOM      4  C   UNL     1       5.932   5.308  17.790  0.00  0.00    +0.000 A 
ATOM      5  C   UNL     1       5.885   6.550  17.183  0.00  0.00    +0.000 A 
ATOM      6  N   UNL     1       4.927   6.641  16.228  0.00  0.00    +0.000 NA
ATOM      7  C   UNL     1       4.380   5.441  16.223  0.00  0.00    +0.000 A 
ATOM      8  N   UNL     1       4.942   4.602  17.157  0.00  0.00    +0.000 N 
ATOM      9  C   UNL     1       6.885   7.500  17.665  0.00  0.00    +0.000 A 
ATOM     10  N   UNL     1       7.170   8.742  17.372  0.00  0.00    +0.000 NA
ATOM     11  C   UNL     1       8.250   9.001  18.198  0.00  0.00    +0.000 A 
ATOM     12  N   UNL     1       8.622   7.981  18.998  0.00  0.00    +0.000 NA
ATOM     13  N   UNL     1       7.735   7.031  18.624  0.00  0.00    +0.000 N 
ATOM     14  H   UNL     1       8.279   4.643  20.779  0.00  0.00    +0.000 HD
ATOM     15  H   UNL     1       9.020   6.183  20.625  0.00  0.00    +0.000 HD
ENDROOT
BRANCH  11  16
ATOM     16  C   UNL     1       8.945  10.322  18.184  0.00  0.00    +0.000 A 
ATOM     17  C   UNL     1      10.124  10.609  18.849  0.00  0.00    +0.000 A 
ATOM     18  C   UNL     1      10.432  11.963  18.575  0.00  0.00    +0.000 A 
ATOM     19  C   UNL     1       9.419  12.426  17.770  0.00  0.00    +0.000 A 
ATOM     20  O   UNL     1       8.520  11.439  17.517  0.00  0.00    +0.000 OA
ENDBRANCH  11  16
BRANCH   8  21
ATOM     21  C   UNL     1       4.612   3.199  17.347  0.00  0.00    +0.000 C 
BRANCH  21  22
ATOM     22  C   UNL     1       3.840   2.973  18.626  0.00  0.00    +0.000 A 
ATOM     23  C   UNL     1       4.498   2.338  19.696  0.00  0.00    +0.000 A 
ATOM     24  C   UNL     1       3.860   2.136  20.921  0.00  0.00    +0.000 A 
ATOM     25  C   UNL     1       2.553   2.575  21.104  0.00  0.00    +0.000 A 
ATOM     26  C   UNL     1       1.879   3.196  20.054  0.00  0.00    +0.000 A 
ATOM     27  C   UNL     1       2.511   3.387  18.819  0.00  0.00    +0.000 A 
ATOM     28 BR   UNL     1       1.467   4.186  17.449  0.00  0.00    +0.000 Br
ENDBRANCH  21  22
ENDBRANCH   8  21
TORSDOF 3
ENDMDL
MODEL 5
REMARK VINA RESULT:      -7.6      8.124      9.816
REMARK  Name = 
REMARK  3 active torsions:
REMARK  status: ('A' for Active; 'I' for Inactive)
REMARK    1  A    between atoms: N_8  and  C_9
REMARK    2  A    between atoms: C_9  and  C_10
REMARK    3  A    between atoms: C_19  and  C_20
REMARK                            x       y       z     vdW  Elec       q    Type
REMARK                         _______ _______ _______ _____ _____    ______ ____
ROOT
ATOM      1  N   UNL     1       1.488  10.427  17.801  0.00  0.00    +0.000 N 
ATOM      2  C   UNL     1       1.051  10.121  19.068  0.00  0.00    +0.000 A 
ATOM      3  N   UNL     1       0.290  10.963  19.742  0.00  0.00    +0.000 NA
ATOM      4  C   UNL     1      -0.075  10.528  20.988  0.00  0.00    +0.000 A 
ATOM      5  C   UNL     1       0.214   9.336  21.627  0.00  0.00    +0.000 A 
ATOM      6  N   UNL     1      -0.308   9.259  22.875  0.00  0.00    +0.000 NA
ATOM      7  C   UNL     1      -0.916  10.420  23.029  0.00  0.00    +0.000 A 
ATOM      8  N   UNL     1      -0.816  11.218  21.913  0.00  0.00    +0.000 N 
ATOM      9  C   UNL     1       1.041   8.417  20.849  0.00  0.00    +0.000 A 
ATOM     10  N   UNL     1       1.520   7.220  21.071  0.00  0.00    +0.000 NA
ATOM     11  C   UNL     1       2.233   6.967  19.913  0.00  0.00    +0.000 A 
ATOM     12  N   UNL     1       2.192   7.944  18.984  0.00  0.00    +0.000 NA
ATOM     13  N   UNL     1       1.429   8.863  19.619  0.00  0.00    +0.000 N 
ATOM     14  H   UNL     1       0.925  11.108  17.307  0.00  0.00    +0.000 HD
ATOM     15  H   UNL     1       1.799   9.633  17.244  0.00  0.00    +0.000 HD
ENDROOT
BRANCH  11  16
ATOM     16  C   UNL     1       2.995   5.697  19.727  0.00  0.00    +0.000 A 
ATOM     17  C   UNL     1       2.565   4.444  20.127  0.00  0.00    +0.000 A 
ATOM     18  C   UNL     1       3.580   3.526  19.766  0.00  0.00    +0.000 A 
ATOM     19  C   UNL     1       4.573   4.271  19.179  0.00  0.00    +0.000 A 
ATOM     20  O   UNL     1       4.226   5.584  19.139  0.00  0.00    +0.000 OA
ENDBRANCH  11  16
BRANCH   8  21
ATOM     21  C   UNL     1      -1.313  12.579  21.795  0.00  0.00    +0.000 C 
BRANCH  21  22
ATOM     22  C   UNL     1      -2.757  12.612  21.354  0.00  0.00    +0.000 A 
ATOM     23  C   UNL     1      -3.036  12.470  19.981  0.00  0.00    +0.000 A 
ATOM     24  C   UNL     1      -4.349  12.448  19.507  0.00  0.00    +0.000 A 
ATOM     25  C   UNL     1      -5.410  12.557  20.399  0.00  0.00    +0.000 A 
ATOM     26  C   UNL     1      -5.157  12.709  21.760  0.00  0.00    +0.000 A 
ATOM     27  C   UNL     1      -3.842  12.747  22.237  0.00  0.00    +0.000 A 
ATOM     28 BR   UNL     1      -3.625  13.024  24.104  0.00  0.00    +0.000 Br
ENDBRANCH  21  22
ENDBRANCH   8  21
TORSDOF 3
ENDMDL
MODEL 6
REMARK VINA RESULT:      -7.6      7.643      8.418
REMARK  Name = 
REMARK  3 active torsions:
REMARK  status: ('A' for Active; 'I' for Inactive)
REMARK    1  A    between atoms: N_8  and  C_9
REMARK    2  A    between atoms: C_9  and  C_10
REMARK    3  A    between atoms: C_19  and  C_20
REMARK                            x       y       z     vdW  Elec       q    Type
REMARK                         _______ _______ _______ _____ _____    ______ ____
ROOT
ATOM      1  N   UNL     1       0.129   9.271  23.546  0.00  0.00    +0.000 N 
ATOM      2  C   UNL     1       0.377   9.320  22.195  0.00  0.00    +0.000 A 
ATOM      3  N   UNL     1       1.152   8.422  21.618  0.00  0.00    +0.000 NA
ATOM      4  C   UNL     1       1.309   8.588  20.267  0.00  0.00    +0.000 A 
ATOM      5  C   UNL     1       0.757   9.537  19.425  0.00  0.00    +0.000 A 
ATOM      6  N   UNL     1       1.153   9.401  18.136  0.00  0.00    +0.000 NA
ATOM      7  C   UNL     1       1.975   8.370  18.171  0.00  0.00    +0.000 A 
ATOM      8  N   UNL     1       2.093   7.834  19.432  0.00  0.00    +0.000 N 
ATOM      9  C   UNL     1      -0.112  10.505  20.089  0.00  0.00    +0.000 A 
ATOM     10  N   UNL     1      -0.815  11.527  19.673  0.00  0.00    +0.000 NA
ATOM     11  C   UNL     1      -1.372  12.000  20.847  0.00  0.00    +0.000 A 
ATOM     12  N   UNL     1      -1.062  11.301  21.958  0.00  0.00    +0.000 NA
ATOM     13  N   UNL     1      -0.244  10.357  21.439  0.00  0.00    +0.000 N 
ATOM     14  H   UNL     1       0.254   8.361  23.971  0.00  0.00    +0.000 HD
ATOM     15  H   UNL     1      -0.692   9.788  23.858  0.00  0.00    +0.000 HD
ENDROOT
BRANCH  11  16
ATOM     16  C   UNL     1      -2.250  13.208  20.864  0.00  0.00    +0.000 A 
ATOM     17  C   UNL     1      -1.803  14.517  20.900  0.00  0.00    +0.000 A 
ATOM     18  C   UNL     1      -2.952  15.344  20.907  0.00  0.00    +0.000 A 
ATOM     19  C   UNL     1      -4.030  14.494  20.886  0.00  0.00    +0.000 A 
ATOM     20  O   UNL     1      -3.619  13.200  20.848  0.00  0.00    +0.000 OA
ENDBRANCH  11  16
BRANCH   8  21
ATOM     21  C   UNL     1       2.976   6.743  19.813  0.00  0.00    +0.000 C 
BRANCH  21  22
ATOM     22  C   UNL     1       2.347   5.396  19.548  0.00  0.00    +0.000 A 
ATOM     23  C   UNL     1       1.365   4.932  20.445  0.00  0.00    +0.000 A 
ATOM     24  C   UNL     1       0.712   3.716  20.238  0.00  0.00    +0.000 A 
ATOM     25  C   UNL     1       1.019   2.944  19.124  0.00  0.00    +0.000 A 
ATOM     26  C   UNL     1       1.995   3.378  18.229  0.00  0.00    +0.000 A 
ATOM     27  C   UNL     1       2.664   4.589  18.441  0.00  0.00    +0.000 A 
ATOM     28 BR   UNL     1       4.017   5.040  17.188  0.00  0.00    +0.000 Br
ENDBRANCH  21  22
ENDBRANCH   8  21
TORSDOF 3
ENDMDL
MODEL 7
REMARK VINA RESULT:      -7.5      7.969      9.689
REMARK  Name = 
REMARK  3 active torsions:
REMARK  status: ('A' for Active; 'I' for Inactive)
REMARK    1  A    between atoms: N_8  and  C_9
REMARK    2  A    between atoms: C_9  and  C_10
REMARK    3  A    between atoms: C_19  and  C_20
REMARK                            x       y       z     vdW  Elec       q    Type
REMARK                         _______ _______ _______ _____ _____    ______ ____
ROOT
ATOM      1  N   UNL     1       1.779  10.437  17.669  0.00  0.00    +0.000 N 
ATOM      2  C   UNL     1       1.396  10.051  18.932  0.00  0.00    +0.000 A 
ATOM      3  N   UNL     1       0.745  10.881  19.724  0.00  0.00    +0.000 NA
ATOM      4  C   UNL     1       0.422  10.363  20.950  0.00  0.00    +0.000 A 
ATOM      5  C   UNL     1       0.654   9.101  21.464  0.00  0.00    +0.000 A 
ATOM      6  N   UNL     1       0.203   8.949  22.733  0.00  0.00    +0.000 NA
ATOM      7  C   UNL     1      -0.301  10.132  23.026  0.00  0.00    +0.000 A 
ATOM      8  N   UNL     1      -0.207  11.018  21.978  0.00  0.00    +0.000 N 
ATOM      9  C   UNL     1       1.360   8.197  20.557  0.00  0.00    +0.000 A 
ATOM     10  N   UNL     1       1.757   6.954  20.644  0.00  0.00    +0.000 NA
ATOM     11  C   UNL     1       2.378   6.756  19.424  0.00  0.00    +0.000 A 
ATOM     12  N   UNL     1       2.357   7.813  18.586  0.00  0.00    +0.000 NA
ATOM     13  N   UNL     1       1.708   8.723  19.347  0.00  0.00    +0.000 N 
ATOM     14  H   UNL     1       1.242  11.198  17.274  0.00  0.00    +0.000 HD
ATOM     15  H   UNL     1       1.993   9.676  17.027  0.00  0.00    +0.000 HD
ENDROOT
BRANCH  11  16
ATOM     16  C   UNL     1       3.026   5.455  19.080  0.00  0.00    +0.000 A 
ATOM     17  C   UNL     1       2.602   4.593  18.085  0.00  0.00    +0.000 A 
ATOM     18  C   UNL     1       3.485   3.487  18.095  0.00  0.00    +0.000 A 
ATOM     19  C   UNL     1       4.388   3.733  19.101  0.00  0.00    +0.000 A 
ATOM     20  O   UNL     1       4.127   4.925  19.697  0.00  0.00    +0.000 OA
ENDBRANCH  11  16
BRANCH   8  21
ATOM     21  C   UNL     1      -0.602  12.417  22.010  0.00  0.00    +0.000 C 
BRANCH  21  22
ATOM     22  C   UNL     1      -2.090  12.574  22.217  0.00  0.00    +0.000 A 
ATOM     23  C   UNL     1      -2.560  12.790  23.527  0.00  0.00    +0.000 A 
ATOM     24  C   UNL     1      -3.918  12.987  23.785  0.00  0.00    +0.000 A 
ATOM     25  C   UNL     1      -4.832  12.983  22.738  0.00  0.00    +0.000 A 
ATOM     26  C   UNL     1      -4.390  12.760  21.435  0.00  0.00    +0.000 A 
ATOM     27  C   UNL     1      -3.032  12.546  21.174  0.00  0.00    +0.000 A 
ATOM     28 BR   UNL     1      -2.563  12.189  19.368  0.00  0.00    +0.000 Br
ENDBRANCH  21  22
ENDBRANCH   8  21
TORSDOF 3
ENDMDL
MODEL 8
REMARK VINA RESULT:      -7.5      6.674      7.643
REMARK  Name = 
REMARK  3 active torsions:
REMARK  status: ('A' for Active; 'I' for Inactive)
REMARK    1  A    between atoms: N_8  and  C_9
REMARK    2  A    between atoms: C_9  and  C_10
REMARK    3  A    between atoms: C_19  and  C_20
REMARK                            x       y       z     vdW  Elec       q    Type
REMARK                         _______ _______ _______ _____ _____    ______ ____
ROOT
ATOM      1  N   UNL     1       1.900  11.441  17.673  0.00  0.00    +0.000 N 
ATOM      2  C   UNL     1       1.749  10.364  18.514  0.00  0.00    +0.000 A 
ATOM      3  N   UNL     1       2.266   9.190  18.208  0.00  0.00    +0.000 NA
ATOM      4  C   UNL     1       2.044   8.209  19.138  0.00  0.00    +0.000 A 
ATOM      5  C   UNL     1       1.383   8.277  20.351  0.00  0.00    +0.000 A 
ATOM      6  N   UNL     1       1.343   7.091  21.005  0.00  0.00    +0.000 NA
ATOM      7  C   UNL     1       1.969   6.265  20.188  0.00  0.00    +0.000 A 
ATOM      8  N   UNL     1       2.424   6.894  19.052  0.00  0.00    +0.000 N 
ATOM      9  C   UNL     1       0.838   9.594  20.672  0.00  0.00    +0.000 A 
ATOM     10  N   UNL     1       0.172  10.076  21.689  0.00  0.00    +0.000 NA
ATOM     11  C   UNL     1      -0.038  11.390  21.310  0.00  0.00    +0.000 A 
ATOM     12  N   UNL     1       0.491  11.739  20.119  0.00  0.00    +0.000 NA
ATOM     13  N   UNL     1       1.034  10.563  19.731  0.00  0.00    +0.000 N 
ATOM     14  H   UNL     1       2.691  11.383  17.043  0.00  0.00    +0.000 HD
ATOM     15  H   UNL     1       1.749  12.352  18.100  0.00  0.00    +0.000 HD
ENDROOT
BRANCH  11  16
ATOM     16  C   UNL     1      -0.804  12.339  22.172  0.00  0.00    +0.000 A 
ATOM     17  C   UNL     1      -2.181  12.469  22.183  0.00  0.00    +0.000 A 
ATOM     18  C   UNL     1      -2.491  13.473  23.132  0.00  0.00    +0.000 A 
ATOM     19  C   UNL     1      -1.287  13.903  23.635  0.00  0.00    +0.000 A 
ATOM     20  O   UNL     1      -0.260  13.217  23.070  0.00  0.00    +0.000 OA
ENDBRANCH  11  16
BRANCH   8  21
ATOM     21  C   UNL     1       3.083   6.248  17.929  0.00  0.00    +0.000 C 
BRANCH  21  22
ATOM     22  C   UNL     1       3.193   4.754  18.128  0.00  0.00    +0.000 A 
ATOM     23  C   UNL     1       2.089   3.954  17.776  0.00  0.00    +0.000 A 
ATOM     24  C   UNL     1       2.137   2.563  17.892  0.00  0.00    +0.000 A 
ATOM     25  C   UNL     1       3.294   1.945  18.353  0.00  0.00    +0.000 A 
ATOM     26  C   UNL     1       4.394   2.718  18.718  0.00  0.00    +0.000 A 
ATOM     27  C   UNL     1       4.344   4.114  18.617  0.00  0.00    +0.000 A 
ATOM     28 BR   UNL     1       5.882   5.060  19.205  0.00  0.00    +0.000 Br
ENDBRANCH  21  22
ENDBRANCH   8  21
TORSDOF 3
ENDMDL
MODEL 9
REMARK VINA RESULT:      -7.4      7.769      9.007
REMARK  Name = 
REMARK  3 active torsions:
REMARK  status: ('A' for Active; 'I' for Inactive)
REMARK    1  A    between atoms: N_8  and  C_9
REMARK    2  A    between atoms: C_9  and  C_10
REMARK    3  A    between atoms: C_19  and  C_20
REMARK                            x       y       z     vdW  Elec       q    Type
REMARK                         _______ _______ _______ _____ _____    ______ ____
ROOT
ATOM      1  N   UNL     1      -0.671  12.104  17.873  0.00  0.00    +0.000 N 
ATOM      2  C   UNL     1      -0.179  11.144  18.725  0.00  0.00    +0.000 A 
ATOM      3  N   UNL     1       0.672  10.231  18.297  0.00  0.00    +0.000 NA
ATOM      4  C   UNL     1       1.082   9.341  19.253  0.00  0.00    +0.000 A 
ATOM      5  C   UNL     1       0.757   9.276  20.596  0.00  0.00    +0.000 A 
ATOM      6  N   UNL     1       1.346   8.238  21.239  0.00  0.00    +0.000 NA
ATOM      7  C   UNL     1       2.033   7.635  20.288  0.00  0.00    +0.000 A 
ATOM      8  N   UNL     1       1.919   8.269  19.073  0.00  0.00    +0.000 N 
ATOM      9  C   UNL     1      -0.172  10.310  21.045  0.00  0.00    +0.000 A 
ATOM     10  N   UNL     1      -0.712  10.603  22.200  0.00  0.00    +0.000 NA
ATOM     11  C   UNL     1      -1.507  11.691  21.887  0.00  0.00    +0.000 A 
ATOM     12  N   UNL     1      -1.459  12.092  20.600  0.00  0.00    +0.000 NA
ATOM     13  N   UNL     1      -0.604  11.179  20.086  0.00  0.00    +0.000 N 
ATOM     14  H   UNL     1      -0.095  12.288  17.060  0.00  0.00    +0.000 HD
ATOM     15  H   UNL     1      -1.063  12.928  18.324  0.00  0.00    +0.000 HD
ENDROOT
BRANCH  11  16
ATOM     16  C   UNL     1      -2.358  12.359  22.917  0.00  0.00    +0.000 A 
ATOM     17  C   UNL     1      -2.140  13.625  23.431  0.00  0.00    +0.000 A 
ATOM     18  C   UNL     1      -3.168  13.868  24.374  0.00  0.00    +0.000 A 
ATOM     19  C   UNL     1      -3.944  12.734  24.389  0.00  0.00    +0.000 A 
ATOM     20  O   UNL     1      -3.471  11.819  23.504  0.00  0.00    +0.000 OA
ENDBRANCH  11  16
BRANCH   8  21
ATOM     21  C   UNL     1       2.493   7.812  17.818  0.00  0.00    +0.000 C 
BRANCH  21  22
ATOM     22  C   UNL     1       2.673   6.312  17.798  0.00  0.00    +0.000 A 
ATOM     23  C   UNL     1       1.544   5.504  18.037  0.00  0.00    +0.000 A 
ATOM     24  C   UNL     1       1.628   4.112  17.991  0.00  0.00    +0.000 A 
ATOM     25  C   UNL     1       2.840   3.499  17.693  0.00  0.00    +0.000 A 
ATOM     26  C   UNL     1       3.972   4.278  17.464  0.00  0.00    +0.000 A 
ATOM     27  C   UNL     1       3.895   5.675  17.525  0.00  0.00    +0.000 A 
ATOM     28 BR   UNL     1       5.518   6.625  17.258  0.00  0.00    +0.000 Br
ENDBRANCH  21  22
ENDBRANCH   8  21
TORSDOF 3
ENDMDL
