MODEL 1
REMARK VINA RESULT:      -8.7      0.000      0.000
REMARK  Name = 
REMARK  6 active torsions:
REMARK  status: ('A' for Active; 'I' for Inactive)
REMARK    1  A    between atoms: C_1  and  O_2
REMARK    2  A    between atoms: O_2  and  C_3
REMARK    3  A    between atoms: C_5  and  C_6
REMARK    4  A    between atoms: C_21  and  O_22
REMARK    5  A    between atoms: O_22  and  C_23
REMARK    6  A    between atoms: C_24  and  O_25
REMARK                            x       y       z     vdW  Elec       q    Type
REMARK                         _______ _______ _______ _____ _____    ______ ____
ROOT
ATOM      1  C   UNL     1       2.570   5.616  17.729  0.00  0.00    +0.000 C 
ATOM      2  C   UNL     1       1.469   4.551  17.683  0.00  0.00    +0.000 C 
ATOM      3  C   UNL     1       1.481   3.475  18.757  0.00  0.00    +0.000 C 
ATOM      4  O   UNL     1       1.304   2.299  18.447  0.00  0.00    +0.000 OA
ATOM      5  N   UNL     1       1.501   3.780  20.086  0.00  0.00    +0.000 N 
ATOM      6  C   UNL     1       2.298   4.777  20.782  0.00  0.00    +0.000 C 
ATOM      7  C   UNL     1       2.112   6.136  20.229  0.00  0.00    +0.000 A 
ATOM      8  N   UNL     1       1.735   7.211  21.013  0.00  0.00    +0.000 NA
ATOM      9  C   UNL     1       1.607   8.180  20.151  0.00  0.00    +0.000 A 
ATOM     10  S   UNL     1       1.056   9.824  20.243  0.00  0.00    +0.000 S 
ATOM     11  C   UNL     1       1.193   9.931  18.479  0.00  0.00    +0.000 A 
ATOM     12  C   UNL     1       1.649   8.794  17.919  0.00  0.00    +0.000 A 
ATOM     13  N   UNL     1       1.875   7.817  18.860  0.00  0.00    +0.000 N 
ATOM     14  C   UNL     1       2.262   6.506  18.896  0.00  0.00    +0.000 A 
ATOM     15  H   UNL     1       1.407   2.923  20.615  0.00  0.00    +0.000 HD
ENDROOT
BRANCH   1  18
ATOM     16  C   UNL     1       5.905   4.128  16.416  0.00  0.00    +0.000 A 
ATOM     17  C   UNL     1       4.545   4.486  16.519  0.00  0.00    +0.000 A 
ATOM     18  C   UNL     1       4.013   5.099  17.673  0.00  0.00    +0.000 A 
ATOM     19  C   UNL     1       4.903   5.321  18.736  0.00  0.00    +0.000 A 
ATOM     20  C   UNL     1       6.267   5.003  18.646  0.00  0.00    +0.000 A 
ATOM     21  C   UNL     1       6.771   4.419  17.477  0.00  0.00    +0.000 A 
BRANCH  16  23
ATOM     22  C   UNL     1       6.429   4.261  14.072  0.00  0.00    +0.000 C 
ATOM     23  O   UNL     1       6.198   3.484  15.240  0.00  0.00    +0.000 OA
ENDBRANCH  16  23
BRANCH  20  24
ATOM     24  O   UNL     1       6.967   5.223  19.805  0.00  0.00    +0.000 OA
ATOM     25  C   UNL     1       8.150   6.009  19.715  0.00  0.00    +0.000 C 
ENDBRANCH  20  24
BRANCH  21  26
ATOM     26  O   UNL     1       8.097   4.102  17.390  0.00  0.00    +0.000 OA
ATOM     27  H   UNL     1       8.332   4.205  16.450  0.00  0.00    +0.000 HD
ENDBRANCH  21  26
ENDBRANCH   1  18
TORSDOF 4
ENDMDL
MODEL 2
REMARK VINA RESULT:      -8.3      0.381      2.501
REMARK  Name = 
REMARK  6 active torsions:
REMARK  status: ('A' for Active; 'I' for Inactive)
REMARK    1  A    between atoms: C_1  and  O_2
REMARK    2  A    between atoms: O_2  and  C_3
REMARK    3  A    between atoms: C_5  and  C_6
REMARK    4  A    between atoms: C_21  and  O_22
REMARK    5  A    between atoms: O_22  and  C_23
REMARK    6  A    between atoms: C_24  and  O_25
REMARK                            x       y       z     vdW  Elec       q    Type
REMARK                         _______ _______ _______ _____ _____    ______ ____
ROOT
ATOM      1  C   UNL     1       2.790   5.886  17.656  0.00  0.00    +0.000 C 
ATOM      2  C   UNL     1       1.788   4.734  17.533  0.00  0.00    +0.000 C 
ATOM      3  C   UNL     1       1.862   3.621  18.567  0.00  0.00    +0.000 C 
ATOM      4  O   UNL     1       1.797   2.447  18.207  0.00  0.00    +0.000 OA
ATOM      5  N   UNL     1       1.815   3.873  19.906  0.00  0.00    +0.000 N 
ATOM      6  C   UNL     1       2.502   4.906  20.664  0.00  0.00    +0.000 C 
ATOM      7  C   UNL     1       2.214   6.265  20.157  0.00  0.00    +0.000 A 
ATOM      8  N   UNL     1       1.722   7.271  20.967  0.00  0.00    +0.000 NA
ATOM      9  C   UNL     1       1.537   8.260  20.139  0.00  0.00    +0.000 A 
ATOM     10  S   UNL     1       0.842   9.845  20.274  0.00  0.00    +0.000 S 
ATOM     11  C   UNL     1       1.021  10.034  18.520  0.00  0.00    +0.000 A 
ATOM     12  C   UNL     1       1.591   8.964  17.933  0.00  0.00    +0.000 A 
ATOM     13  N   UNL     1       1.873   7.973  18.845  0.00  0.00    +0.000 N 
ATOM     14  C   UNL     1       2.371   6.699  18.844  0.00  0.00    +0.000 A 
ATOM     15  H   UNL     1       1.781   2.991  20.399  0.00  0.00    +0.000 HD
ENDROOT
BRANCH   1  18
ATOM     16  C   UNL     1       6.403   5.045  18.797  0.00  0.00    +0.000 A 
ATOM     17  C   UNL     1       5.076   5.524  18.788  0.00  0.00    +0.000 A 
ATOM     18  C   UNL     1       4.274   5.498  17.628  0.00  0.00    +0.000 A 
ATOM     19  C   UNL     1       4.868   4.988  16.463  0.00  0.00    +0.000 A 
ATOM     20  C   UNL     1       6.174   4.477  16.453  0.00  0.00    +0.000 A 
ATOM     21  C   UNL     1       6.937   4.491  17.628  0.00  0.00    +0.000 A 
BRANCH  16  23
ATOM     22  C   UNL     1       8.316   5.823  20.031  0.00  0.00    +0.000 C 
ATOM     23  O   UNL     1       7.026   5.226  20.007  0.00  0.00    +0.000 OA
ENDBRANCH  16  23
BRANCH  20  24
ATOM     24  O   UNL     1       6.610   4.088  15.212  0.00  0.00    +0.000 OA
ATOM     25  C   UNL     1       5.673   4.146  14.142  0.00  0.00    +0.000 C 
ENDBRANCH  20  24
BRANCH  21  26
ATOM     26  O   UNL     1       8.213   4.001  17.619  0.00  0.00    +0.000 OA
ATOM     27  H   UNL     1       8.394   3.721  18.535  0.00  0.00    +0.000 HD
ENDBRANCH  21  26
ENDBRANCH   1  18
TORSDOF 4
ENDMDL
MODEL 3
REMARK VINA RESULT:      -7.9      3.630      6.382
REMARK  Name = 
REMARK  6 active torsions:
REMARK  status: ('A' for Active; 'I' for Inactive)
REMARK    1  A    between atoms: C_1  and  O_2
REMARK    2  A    between atoms: O_2  and  C_3
REMARK    3  A    between atoms: C_5  and  C_6
REMARK    4  A    between atoms: C_21  and  O_22
REMARK    5  A    between atoms: O_22  and  C_23
REMARK    6  A    between atoms: C_24  and  O_25
REMARK                            x       y       z     vdW  Elec       q    Type
REMARK                         _______ _______ _______ _____ _____    ______ ____
ROOT
ATOM      1  C   UNL     1       3.262   5.693  19.990  0.00  0.00    +0.000 C 
ATOM      2  C   UNL     1       2.649   4.423  20.589  0.00  0.00    +0.000 C 
ATOM      3  C   UNL     1       1.419   3.843  19.908  0.00  0.00    +0.000 C 
ATOM      4  O   UNL     1       0.461   3.474  20.585  0.00  0.00    +0.000 OA
ATOM      5  N   UNL     1       1.402   3.545  18.578  0.00  0.00    +0.000 N 
ATOM      6  C   UNL     1       1.910   4.326  17.461  0.00  0.00    +0.000 C 
ATOM      7  C   UNL     1       3.341   4.662  17.611  0.00  0.00    +0.000 A 
ATOM      8  N   UNL     1       4.281   4.355  16.644  0.00  0.00    +0.000 NA
ATOM      9  C   UNL     1       5.403   4.738  17.184  0.00  0.00    +0.000 A 
ATOM     10  S   UNL     1       7.075   4.619  16.729  0.00  0.00    +0.000 S 
ATOM     11  C   UNL     1       7.515   5.295  18.308  0.00  0.00    +0.000 A 
ATOM     12  C   UNL     1       6.445   5.593  19.068  0.00  0.00    +0.000 A 
ATOM     13  N   UNL     1       5.265   5.275  18.434  0.00  0.00    +0.000 N 
ATOM     14  C   UNL     1       3.926   5.289  18.708  0.00  0.00    +0.000 A 
ATOM     15  H   UNL     1       0.528   3.085  18.361  0.00  0.00    +0.000 HD
ENDROOT
BRANCH   1  18
ATOM     16  C   UNL     1       0.661   8.434  20.873  0.00  0.00    +0.000 A 
ATOM     17  C   UNL     1       1.424   7.249  20.907  0.00  0.00    +0.000 A 
ATOM     18  C   UNL     1       2.332   6.908  19.882  0.00  0.00    +0.000 A 
ATOM     19  C   UNL     1       2.428   7.800  18.803  0.00  0.00    +0.000 A 
ATOM     20  C   UNL     1       1.704   9.001  18.760  0.00  0.00    +0.000 A 
ATOM     21  C   UNL     1       0.830   9.325  19.806  0.00  0.00    +0.000 A 
BRANCH  16  23
ATOM     22  C   UNL     1       0.127   9.405  23.008  0.00  0.00    +0.000 C 
ATOM     23  O   UNL     1      -0.207   8.540  21.931  0.00  0.00    +0.000 OA
ENDBRANCH  16  23
BRANCH  20  24
ATOM     24  O   UNL     1       1.870   9.709  17.598  0.00  0.00    +0.000 OA
ATOM     25  C   UNL     1       2.438  11.011  17.701  0.00  0.00    +0.000 C 
ENDBRANCH  20  24
BRANCH  21  26
ATOM     26  O   UNL     1       0.118  10.491  19.763  0.00  0.00    +0.000 OA
ATOM     27  H   UNL     1       0.565  11.096  20.383  0.00  0.00    +0.000 HD
ENDBRANCH  21  26
ENDBRANCH   1  18
TORSDOF 4
ENDMDL
MODEL 4
REMARK VINA RESULT:      -7.8      1.520      2.085
REMARK  Name = 
REMARK  6 active torsions:
REMARK  status: ('A' for Active; 'I' for Inactive)
REMARK    1  A    between atoms: C_1  and  O_2
REMARK    2  A    between atoms: O_2  and  C_3
REMARK    3  A    between atoms: C_5  and  C_6
REMARK    4  A    between atoms: C_21  and  O_22
REMARK    5  A    between atoms: O_22  and  C_23
REMARK    6  A    between atoms: C_24  and  O_25
REMARK                            x       y       z     vdW  Elec       q    Type
REMARK                         _______ _______ _______ _____ _____    ______ ____
ROOT
ATOM      1  C   UNL     1       2.551   6.454  17.945  0.00  0.00    +0.000 C 
ATOM      2  C   UNL     1       1.467   5.413  17.651  0.00  0.00    +0.000 C 
ATOM      3  C   UNL     1       1.305   4.263  18.634  0.00  0.00    +0.000 C 
ATOM      4  O   UNL     1       1.174   3.115  18.217  0.00  0.00    +0.000 OA
ATOM      5  N   UNL     1       1.117   4.474  19.968  0.00  0.00    +0.000 N 
ATOM      6  C   UNL     1       1.800   5.408  20.850  0.00  0.00    +0.000 C 
ATOM      7  C   UNL     1       1.708   6.804  20.374  0.00  0.00    +0.000 A 
ATOM      8  N   UNL     1       1.218   7.827  21.164  0.00  0.00    +0.000 NA
ATOM      9  C   UNL     1       1.231   8.857  20.365  0.00  0.00    +0.000 A 
ATOM     10  S   UNL     1       0.680  10.498  20.487  0.00  0.00    +0.000 S 
ATOM     11  C   UNL     1       1.092  10.727  18.778  0.00  0.00    +0.000 A 
ATOM     12  C   UNL     1       1.626   9.625  18.216  0.00  0.00    +0.000 A 
ATOM     13  N   UNL     1       1.697   8.581  19.109  0.00  0.00    +0.000 N 
ATOM     14  C   UNL     1       2.068   7.265  19.110  0.00  0.00    +0.000 A 
ATOM     15  H   UNL     1       0.937   3.584  20.414  0.00  0.00    +0.000 HD
ENDROOT
BRANCH   1  18
ATOM     16  C   UNL     1       5.565   4.146  18.752  0.00  0.00    +0.000 A 
ATOM     17  C   UNL     1       4.271   4.707  18.739  0.00  0.00    +0.000 A 
ATOM     18  C   UNL     1       3.983   5.920  18.079  0.00  0.00    +0.000 A 
ATOM     19  C   UNL     1       5.058   6.564  17.447  0.00  0.00    +0.000 A 
ATOM     20  C   UNL     1       6.348   6.011  17.419  0.00  0.00    +0.000 A 
ATOM     21  C   UNL     1       6.597   4.791  18.060  0.00  0.00    +0.000 A 
BRANCH  16  23
ATOM     22  C   UNL     1       4.437   2.390  19.949  0.00  0.00    +0.000 C 
ATOM     23  O   UNL     1       5.642   3.001  19.506  0.00  0.00    +0.000 OA
ENDBRANCH  16  23
BRANCH  20  24
ATOM     24  O   UNL     1       7.284   6.813  16.818  0.00  0.00    +0.000 OA
ATOM     25  C   UNL     1       7.752   7.937  17.556  0.00  0.00    +0.000 C 
ENDBRANCH  20  24
BRANCH  21  26
ATOM     26  O   UNL     1       7.853   4.254  18.041  0.00  0.00    +0.000 OA
ATOM     27  H   UNL     1       7.807   3.497  17.428  0.00  0.00    +0.000 HD
ENDBRANCH  21  26
ENDBRANCH   1  18
TORSDOF 4
ENDMDL
MODEL 5
REMARK VINA RESULT:      -7.7      1.535      2.003
REMARK  Name = 
REMARK  6 active torsions:
REMARK  status: ('A' for Active; 'I' for Inactive)
REMARK    1  A    between atoms: C_1  and  O_2
REMARK    2  A    between atoms: O_2  and  C_3
REMARK    3  A    between atoms: C_5  and  C_6
REMARK    4  A    between atoms: C_21  and  O_22
REMARK    5  A    between atoms: O_22  and  C_23
REMARK    6  A    between atoms: C_24  and  O_25
REMARK                            x       y       z     vdW  Elec       q    Type
REMARK                         _______ _______ _______ _____ _____    ______ ____
ROOT
ATOM      1  C   UNL     1       2.476   6.339  17.862  0.00  0.00    +0.000 C 
ATOM      2  C   UNL     1       1.378   5.295  17.635  0.00  0.00    +0.000 C 
ATOM      3  C   UNL     1       1.269   4.155  18.635  0.00  0.00    +0.000 C 
ATOM      4  O   UNL     1       1.117   3.003  18.235  0.00  0.00    +0.000 OA
ATOM      5  N   UNL     1       1.150   4.378  19.975  0.00  0.00    +0.000 N 
ATOM      6  C   UNL     1       1.876   5.320  20.811  0.00  0.00    +0.000 C 
ATOM      7  C   UNL     1       1.759   6.712  20.328  0.00  0.00    +0.000 A 
ATOM      8  N   UNL     1       1.309   7.742  21.133  0.00  0.00    +0.000 NA
ATOM      9  C   UNL     1       1.280   8.764  20.325  0.00  0.00    +0.000 A 
ATOM     10  S   UNL     1       0.734  10.406  20.460  0.00  0.00    +0.000 S 
ATOM     11  C   UNL     1       1.058  10.619  18.730  0.00  0.00    +0.000 A 
ATOM     12  C   UNL     1       1.562   9.513  18.152  0.00  0.00    +0.000 A 
ATOM     13  N   UNL     1       1.680   8.477  19.049  0.00  0.00    +0.000 N 
ATOM     14  C   UNL     1       2.052   7.161  19.043  0.00  0.00    +0.000 A 
ATOM     15  H   UNL     1       0.994   3.492  20.437  0.00  0.00    +0.000 HD
ENDROOT
BRANCH   1  18
ATOM     16  C   UNL     1       6.337   6.103  17.552  0.00  0.00    +0.000 A 
ATOM     17  C   UNL     1       5.001   6.521  17.382  0.00  0.00    +0.000 A 
ATOM     18  C   UNL     1       3.913   5.807  17.927  0.00  0.00    +0.000 A 
ATOM     19  C   UNL     1       4.220   4.636  18.636  0.00  0.00    +0.000 A 
ATOM     20  C   UNL     1       5.542   4.215  18.846  0.00  0.00    +0.000 A 
ATOM     21  C   UNL     1       6.603   4.961  18.316  0.00  0.00    +0.000 A 
BRANCH  16  23
ATOM     22  C   UNL     1       7.759   8.043  17.548  0.00  0.00    +0.000 C 
ATOM     23  O   UNL     1       7.233   6.901  16.886  0.00  0.00    +0.000 OA
ENDBRANCH  16  23
BRANCH  20  24
ATOM     24  O   UNL     1       5.647   3.013  19.498  0.00  0.00    +0.000 OA
ATOM     25  C   UNL     1       4.436   2.377  19.896  0.00  0.00    +0.000 C 
ENDBRANCH  20  24
BRANCH  21  26
ATOM     26  O   UNL     1       7.891   4.549  18.512  0.00  0.00    +0.000 OA
ATOM     27  H   UNL     1       8.401   4.912  17.765  0.00  0.00    +0.000 HD
ENDBRANCH  21  26
ENDBRANCH   1  18
TORSDOF 4
ENDMDL
MODEL 6
REMARK VINA RESULT:      -7.5      3.618      6.105
REMARK  Name = 
REMARK  6 active torsions:
REMARK  status: ('A' for Active; 'I' for Inactive)
REMARK    1  A    between atoms: C_1  and  O_2
REMARK    2  A    between atoms: O_2  and  C_3
REMARK    3  A    between atoms: C_5  and  C_6
REMARK    4  A    between atoms: C_21  and  O_22
REMARK    5  A    between atoms: O_22  and  C_23
REMARK    6  A    between atoms: C_24  and  O_25
REMARK                            x       y       z     vdW  Elec       q    Type
REMARK                         _______ _______ _______ _____ _____    ______ ____
ROOT
ATOM      1  C   UNL     1       3.304   5.779  20.008  0.00  0.00    +0.000 C 
ATOM      2  C   UNL     1       2.625   4.527  20.572  0.00  0.00    +0.000 C 
ATOM      3  C   UNL     1       1.367   4.030  19.876  0.00  0.00    +0.000 C 
ATOM      4  O   UNL     1       0.391   3.693  20.543  0.00  0.00    +0.000 OA
ATOM      5  N   UNL     1       1.337   3.769  18.538  0.00  0.00    +0.000 N 
ATOM      6  C   UNL     1       1.886   4.553  17.443  0.00  0.00    +0.000 C 
ATOM      7  C   UNL     1       3.333   4.810  17.602  0.00  0.00    +0.000 A 
ATOM      8  N   UNL     1       4.256   4.481  16.627  0.00  0.00    +0.000 NA
ATOM      9  C   UNL     1       5.396   4.791  17.177  0.00  0.00    +0.000 A 
ATOM     10  S   UNL     1       7.060   4.598  16.719  0.00  0.00    +0.000 S 
ATOM     11  C   UNL     1       7.533   5.207  18.315  0.00  0.00    +0.000 A 
ATOM     12  C   UNL     1       6.478   5.539  19.083  0.00  0.00    +0.000 A 
ATOM     13  N   UNL     1       5.285   5.300  18.442  0.00  0.00    +0.000 N 
ATOM     14  C   UNL     1       3.947   5.376  18.715  0.00  0.00    +0.000 A 
ATOM     15  H   UNL     1       0.440   3.361  18.309  0.00  0.00    +0.000 HD
ENDROOT
BRANCH   1  18
ATOM     16  C   UNL     1       1.596   9.005  18.692  0.00  0.00    +0.000 A 
ATOM     17  C   UNL     1       2.481   7.916  18.826  0.00  0.00    +0.000 A 
ATOM     18  C   UNL     1       2.438   7.043  19.934  0.00  0.00    +0.000 A 
ATOM     19  C   UNL     1       1.478   7.322  20.919  0.00  0.00    +0.000 A 
ATOM     20  C   UNL     1       0.566   8.380  20.794  0.00  0.00    +0.000 A 
ATOM     21  C   UNL     1       0.616   9.214  19.669  0.00  0.00    +0.000 A 
BRANCH  16  23
ATOM     22  C   UNL     1       2.369  11.078  17.748  0.00  0.00    +0.000 C 
ATOM     23  O   UNL     1       1.852   9.765  17.578  0.00  0.00    +0.000 OA
ENDBRANCH  16  23
BRANCH  20  24
ATOM     24  O   UNL     1      -0.249   8.544  21.885  0.00  0.00    +0.000 OA
ATOM     25  C   UNL     1       0.213   9.401  22.924  0.00  0.00    +0.000 C 
ENDBRANCH  20  24
BRANCH  21  26
ATOM     26  O   UNL     1      -0.267  10.250  19.549  0.00  0.00    +0.000 OA
ATOM     27  H   UNL     1       0.259  11.009  19.237  0.00  0.00    +0.000 HD
ENDBRANCH  21  26
ENDBRANCH   1  18
TORSDOF 4
ENDMDL
MODEL 7
REMARK VINA RESULT:      -7.0      5.198      8.923
REMARK  Name = 
REMARK  6 active torsions:
REMARK  status: ('A' for Active; 'I' for Inactive)
REMARK    1  A    between atoms: C_1  and  O_2
REMARK    2  A    between atoms: O_2  and  C_3
REMARK    3  A    between atoms: C_5  and  C_6
REMARK    4  A    between atoms: C_21  and  O_22
REMARK    5  A    between atoms: O_22  and  C_23
REMARK    6  A    between atoms: C_24  and  O_25
REMARK                            x       y       z     vdW  Elec       q    Type
REMARK                         _______ _______ _______ _____ _____    ______ ____
ROOT
ATOM      1  C   UNL     1       0.592  10.607  19.002  0.00  0.00    +0.000 C 
ATOM      2  C   UNL     1       1.132  11.636  20.001  0.00  0.00    +0.000 C 
ATOM      3  C   UNL     1       0.459  11.721  21.362  0.00  0.00    +0.000 C 
ATOM      4  O   UNL     1       0.186  12.820  21.841  0.00  0.00    +0.000 OA
ATOM      5  N   UNL     1       0.305  10.628  22.162  0.00  0.00    +0.000 N 
ATOM      6  C   UNL     1      -0.123   9.286  21.802  0.00  0.00    +0.000 C 
ATOM      7  C   UNL     1       0.719   8.689  20.744  0.00  0.00    +0.000 A 
ATOM      8  N   UNL     1       1.346   7.466  20.896  0.00  0.00    +0.000 NA
ATOM      9  C   UNL     1       2.035   7.343  19.797  0.00  0.00    +0.000 A 
ATOM     10  S   UNL     1       3.192   6.190  19.210  0.00  0.00    +0.000 S 
ATOM     11  C   UNL     1       3.466   7.234  17.804  0.00  0.00    +0.000 A 
ATOM     12  C   UNL     1       2.698   8.340  17.815  0.00  0.00    +0.000 A 
ATOM     13  N   UNL     1       1.903   8.397  18.936  0.00  0.00    +0.000 N 
ATOM     14  C   UNL     1       1.005   9.257  19.506  0.00  0.00    +0.000 A 
ATOM     15  H   UNL     1      -0.074  10.929  23.050  0.00  0.00    +0.000 HD
ENDROOT
BRANCH   1  18
ATOM     16  C   UNL     1      -3.098  11.809  18.932  0.00  0.00    +0.000 A 
ATOM     17  C   UNL     1      -1.767  11.588  19.342  0.00  0.00    +0.000 A 
ATOM     18  C   UNL     1      -0.893  10.735  18.637  0.00  0.00    +0.000 A 
ATOM     19  C   UNL     1      -1.419  10.089  17.506  0.00  0.00    +0.000 A 
ATOM     20  C   UNL     1      -2.729  10.316  17.059  0.00  0.00    +0.000 A 
ATOM     21  C   UNL     1      -3.564  11.191  17.765  0.00  0.00    +0.000 A 
BRANCH  16  23
ATOM     22  C   UNL     1      -3.126  13.138  20.936  0.00  0.00    +0.000 C 
ATOM     23  O   UNL     1      -3.794  12.618  19.794  0.00  0.00    +0.000 OA
ENDBRANCH  16  23
BRANCH  20  24
ATOM     24  O   UNL     1      -3.090   9.546  15.983  0.00  0.00    +0.000 OA
ATOM     25  C   UNL     1      -2.958  10.127  14.690  0.00  0.00    +0.000 C 
ENDBRANCH  20  24
BRANCH  21  26
ATOM     26  O   UNL     1      -4.844  11.407  17.336  0.00  0.00    +0.000 OA
ATOM     27  H   UNL     1      -5.352  10.625  17.619  0.00  0.00    +0.000 HD
ENDBRANCH  21  26
ENDBRANCH   1  18
TORSDOF 4
ENDMDL
MODEL 8
REMARK VINA RESULT:      -6.8      5.214      8.611
REMARK  Name = 
REMARK  6 active torsions:
REMARK  status: ('A' for Active; 'I' for Inactive)
REMARK    1  A    between atoms: C_1  and  O_2
REMARK    2  A    between atoms: O_2  and  C_3
REMARK    3  A    between atoms: C_5  and  C_6
REMARK    4  A    between atoms: C_21  and  O_22
REMARK    5  A    between atoms: O_22  and  C_23
REMARK    6  A    between atoms: C_24  and  O_25
REMARK                            x       y       z     vdW  Elec       q    Type
REMARK                         _______ _______ _______ _____ _____    ______ ____
ROOT
ATOM      1  C   UNL     1       0.662  10.731  18.963  0.00  0.00    +0.000 C 
ATOM      2  C   UNL     1       1.219  11.741  19.971  0.00  0.00    +0.000 C 
ATOM      3  C   UNL     1       0.518  11.858  21.316  0.00  0.00    +0.000 C 
ATOM      4  O   UNL     1       0.276  12.969  21.785  0.00  0.00    +0.000 OA
ATOM      5  N   UNL     1       0.303  10.775  22.116  0.00  0.00    +0.000 N 
ATOM      6  C   UNL     1      -0.169   9.449  21.749  0.00  0.00    +0.000 C 
ATOM      7  C   UNL     1       0.674   8.816  20.713  0.00  0.00    +0.000 A 
ATOM      8  N   UNL     1       1.250   7.571  20.884  0.00  0.00    +0.000 NA
ATOM      9  C   UNL     1       1.959   7.417  19.802  0.00  0.00    +0.000 A 
ATOM     10  S   UNL     1       3.084   6.217  19.246  0.00  0.00    +0.000 S 
ATOM     11  C   UNL     1       3.431   7.244  17.843  0.00  0.00    +0.000 A 
ATOM     12  C   UNL     1       2.707   8.379  17.833  0.00  0.00    +0.000 A 
ATOM     13  N   UNL     1       1.888   8.472  18.935  0.00  0.00    +0.000 N 
ATOM     14  C   UNL     1       1.011   9.367  19.481  0.00  0.00    +0.000 A 
ATOM     15  H   UNL     1      -0.086  11.094  22.993  0.00  0.00    +0.000 HD
ENDROOT
BRANCH   1  18
ATOM     16  C   UNL     1      -2.769  10.255  17.215  0.00  0.00    +0.000 A 
ATOM     17  C   UNL     1      -1.391  10.188  17.503  0.00  0.00    +0.000 A 
ATOM     18  C   UNL     1      -0.807  10.914  18.563  0.00  0.00    +0.000 A 
ATOM     19  C   UNL     1      -1.666  11.733  19.313  0.00  0.00    +0.000 A 
ATOM     20  C   UNL     1      -3.045  11.793  19.066  0.00  0.00    +0.000 A 
ATOM     21  C   UNL     1      -3.600  11.039  18.024  0.00  0.00    +0.000 A 
BRANCH  16  23
ATOM     22  C   UNL     1      -2.972  10.121  14.821  0.00  0.00    +0.000 C 
ATOM     23  O   UNL     1      -3.117   9.526  16.104  0.00  0.00    +0.000 OA
ENDBRANCH  16  23
BRANCH  20  24
ATOM     24  O   UNL     1      -3.712  12.698  19.851  0.00  0.00    +0.000 OA
ATOM     25  C   UNL     1      -3.238  12.886  21.180  0.00  0.00    +0.000 C 
ENDBRANCH  20  24
BRANCH  21  26
ATOM     26  O   UNL     1      -4.942  11.101  17.777  0.00  0.00    +0.000 OA
ATOM     27  H   UNL     1      -5.272  10.189  17.878  0.00  0.00    +0.000 HD
ENDBRANCH  21  26
ENDBRANCH   1  18
TORSDOF 4
ENDMDL
MODEL 9
REMARK VINA RESULT:      -6.6      8.020     10.583
REMARK  Name = 
REMARK  6 active torsions:
REMARK  status: ('A' for Active; 'I' for Inactive)
REMARK    1  A    between atoms: C_1  and  O_2
REMARK    2  A    between atoms: O_2  and  C_3
REMARK    3  A    between atoms: C_5  and  C_6
REMARK    4  A    between atoms: C_21  and  O_22
REMARK    5  A    between atoms: O_22  and  C_23
REMARK    6  A    between atoms: C_24  and  O_25
REMARK                            x       y       z     vdW  Elec       q    Type
REMARK                         _______ _______ _______ _____ _____    ______ ____
ROOT
ATOM      1  C   UNL     1      -2.060  13.478  21.070  0.00  0.00    +0.000 C 
ATOM      2  C   UNL     1      -2.423  13.421  22.557  0.00  0.00    +0.000 C 
ATOM      3  C   UNL     1      -2.539  12.050  23.204  0.00  0.00    +0.000 C 
ATOM      4  O   UNL     1      -3.488  11.801  23.945  0.00  0.00    +0.000 OA
ATOM      5  N   UNL     1      -1.531  11.134  23.142  0.00  0.00    +0.000 N 
ATOM      6  C   UNL     1      -0.709  10.757  22.002  0.00  0.00    +0.000 C 
ATOM      7  C   UNL     1      -0.015  11.915  21.399  0.00  0.00    +0.000 A 
ATOM      8  N   UNL     1       1.355  11.949  21.221  0.00  0.00    +0.000 NA
ATOM      9  C   UNL     1       1.567  13.143  20.745  0.00  0.00    +0.000 A 
ATOM     10  S   UNL     1       2.987  14.063  20.357  0.00  0.00    +0.000 S 
ATOM     11  C   UNL     1       1.948  15.463  20.033  0.00  0.00    +0.000 A 
ATOM     12  C   UNL     1       0.639  15.193  20.196  0.00  0.00    +0.000 A 
ATOM     13  N   UNL     1       0.433  13.893  20.599  0.00  0.00    +0.000 N 
ATOM     14  C   UNL     1      -0.614  13.093  20.963  0.00  0.00    +0.000 A 
ATOM     15  H   UNL     1      -1.780  10.340  23.717  0.00  0.00    +0.000 HD
ENDROOT
BRANCH   1  18
ATOM     16  C   UNL     1      -5.274  12.199  19.311  0.00  0.00    +0.000 A 
ATOM     17  C   UNL     1      -4.402  12.774  20.258  0.00  0.00    +0.000 A 
ATOM     18  C   UNL     1      -3.000  12.731  20.114  0.00  0.00    +0.000 A 
ATOM     19  C   UNL     1      -2.502  12.065  18.983  0.00  0.00    +0.000 A 
ATOM     20  C   UNL     1      -3.349  11.513  18.010  0.00  0.00    +0.000 A 
ATOM     21  C   UNL     1      -4.738  11.595  18.167  0.00  0.00    +0.000 A 
BRANCH  16  23
ATOM     22  C   UNL     1      -6.940  12.131  21.045  0.00  0.00    +0.000 C 
ATOM     23  O   UNL     1      -6.594  12.293  19.676  0.00  0.00    +0.000 OA
ENDBRANCH  16  23
BRANCH  20  24
ATOM     24  O   UNL     1      -2.687  10.840  17.014  0.00  0.00    +0.000 OA
ATOM     25  C   UNL     1      -1.574  10.039  17.395  0.00  0.00    +0.000 C 
ENDBRANCH  20  24
BRANCH  21  26
ATOM     26  O   UNL     1      -5.565  11.051  17.225  0.00  0.00    +0.000 OA
ATOM     27  H   UNL     1      -6.471  11.271  17.510  0.00  0.00    +0.000 HD
ENDBRANCH  21  26
ENDBRANCH   1  18
TORSDOF 4
ENDMDL
