MODEL 1
REMARK VINA RESULT:      -6.9      0.000      0.000
REMARK  Name = 
REMARK  7 active torsions:
REMARK  status: ('A' for Active; 'I' for Inactive)
REMARK    1  A    between atoms: C_1  and  C_2
REMARK    2  A    between atoms: C_2  and  C_3
REMARK    3  A    between atoms: C_2  and  C_4
REMARK    4  A    between atoms: C_9  and  S_10
REMARK    5  A    between atoms: S_10  and  C_11
REMARK    6  A    between atoms: C_11  and  C_12
REMARK    7  A    between atoms: C_12  and  C_14
REMARK                            x       y       z     vdW  Elec       q    Type
REMARK                         _______ _______ _______ _____ _____    ______ ____
ROOT
ATOM      1  C   UNL     1       4.565   4.995  16.921  0.00  0.00    +0.000 A 
ATOM      2  C   UNL     1       4.710   6.398  17.009  0.00  0.00    +0.000 A 
ATOM      3  C   UNL     1       3.736   7.199  17.602  0.00  0.00    +0.000 A 
ATOM      4  C   UNL     1       2.595   6.615  18.134  0.00  0.00    +0.000 A 
ATOM      5  C   UNL     1       2.428   5.231  18.063  0.00  0.00    +0.000 A 
ATOM      6  C   UNL     1       3.388   4.409  17.446  0.00  0.00    +0.000 A 
ENDROOT
BRANCH   1   8
ATOM      7  C   UNL     1       5.732   4.288  14.775  0.00  0.00    +0.000 C 
ATOM      8  C   UNL     1       5.704   4.186  16.305  0.00  0.00    +0.000 C 
ATOM      9  C   UNL     1       7.051   4.614  16.898  0.00  0.00    +0.000 C 
ENDBRANCH   1   8
BRANCH   6  10
ATOM     10  S   UNL     1       3.115   2.632  17.460  0.00  0.00    +0.000 S 
BRANCH  10  11
ATOM     11  C   UNL     1       1.980   2.428  18.871  0.00  0.00    +0.000 C 
BRANCH  11  12
ATOM     12  C   UNL     1       2.615   2.668  20.225  0.00  0.00    +0.000 C 
ATOM     13  O   UNL     1       3.771   2.340  20.509  0.00  0.00    +0.000 OA
BRANCH  12  14
ATOM     14  C   UNL     1       1.703   3.365  21.219  0.00  0.00    +0.000 C 
ATOM     15  F   UNL     1       2.349   4.340  21.922  0.00  0.00    +0.000 F 
ATOM     16  F   UNL     1       0.648   3.976  20.617  0.00  0.00    +0.000 F 
ATOM     17  F   UNL     1       1.189   2.513  22.146  0.00  0.00    +0.000 F 
ENDBRANCH  12  14
ENDBRANCH  11  12
ENDBRANCH  10  11
ENDBRANCH   6  10
TORSDOF 5
ENDMDL
MODEL 2
REMARK VINA RESULT:      -6.9      3.880      5.597
REMARK  Name = 
REMARK  7 active torsions:
REMARK  status: ('A' for Active; 'I' for Inactive)
REMARK    1  A    between atoms: C_1  and  C_2
REMARK    2  A    between atoms: C_2  and  C_3
REMARK    3  A    between atoms: C_2  and  C_4
REMARK    4  A    between atoms: C_9  and  S_10
REMARK    5  A    between atoms: S_10  and  C_11
REMARK    6  A    between atoms: C_11  and  C_12
REMARK    7  A    between atoms: C_12  and  C_14
REMARK                            x       y       z     vdW  Elec       q    Type
REMARK                         _______ _______ _______ _____ _____    ______ ____
ROOT
ATOM      1  C   UNL     1       3.048   5.404  18.449  0.00  0.00    +0.000 A 
ATOM      2  C   UNL     1       1.832   4.838  18.006  0.00  0.00    +0.000 A 
ATOM      3  C   UNL     1       1.742   3.500  17.627  0.00  0.00    +0.000 A 
ATOM      4  C   UNL     1       2.867   2.690  17.693  0.00  0.00    +0.000 A 
ATOM      5  C   UNL     1       4.080   3.223  18.130  0.00  0.00    +0.000 A 
ATOM      6  C   UNL     1       4.196   4.577  18.493  0.00  0.00    +0.000 A 
ENDROOT
BRANCH   1   8
ATOM      7  C   UNL     1       2.746   7.830  17.745  0.00  0.00    +0.000 C 
ATOM      8  C   UNL     1       3.047   6.864  18.898  0.00  0.00    +0.000 C 
ATOM      9  C   UNL     1       2.056   7.074  20.049  0.00  0.00    +0.000 C 
ENDBRANCH   1   8
BRANCH   6  10
ATOM     10  S   UNL     1       5.784   5.157  19.103  0.00  0.00    +0.000 S 
BRANCH  10  11
ATOM     11  C   UNL     1       6.443   6.060  17.663  0.00  0.00    +0.000 C 
BRANCH  11  12
ATOM     12  C   UNL     1       6.859   5.175  16.506  0.00  0.00    +0.000 C 
ATOM     13  O   UNL     1       7.859   4.452  16.519  0.00  0.00    +0.000 OA
BRANCH  12  14
ATOM     14  C   UNL     1       5.923   5.242  15.312  0.00  0.00    +0.000 C 
ATOM     15  F   UNL     1       5.145   6.362  15.324  0.00  0.00    +0.000 F 
ATOM     16  F   UNL     1       6.591   5.263  14.128  0.00  0.00    +0.000 F 
ATOM     17  F   UNL     1       5.063   4.190  15.260  0.00  0.00    +0.000 F 
ENDBRANCH  12  14
ENDBRANCH  11  12
ENDBRANCH  10  11
ENDBRANCH   6  10
TORSDOF 5
ENDMDL
MODEL 3
REMARK VINA RESULT:      -6.9      4.023      5.715
REMARK  Name = 
REMARK  7 active torsions:
REMARK  status: ('A' for Active; 'I' for Inactive)
REMARK    1  A    between atoms: C_1  and  C_2
REMARK    2  A    between atoms: C_2  and  C_3
REMARK    3  A    between atoms: C_2  and  C_4
REMARK    4  A    between atoms: C_9  and  S_10
REMARK    5  A    between atoms: S_10  and  C_11
REMARK    6  A    between atoms: C_11  and  C_12
REMARK    7  A    between atoms: C_12  and  C_14
REMARK                            x       y       z     vdW  Elec       q    Type
REMARK                         _______ _______ _______ _____ _____    ______ ____
ROOT
ATOM      1  C   UNL     1       3.087   5.462  18.396  0.00  0.00    +0.000 A 
ATOM      2  C   UNL     1       1.876   4.890  17.948  0.00  0.00    +0.000 A 
ATOM      3  C   UNL     1       1.800   3.558  17.542  0.00  0.00    +0.000 A 
ATOM      4  C   UNL     1       2.935   2.761  17.585  0.00  0.00    +0.000 A 
ATOM      5  C   UNL     1       4.144   3.300  18.027  0.00  0.00    +0.000 A 
ATOM      6  C   UNL     1       4.245   4.648  18.417  0.00  0.00    +0.000 A 
ENDROOT
BRANCH   1   8
ATOM      7  C   UNL     1       2.724   7.895  17.749  0.00  0.00    +0.000 C 
ATOM      8  C   UNL     1       3.070   6.912  18.874  0.00  0.00    +0.000 C 
ATOM      9  C   UNL     1       2.104   7.080  20.053  0.00  0.00    +0.000 C 
ENDBRANCH   1   8
BRANCH   6  10
ATOM     10  S   UNL     1       5.829   5.235  19.031  0.00  0.00    +0.000 S 
BRANCH  10  11
ATOM     11  C   UNL     1       6.984   4.630  17.758  0.00  0.00    +0.000 C 
BRANCH  11  12
ATOM     12  C   UNL     1       7.006   5.457  16.489  0.00  0.00    +0.000 C 
ATOM     13  O   UNL     1       7.568   6.552  16.393  0.00  0.00    +0.000 OA
BRANCH  12  14
ATOM     14  C   UNL     1       6.277   4.815  15.322  0.00  0.00    +0.000 C 
ATOM     15  F   UNL     1       6.249   3.454  15.411  0.00  0.00    +0.000 F 
ATOM     16  F   UNL     1       4.979   5.211  15.237  0.00  0.00    +0.000 F 
ATOM     17  F   UNL     1       6.854   5.100  14.123  0.00  0.00    +0.000 F 
ENDBRANCH  12  14
ENDBRANCH  11  12
ENDBRANCH  10  11
ENDBRANCH   6  10
TORSDOF 5
ENDMDL
MODEL 4
REMARK VINA RESULT:      -6.7      3.960      5.524
REMARK  Name = 
REMARK  7 active torsions:
REMARK  status: ('A' for Active; 'I' for Inactive)
REMARK    1  A    between atoms: C_1  and  C_2
REMARK    2  A    between atoms: C_2  and  C_3
REMARK    3  A    between atoms: C_2  and  C_4
REMARK    4  A    between atoms: C_9  and  S_10
REMARK    5  A    between atoms: S_10  and  C_11
REMARK    6  A    between atoms: C_11  and  C_12
REMARK    7  A    between atoms: C_12  and  C_14
REMARK                            x       y       z     vdW  Elec       q    Type
REMARK                         _______ _______ _______ _____ _____    ______ ____
ROOT
ATOM      1  C   UNL     1       3.413   5.421  18.105  0.00  0.00    +0.000 A 
ATOM      2  C   UNL     1       2.162   4.842  17.798  0.00  0.00    +0.000 A 
ATOM      3  C   UNL     1       1.959   3.464  17.858  0.00  0.00    +0.000 A 
ATOM      4  C   UNL     1       3.002   2.631  18.237  0.00  0.00    +0.000 A 
ATOM      5  C   UNL     1       4.247   3.178  18.549  0.00  0.00    +0.000 A 
ATOM      6  C   UNL     1       4.478   4.564  18.470  0.00  0.00    +0.000 A 
ENDROOT
BRANCH   1   8
ATOM      7  C   UNL     1       4.236   7.443  16.798  0.00  0.00    +0.000 C 
ATOM      8  C   UNL     1       3.535   6.943  18.067  0.00  0.00    +0.000 C 
ATOM      9  C   UNL     1       2.157   7.598  18.215  0.00  0.00    +0.000 C 
ENDBRANCH   1   8
BRANCH   6  10
ATOM     10  S   UNL     1       6.097   5.180  18.951  0.00  0.00    +0.000 S 
BRANCH  10  11
ATOM     11  C   UNL     1       7.174   4.487  17.655  0.00  0.00    +0.000 C 
BRANCH  11  12
ATOM     12  C   UNL     1       7.021   5.142  16.298  0.00  0.00    +0.000 C 
ATOM     13  O   UNL     1       7.505   6.240  16.007  0.00  0.00    +0.000 OA
BRANCH  12  14
ATOM     14  C   UNL     1       6.221   4.320  15.304  0.00  0.00    +0.000 C 
ATOM     15  F   UNL     1       4.992   4.858  15.054  0.00  0.00    +0.000 F 
ATOM     16  F   UNL     1       6.836   4.219  14.095  0.00  0.00    +0.000 F 
ATOM     17  F   UNL     1       5.992   3.051  15.736  0.00  0.00    +0.000 F 
ENDBRANCH  12  14
ENDBRANCH  11  12
ENDBRANCH  10  11
ENDBRANCH   6  10
TORSDOF 5
ENDMDL
MODEL 5
REMARK VINA RESULT:      -6.7      2.332      3.413
REMARK  Name = 
REMARK  7 active torsions:
REMARK  status: ('A' for Active; 'I' for Inactive)
REMARK    1  A    between atoms: C_1  and  C_2
REMARK    2  A    between atoms: C_2  and  C_3
REMARK    3  A    between atoms: C_2  and  C_4
REMARK    4  A    between atoms: C_9  and  S_10
REMARK    5  A    between atoms: S_10  and  C_11
REMARK    6  A    between atoms: C_11  and  C_12
REMARK    7  A    between atoms: C_12  and  C_14
REMARK                            x       y       z     vdW  Elec       q    Type
REMARK                         _______ _______ _______ _____ _____    ______ ____
ROOT
ATOM      1  C   UNL     1       6.418   5.566  17.297  0.00  0.00    +0.000 A 
ATOM      2  C   UNL     1       7.042   5.411  16.039  0.00  0.00    +0.000 A 
ATOM      3  C   UNL     1       6.487   4.615  15.039  0.00  0.00    +0.000 A 
ATOM      4  C   UNL     1       5.284   3.962  15.269  0.00  0.00    +0.000 A 
ATOM      5  C   UNL     1       4.645   4.101  16.501  0.00  0.00    +0.000 A 
ATOM      6  C   UNL     1       5.203   4.880  17.531  0.00  0.00    +0.000 A 
ENDROOT
BRANCH   1   8
ATOM      7  C   UNL     1       8.058   5.770  19.231  0.00  0.00    +0.000 C 
ATOM      8  C   UNL     1       7.066   6.500  18.316  0.00  0.00    +0.000 C 
ATOM      9  C   UNL     1       7.750   7.678  17.612  0.00  0.00    +0.000 C 
ENDBRANCH   1   8
BRANCH   6  10
ATOM     10  S   UNL     1       4.275   5.049  19.062  0.00  0.00    +0.000 S 
BRANCH  10  11
ATOM     11  C   UNL     1       3.783   3.329  19.406  0.00  0.00    +0.000 C 
BRANCH  11  12
ATOM     12  C   UNL     1       2.297   3.137  19.633  0.00  0.00    +0.000 C 
ATOM     13  O   UNL     1       1.757   3.209  20.741  0.00  0.00    +0.000 OA
BRANCH  12  14
ATOM     14  C   UNL     1       1.511   2.855  18.366  0.00  0.00    +0.000 C 
ATOM     15  F   UNL     1       2.200   2.067  17.491  0.00  0.00    +0.000 F 
ATOM     16  F   UNL     1       0.341   2.207  18.611  0.00  0.00    +0.000 F 
ATOM     17  F   UNL     1       1.197   3.987  17.681  0.00  0.00    +0.000 F 
ENDBRANCH  12  14
ENDBRANCH  11  12
ENDBRANCH  10  11
ENDBRANCH   6  10
TORSDOF 5
ENDMDL
MODEL 6
REMARK VINA RESULT:      -6.7      0.989      1.302
REMARK  Name = 
REMARK  7 active torsions:
REMARK  status: ('A' for Active; 'I' for Inactive)
REMARK    1  A    between atoms: C_1  and  C_2
REMARK    2  A    between atoms: C_2  and  C_3
REMARK    3  A    between atoms: C_2  and  C_4
REMARK    4  A    between atoms: C_9  and  S_10
REMARK    5  A    between atoms: S_10  and  C_11
REMARK    6  A    between atoms: C_11  and  C_12
REMARK    7  A    between atoms: C_12  and  C_14
REMARK                            x       y       z     vdW  Elec       q    Type
REMARK                         _______ _______ _______ _____ _____    ______ ____
ROOT
ATOM      1  C   UNL     1       4.740   5.036  16.947  0.00  0.00    +0.000 A 
ATOM      2  C   UNL     1       4.880   6.438  17.050  0.00  0.00    +0.000 A 
ATOM      3  C   UNL     1       3.870   7.238  17.582  0.00  0.00    +0.000 A 
ATOM      4  C   UNL     1       2.697   6.652  18.036  0.00  0.00    +0.000 A 
ATOM      5  C   UNL     1       2.534   5.269  17.950  0.00  0.00    +0.000 A 
ATOM      6  C   UNL     1       3.531   4.449  17.393  0.00  0.00    +0.000 A 
ENDROOT
BRANCH   1   8
ATOM      7  C   UNL     1       6.043   4.336  14.878  0.00  0.00    +0.000 C 
ATOM      8  C   UNL     1       5.916   4.228  16.403  0.00  0.00    +0.000 C 
ATOM      9  C   UNL     1       7.222   4.652  17.084  0.00  0.00    +0.000 C 
ENDBRANCH   1   8
BRANCH   6  10
ATOM     10  S   UNL     1       3.257   2.672  17.382  0.00  0.00    +0.000 S 
BRANCH  10  11
ATOM     11  C   UNL     1       2.959   2.317  19.144  0.00  0.00    +0.000 C 
BRANCH  11  12
ATOM     12  C   UNL     1       1.525   2.517  19.589  0.00  0.00    +0.000 C 
ATOM     13  O   UNL     1       0.550   2.049  18.994  0.00  0.00    +0.000 OA
BRANCH  12  14
ATOM     14  C   UNL     1       1.381   3.346  20.853  0.00  0.00    +0.000 C 
ATOM     15  F   UNL     1       0.547   4.413  20.684  0.00  0.00    +0.000 F 
ATOM     16  F   UNL     1       0.868   2.632  21.889  0.00  0.00    +0.000 F 
ATOM     17  F   UNL     1       2.566   3.862  21.278  0.00  0.00    +0.000 F 
ENDBRANCH  12  14
ENDBRANCH  11  12
ENDBRANCH  10  11
ENDBRANCH   6  10
TORSDOF 5
ENDMDL
MODEL 7
REMARK VINA RESULT:      -6.7      0.950      2.965
REMARK  Name = 
REMARK  7 active torsions:
REMARK  status: ('A' for Active; 'I' for Inactive)
REMARK    1  A    between atoms: C_1  and  C_2
REMARK    2  A    between atoms: C_2  and  C_3
REMARK    3  A    between atoms: C_2  and  C_4
REMARK    4  A    between atoms: C_9  and  S_10
REMARK    5  A    between atoms: S_10  and  C_11
REMARK    6  A    between atoms: C_11  and  C_12
REMARK    7  A    between atoms: C_12  and  C_14
REMARK                            x       y       z     vdW  Elec       q    Type
REMARK                         _______ _______ _______ _____ _____    ______ ____
ROOT
ATOM      1  C   UNL     1       3.513   5.876  17.778  0.00  0.00    +0.000 A 
ATOM      2  C   UNL     1       4.798   6.401  17.518  0.00  0.00    +0.000 A 
ATOM      3  C   UNL     1       5.813   5.618  16.971  0.00  0.00    +0.000 A 
ATOM      4  C   UNL     1       5.563   4.289  16.660  0.00  0.00    +0.000 A 
ATOM      5  C   UNL     1       4.301   3.746  16.903  0.00  0.00    +0.000 A 
ATOM      6  C   UNL     1       3.273   4.514  17.478  0.00  0.00    +0.000 A 
ENDROOT
BRANCH   1   8
ATOM      7  C   UNL     1       2.357   6.775  19.858  0.00  0.00    +0.000 C 
ATOM      8  C   UNL     1       2.443   6.817  18.327  0.00  0.00    +0.000 C 
ATOM      9  C   UNL     1       2.685   8.251  17.840  0.00  0.00    +0.000 C 
ENDBRANCH   1   8
BRANCH   6  10
ATOM     10  S   UNL     1       1.663   3.745  17.696  0.00  0.00    +0.000 S 
BRANCH  10  11
ATOM     11  C   UNL     1       2.039   2.382  18.846  0.00  0.00    +0.000 C 
BRANCH  11  12
ATOM     12  C   UNL     1       2.745   2.812  20.116  0.00  0.00    +0.000 C 
ATOM     13  O   UNL     1       3.970   2.783  20.264  0.00  0.00    +0.000 OA
BRANCH  12  14
ATOM     14  C   UNL     1       1.809   3.301  21.206  0.00  0.00    +0.000 C 
ATOM     15  F   UNL     1       0.709   3.933  20.703  0.00  0.00    +0.000 F 
ATOM     16  F   UNL     1       1.336   2.288  21.981  0.00  0.00    +0.000 F 
ATOM     17  F   UNL     1       2.401   4.194  22.045  0.00  0.00    +0.000 F 
ENDBRANCH  12  14
ENDBRANCH  11  12
ENDBRANCH  10  11
ENDBRANCH   6  10
TORSDOF 5
ENDMDL
MODEL 8
REMARK VINA RESULT:      -6.7      3.448      5.112
REMARK  Name = 
REMARK  7 active torsions:
REMARK  status: ('A' for Active; 'I' for Inactive)
REMARK    1  A    between atoms: C_1  and  C_2
REMARK    2  A    between atoms: C_2  and  C_3
REMARK    3  A    between atoms: C_2  and  C_4
REMARK    4  A    between atoms: C_9  and  S_10
REMARK    5  A    between atoms: S_10  and  C_11
REMARK    6  A    between atoms: C_11  and  C_12
REMARK    7  A    between atoms: C_12  and  C_14
REMARK                            x       y       z     vdW  Elec       q    Type
REMARK                         _______ _______ _______ _____ _____    ______ ____
ROOT
ATOM      1  C   UNL     1       3.440   4.356  18.548  0.00  0.00    +0.000 A 
ATOM      2  C   UNL     1       2.634   5.008  19.508  0.00  0.00    +0.000 A 
ATOM      3  C   UNL     1       2.417   6.384  19.468  0.00  0.00    +0.000 A 
ATOM      4  C   UNL     1       2.994   7.142  18.459  0.00  0.00    +0.000 A 
ATOM      5  C   UNL     1       3.792   6.523  17.497  0.00  0.00    +0.000 A 
ATOM      6  C   UNL     1       4.042   5.139  17.535  0.00  0.00    +0.000 A 
ENDROOT
BRANCH   1   8
ATOM      7  C   UNL     1       4.353   2.390  19.880  0.00  0.00    +0.000 C 
ATOM      8  C   UNL     1       3.581   2.837  18.632  0.00  0.00    +0.000 C 
ATOM      9  C   UNL     1       2.205   2.164  18.580  0.00  0.00    +0.000 C 
ENDBRANCH   1   8
BRANCH   6  10
ATOM     10  S   UNL     1       5.032   4.422  16.216  0.00  0.00    +0.000 S 
BRANCH  10  11
ATOM     11  C   UNL     1       6.688   4.351  16.972  0.00  0.00    +0.000 C 
BRANCH  11  12
ATOM     12  C   UNL     1       7.315   5.705  17.234  0.00  0.00    +0.000 C 
ATOM     13  O   UNL     1       7.521   6.548  16.355  0.00  0.00    +0.000 OA
BRANCH  12  14
ATOM     14  C   UNL     1       7.666   5.951  18.690  0.00  0.00    +0.000 C 
ATOM     15  F   UNL     1       8.551   5.033  19.175  0.00  0.00    +0.000 F 
ATOM     16  F   UNL     1       8.242   7.167  18.890  0.00  0.00    +0.000 F 
ATOM     17  F   UNL     1       6.581   5.892  19.508  0.00  0.00    +0.000 F 
ENDBRANCH  12  14
ENDBRANCH  11  12
ENDBRANCH  10  11
ENDBRANCH   6  10
TORSDOF 5
ENDMDL
MODEL 9
REMARK VINA RESULT:      -6.6      3.956      5.450
REMARK  Name = 
REMARK  7 active torsions:
REMARK  status: ('A' for Active; 'I' for Inactive)
REMARK    1  A    between atoms: C_1  and  C_2
REMARK    2  A    between atoms: C_2  and  C_3
REMARK    3  A    between atoms: C_2  and  C_4
REMARK    4  A    between atoms: C_9  and  S_10
REMARK    5  A    between atoms: S_10  and  C_11
REMARK    6  A    between atoms: C_11  and  C_12
REMARK    7  A    between atoms: C_12  and  C_14
REMARK                            x       y       z     vdW  Elec       q    Type
REMARK                         _______ _______ _______ _____ _____    ______ ____
ROOT
ATOM      1  C   UNL     1       3.640   4.123  18.682  0.00  0.00    +0.000 A 
ATOM      2  C   UNL     1       2.286   4.262  18.303  0.00  0.00    +0.000 A 
ATOM      3  C   UNL     1       1.748   5.499  17.950  0.00  0.00    +0.000 A 
ATOM      4  C   UNL     1       2.555   6.627  17.957  0.00  0.00    +0.000 A 
ATOM      5  C   UNL     1       3.897   6.517  18.325  0.00  0.00    +0.000 A 
ATOM      6  C   UNL     1       4.451   5.282  18.708  0.00  0.00    +0.000 A 
ENDROOT
BRANCH   1   8
ATOM      7  C   UNL     1       4.014   2.368  20.485  0.00  0.00    +0.000 C 
ATOM      8  C   UNL     1       4.163   2.724  19.001  0.00  0.00    +0.000 C 
ATOM      9  C   UNL     1       3.468   1.676  18.123  0.00  0.00    +0.000 C 
ENDBRANCH   1   8
BRANCH   6  10
ATOM     10  S   UNL     1       6.204   5.229  19.105  0.00  0.00    +0.000 S 
BRANCH  10  11
ATOM     11  C   UNL     1       6.936   4.652  17.539  0.00  0.00    +0.000 C 
BRANCH  11  12
ATOM     12  C   UNL     1       6.887   5.667  16.415  0.00  0.00    +0.000 C 
ATOM     13  O   UNL     1       7.616   6.662  16.355  0.00  0.00    +0.000 OA
BRANCH  12  14
ATOM     14  C   UNL     1       5.859   5.352  15.343  0.00  0.00    +0.000 C 
ATOM     15  F   UNL     1       6.434   5.048  14.144  0.00  0.00    +0.000 F 
ATOM     16  F   UNL     1       5.081   4.284  15.665  0.00  0.00    +0.000 F 
ATOM     17  F   UNL     1       5.018   6.393  15.101  0.00  0.00    +0.000 F 
ENDBRANCH  12  14
ENDBRANCH  11  12
ENDBRANCH  10  11
ENDBRANCH   6  10
TORSDOF 5
ENDMDL
