MODEL 1
REMARK VINA RESULT:      -7.5      0.000      0.000
REMARK  Name = 
REMARK  6 active torsions:
REMARK  status: ('A' for Active; 'I' for Inactive)
REMARK    1  A    between atoms: C_1  and  C_2
REMARK    2  A    between atoms: C_2  and  C_3
REMARK    3  A    between atoms: N_12  and  C_13
REMARK    4  A    between atoms: C_13  and  C_14
REMARK    5  A    between atoms: C_14  and  C_16
REMARK    6  A    between atoms: C_17  and  C_18
REMARK                            x       y       z     vdW  Elec       q    Type
REMARK                         _______ _______ _______ _____ _____    ______ ____
ROOT
ATOM      1  C   UNL     1       6.062   3.261  11.840  0.00  0.00    +0.000 C 
ATOM      2  C   UNL     1       5.578   2.649  13.165  0.00  0.00    +0.000 C 
ATOM      3  C   UNL     1       5.232   3.716  14.203  0.00  0.00    +0.000 C 
ATOM      4  C   UNL     1       6.405   4.671  14.452  0.00  0.00    +0.000 C 
ATOM      5  C   UNL     1       7.002   5.246  13.166  0.00  0.00    +0.000 C 
ATOM      6  C   UNL     1       7.275   4.171  12.109  0.00  0.00    +0.000 C 
ATOM      7  N   UNL     1       7.416   4.038  15.273  0.00  0.00    +0.000 N 
ATOM      8  C   UNL     1       7.511   4.611  16.520  0.00  0.00    +0.000 C 
ATOM      9  O   UNL     1       8.246   4.204  17.403  0.00  0.00    +0.000 OA
ATOM     10  N   UNL     1       6.635   5.646  16.588  0.00  0.00    +0.000 N 
ATOM     11  C   UNL     1       5.961   5.793  15.411  0.00  0.00    +0.000 C 
ATOM     12  O   UNL     1       5.108   6.637  15.170  0.00  0.00    +0.000 OA
ATOM     13  H   UNL     1       7.964   3.223  15.034  0.00  0.00    +0.000 HD
ENDROOT
BRANCH   1  15
ATOM     14  C   UNL     1       3.690   3.202  10.866  0.00  0.00    +0.000 C 
ATOM     15  C   UNL     1       4.958   4.020  11.072  0.00  0.00    +0.000 C 
ENDBRANCH   1  15
BRANCH  10  16
ATOM     16  C   UNL     1       6.480   6.492  17.753  0.00  0.00    +0.000 C 
BRANCH  16  17
ATOM     17  C   UNL     1       5.643   5.812  18.829  0.00  0.00    +0.000 C 
ATOM     18  O   UNL     1       6.152   5.511  19.912  0.00  0.00    +0.000 OA
BRANCH  17  19
ATOM     19  C   UNL     1       4.209   5.557  18.580  0.00  0.00    +0.000 A 
ATOM     20  C   UNL     1       3.190   6.443  18.223  0.00  0.00    +0.000 A 
ATOM     21  C   UNL     1       3.101   7.903  17.948  0.00  0.00    +0.000 C 
ATOM     22  N   UNL     1       2.037   5.700  18.064  0.00  0.00    +0.000 N 
ATOM     23  C   UNL     1       2.266   4.369  18.283  0.00  0.00    +0.000 A 
ATOM     24  C   UNL     1       1.393   3.278  18.187  0.00  0.00    +0.000 A 
ATOM     25  C   UNL     1       1.904   2.010  18.480  0.00  0.00    +0.000 A 
ATOM     26  C   UNL     1       3.230   1.849  18.867  0.00  0.00    +0.000 A 
ATOM     27  C   UNL     1       4.086   2.954  18.952  0.00  0.00    +0.000 A 
ATOM     28  C   UNL     1       3.605   4.245  18.637  0.00  0.00    +0.000 A 
ATOM     29  H   UNL     1       1.141   6.079  17.788  0.00  0.00    +0.000 HD
ENDBRANCH  17  19
ENDBRANCH  16  17
ENDBRANCH  10  16
TORSDOF 4
ENDMDL
MODEL 2
REMARK VINA RESULT:      -7.2      3.424      5.360
REMARK  Name = 
REMARK  6 active torsions:
REMARK  status: ('A' for Active; 'I' for Inactive)
REMARK    1  A    between atoms: C_1  and  C_2
REMARK    2  A    between atoms: C_2  and  C_3
REMARK    3  A    between atoms: N_12  and  C_13
REMARK    4  A    between atoms: C_13  and  C_14
REMARK    5  A    between atoms: C_14  and  C_16
REMARK    6  A    between atoms: C_17  and  C_18
REMARK                            x       y       z     vdW  Elec       q    Type
REMARK                         _______ _______ _______ _____ _____    ______ ____
ROOT
ATOM      1  C   UNL     1       7.962   6.067  18.344  0.00  0.00    +0.000 C 
ATOM      2  C   UNL     1       8.024   4.621  17.825  0.00  0.00    +0.000 C 
ATOM      3  C   UNL     1       6.692   4.161  17.234  0.00  0.00    +0.000 C 
ATOM      4  C   UNL     1       5.539   4.323  18.231  0.00  0.00    +0.000 C 
ATOM      5  C   UNL     1       5.475   5.715  18.862  0.00  0.00    +0.000 C 
ATOM      6  C   UNL     1       6.834   6.190  19.385  0.00  0.00    +0.000 C 
ATOM      7  N   UNL     1       5.581   3.282  19.236  0.00  0.00    +0.000 N 
ATOM      8  C   UNL     1       4.525   2.408  19.129  0.00  0.00    +0.000 C 
ATOM      9  O   UNL     1       4.387   1.417  19.825  0.00  0.00    +0.000 OA
ATOM     10  N   UNL     1       3.724   2.820  18.113  0.00  0.00    +0.000 N 
ATOM     11  C   UNL     1       4.208   3.960  17.542  0.00  0.00    +0.000 C 
ATOM     12  O   UNL     1       3.704   4.567  16.606  0.00  0.00    +0.000 OA
ATOM     13  H   UNL     1       6.315   3.127  19.914  0.00  0.00    +0.000 HD
ENDROOT
BRANCH   1  15
ATOM     14  C   UNL     1       7.933   8.553  17.716  0.00  0.00    +0.000 C 
ATOM     15  C   UNL     1       7.801   7.118  17.224  0.00  0.00    +0.000 C 
ENDBRANCH   1  15
BRANCH  10  16
ATOM     16  C   UNL     1       2.502   2.145  17.729  0.00  0.00    +0.000 C 
BRANCH  16  17
ATOM     17  C   UNL     1       1.307   2.664  18.519  0.00  0.00    +0.000 C 
ATOM     18  O   UNL     1       0.187   2.177  18.340  0.00  0.00    +0.000 OA
BRANCH  17  19
ATOM     19  C   UNL     1       1.509   3.723  19.530  0.00  0.00    +0.000 A 
ATOM     20  C   UNL     1       1.635   3.624  20.918  0.00  0.00    +0.000 A 
ATOM     21  C   UNL     1       1.632   2.512  21.907  0.00  0.00    +0.000 C 
ATOM     22  N   UNL     1       1.855   4.897  21.401  0.00  0.00    +0.000 N 
ATOM     23  C   UNL     1       1.897   5.817  20.389  0.00  0.00    +0.000 A 
ATOM     24  C   UNL     1       2.136   7.196  20.434  0.00  0.00    +0.000 A 
ATOM     25  C   UNL     1       2.112   7.899  19.226  0.00  0.00    +0.000 A 
ATOM     26  C   UNL     1       1.844   7.246  18.027  0.00  0.00    +0.000 A 
ATOM     27  C   UNL     1       1.612   5.866  18.005  0.00  0.00    +0.000 A 
ATOM     28  C   UNL     1       1.656   5.124  19.207  0.00  0.00    +0.000 A 
ATOM     29  H   UNL     1       2.000   5.127  22.376  0.00  0.00    +0.000 HD
ENDBRANCH  17  19
ENDBRANCH  16  17
ENDBRANCH  10  16
TORSDOF 4
ENDMDL
MODEL 3
REMARK VINA RESULT:      -6.8      4.963      7.961
REMARK  Name = 
REMARK  6 active torsions:
REMARK  status: ('A' for Active; 'I' for Inactive)
REMARK    1  A    between atoms: C_1  and  C_2
REMARK    2  A    between atoms: C_2  and  C_3
REMARK    3  A    between atoms: N_12  and  C_13
REMARK    4  A    between atoms: C_13  and  C_14
REMARK    5  A    between atoms: C_14  and  C_16
REMARK    6  A    between atoms: C_17  and  C_18
REMARK                            x       y       z     vdW  Elec       q    Type
REMARK                         _______ _______ _______ _____ _____    ______ ____
ROOT
ATOM      1  C   UNL     1       3.696   3.581  17.667  0.00  0.00    +0.000 C 
ATOM      2  C   UNL     1       4.580   4.828  17.822  0.00  0.00    +0.000 C 
ATOM      3  C   UNL     1       4.099   5.743  18.948  0.00  0.00    +0.000 C 
ATOM      4  C   UNL     1       2.631   6.147  18.766  0.00  0.00    +0.000 C 
ATOM      5  C   UNL     1       1.702   4.958  18.510  0.00  0.00    +0.000 C 
ATOM      6  C   UNL     1       2.237   4.013  17.429  0.00  0.00    +0.000 C 
ATOM      7  N   UNL     1       2.501   7.157  17.737  0.00  0.00    +0.000 N 
ATOM      8  C   UNL     1       2.113   8.375  18.245  0.00  0.00    +0.000 C 
ATOM      9  O   UNL     1       2.002   9.388  17.577  0.00  0.00    +0.000 OA
ATOM     10  N   UNL     1       1.927   8.245  19.584  0.00  0.00    +0.000 N 
ATOM     11  C   UNL     1       2.167   6.964  19.988  0.00  0.00    +0.000 C 
ATOM     12  O   UNL     1       2.082   6.543  21.134  0.00  0.00    +0.000 OA
ATOM     13  H   UNL     1       2.727   7.053  16.757  0.00  0.00    +0.000 HD
ENDROOT
BRANCH   1  15
ATOM     14  C   UNL     1       3.671   1.139  18.450  0.00  0.00    +0.000 C 
ATOM     15  C   UNL     1       3.797   2.601  18.856  0.00  0.00    +0.000 C 
ENDBRANCH   1  15
BRANCH  10  16
ATOM     16  C   UNL     1       1.493   9.327  20.444  0.00  0.00    +0.000 C 
BRANCH  16  17
ATOM     17  C   UNL     1      -0.019   9.322  20.626  0.00  0.00    +0.000 C 
ATOM     18  O   UNL     1      -0.578   8.352  21.147  0.00  0.00    +0.000 OA
BRANCH  17  19
ATOM     19  C   UNL     1      -0.805  10.504  20.213  0.00  0.00    +0.000 A 
ATOM     20  C   UNL     1      -1.391  10.805  18.982  0.00  0.00    +0.000 A 
ATOM     21  C   UNL     1      -1.487  10.128  17.659  0.00  0.00    +0.000 C 
ATOM     22  N   UNL     1      -2.053  12.007  19.125  0.00  0.00    +0.000 N 
ATOM     23  C   UNL     1      -1.940  12.491  20.400  0.00  0.00    +0.000 A 
ATOM     24  C   UNL     1      -2.488  13.643  20.977  0.00  0.00    +0.000 A 
ATOM     25  C   UNL     1      -2.196  13.898  22.320  0.00  0.00    +0.000 A 
ATOM     26  C   UNL     1      -1.377  13.041  23.046  0.00  0.00    +0.000 A 
ATOM     27  C   UNL     1      -0.844  11.892  22.450  0.00  0.00    +0.000 A 
ATOM     28  C   UNL     1      -1.142  11.593  21.101  0.00  0.00    +0.000 A 
ATOM     29  H   UNL     1      -2.585  12.463  18.395  0.00  0.00    +0.000 HD
ENDBRANCH  17  19
ENDBRANCH  16  17
ENDBRANCH  10  16
TORSDOF 4
ENDMDL
MODEL 4
REMARK VINA RESULT:      -6.8      3.846      8.174
REMARK  Name = 
REMARK  6 active torsions:
REMARK  status: ('A' for Active; 'I' for Inactive)
REMARK    1  A    between atoms: C_1  and  C_2
REMARK    2  A    between atoms: C_2  and  C_3
REMARK    3  A    between atoms: N_12  and  C_13
REMARK    4  A    between atoms: C_13  and  C_14
REMARK    5  A    between atoms: C_14  and  C_16
REMARK    6  A    between atoms: C_17  and  C_18
REMARK                            x       y       z     vdW  Elec       q    Type
REMARK                         _______ _______ _______ _____ _____    ______ ____
ROOT
ATOM      1  C   UNL     1      -1.186  12.374  18.807  0.00  0.00    +0.000 C 
ATOM      2  C   UNL     1      -1.430  11.093  17.994  0.00  0.00    +0.000 C 
ATOM      3  C   UNL     1      -0.846   9.856  18.674  0.00  0.00    +0.000 C 
ATOM      4  C   UNL     1       0.649  10.022  18.975  0.00  0.00    +0.000 C 
ATOM      5  C   UNL     1       0.978  11.328  19.702  0.00  0.00    +0.000 C 
ATOM      6  C   UNL     1       0.325  12.549  19.048  0.00  0.00    +0.000 C 
ATOM      7  N   UNL     1       1.435   9.869  17.769  0.00  0.00    +0.000 N 
ATOM      8  C   UNL     1       2.207   8.731  17.788  0.00  0.00    +0.000 C 
ATOM      9  O   UNL     1       2.900   8.362  16.856  0.00  0.00    +0.000 OA
ATOM     10  N   UNL     1       2.021   8.104  18.978  0.00  0.00    +0.000 N 
ATOM     11  C   UNL     1       1.153   8.800  19.767  0.00  0.00    +0.000 C 
ATOM     12  O   UNL     1       0.791   8.483  20.893  0.00  0.00    +0.000 OA
ATOM     13  H   UNL     1       1.403  10.460  16.949  0.00  0.00    +0.000 HD
ENDROOT
BRANCH   1  15
ATOM     14  C   UNL     1      -1.725  13.687  20.943  0.00  0.00    +0.000 C 
ATOM     15  C   UNL     1      -1.968  12.418  20.138  0.00  0.00    +0.000 C 
ENDBRANCH   1  15
BRANCH  10  16
ATOM     16  C   UNL     1       2.696   6.878  19.354  0.00  0.00    +0.000 C 
BRANCH  16  17
ATOM     17  C   UNL     1       2.404   5.756  18.366  0.00  0.00    +0.000 C 
ATOM     18  O   UNL     1       1.260   5.594  17.931  0.00  0.00    +0.000 OA
BRANCH  17  19
ATOM     19  C   UNL     1       3.509   4.892  17.901  0.00  0.00    +0.000 A 
ATOM     20  C   UNL     1       3.534   3.514  17.670  0.00  0.00    +0.000 A 
ATOM     21  C   UNL     1       2.547   2.404  17.771  0.00  0.00    +0.000 C 
ATOM     22  N   UNL     1       4.792   3.200  17.198  0.00  0.00    +0.000 N 
ATOM     23  C   UNL     1       5.580   4.313  17.094  0.00  0.00    +0.000 A 
ATOM     24  C   UNL     1       6.893   4.446  16.624  0.00  0.00    +0.000 A 
ATOM     25  C   UNL     1       7.461   5.724  16.638  0.00  0.00    +0.000 A 
ATOM     26  C   UNL     1       6.745   6.816  17.117  0.00  0.00    +0.000 A 
ATOM     27  C   UNL     1       5.433   6.660  17.577  0.00  0.00    +0.000 A 
ATOM     28  C   UNL     1       4.822   5.386  17.551  0.00  0.00    +0.000 A 
ATOM     29  H   UNL     1       5.092   2.271  16.930  0.00  0.00    +0.000 HD
ENDBRANCH  17  19
ENDBRANCH  16  17
ENDBRANCH  10  16
TORSDOF 4
ENDMDL
MODEL 5
REMARK VINA RESULT:      -6.8      2.022      3.813
REMARK  Name = 
REMARK  6 active torsions:
REMARK  status: ('A' for Active; 'I' for Inactive)
REMARK    1  A    between atoms: C_1  and  C_2
REMARK    2  A    between atoms: C_2  and  C_3
REMARK    3  A    between atoms: N_12  and  C_13
REMARK    4  A    between atoms: C_13  and  C_14
REMARK    5  A    between atoms: C_14  and  C_16
REMARK    6  A    between atoms: C_17  and  C_18
REMARK                            x       y       z     vdW  Elec       q    Type
REMARK                         _______ _______ _______ _____ _____    ______ ____
ROOT
ATOM      1  C   UNL     1       6.804   3.704  11.628  0.00  0.00    +0.000 C 
ATOM      2  C   UNL     1       7.631   4.603  12.560  0.00  0.00    +0.000 C 
ATOM      3  C   UNL     1       7.326   4.344  14.035  0.00  0.00    +0.000 C 
ATOM      4  C   UNL     1       5.830   4.487  14.342  0.00  0.00    +0.000 C 
ATOM      5  C   UNL     1       4.937   3.691  13.388  0.00  0.00    +0.000 C 
ATOM      6  C   UNL     1       5.305   3.907  11.916  0.00  0.00    +0.000 C 
ATOM      7  N   UNL     1       5.448   5.883  14.392  0.00  0.00    +0.000 N 
ATOM      8  C   UNL     1       5.098   6.285  15.659  0.00  0.00    +0.000 C 
ATOM      9  O   UNL     1       4.805   7.430  15.954  0.00  0.00    +0.000 OA
ATOM     10  N   UNL     1       5.182   5.214  16.490  0.00  0.00    +0.000 N 
ATOM     11  C   UNL     1       5.566   4.096  15.810  0.00  0.00    +0.000 C 
ATOM     12  O   UNL     1       5.728   2.982  16.288  0.00  0.00    +0.000 OA
ATOM     13  H   UNL     1       5.486   6.546  13.629  0.00  0.00    +0.000 HD
ENDROOT
BRANCH   1  15
ATOM     14  C   UNL     1       6.154   1.283  11.086  0.00  0.00    +0.000 C 
ATOM     15  C   UNL     1       7.187   2.211  11.712  0.00  0.00    +0.000 C 
ENDBRANCH   1  15
BRANCH  10  16
ATOM     16  C   UNL     1       4.863   5.266  17.902  0.00  0.00    +0.000 C 
BRANCH  16  17
ATOM     17  C   UNL     1       3.383   5.003  18.150  0.00  0.00    +0.000 C 
ATOM     18  O   UNL     1       2.805   4.095  17.545  0.00  0.00    +0.000 OA
BRANCH  17  19
ATOM     19  C   UNL     1       2.658   5.814  19.150  0.00  0.00    +0.000 A 
ATOM     20  C   UNL     1       2.258   5.488  20.448  0.00  0.00    +0.000 A 
ATOM     21  C   UNL     1       2.379   4.294  21.327  0.00  0.00    +0.000 C 
ATOM     22  N   UNL     1       1.656   6.608  20.984  0.00  0.00    +0.000 N 
ATOM     23  C   UNL     1       1.663   7.652  20.101  0.00  0.00    +0.000 A 
ATOM     24  C   UNL     1       1.200   8.965  20.254  0.00  0.00    +0.000 A 
ATOM     25  C   UNL     1       1.332   9.832  19.165  0.00  0.00    +0.000 A 
ATOM     26  C   UNL     1       1.891   9.392  17.969  0.00  0.00    +0.000 A 
ATOM     27  C   UNL     1       2.351   8.077  17.840  0.00  0.00    +0.000 A 
ATOM     28  C   UNL     1       2.256   7.185  18.932  0.00  0.00    +0.000 A 
ATOM     29  H   UNL     1       1.282   6.668  21.923  0.00  0.00    +0.000 HD
ENDBRANCH  17  19
ENDBRANCH  16  17
ENDBRANCH  10  16
TORSDOF 4
ENDMDL
MODEL 6
REMARK VINA RESULT:      -6.8      5.056      7.910
REMARK  Name = 
REMARK  6 active torsions:
REMARK  status: ('A' for Active; 'I' for Inactive)
REMARK    1  A    between atoms: C_1  and  C_2
REMARK    2  A    between atoms: C_2  and  C_3
REMARK    3  A    between atoms: N_12  and  C_13
REMARK    4  A    between atoms: C_13  and  C_14
REMARK    5  A    between atoms: C_14  and  C_16
REMARK    6  A    between atoms: C_17  and  C_18
REMARK                            x       y       z     vdW  Elec       q    Type
REMARK                         _______ _______ _______ _____ _____    ______ ____
ROOT
ATOM      1  C   UNL     1       3.831   3.987  18.237  0.00  0.00    +0.000 C 
ATOM      2  C   UNL     1       2.319   4.223  18.380  0.00  0.00    +0.000 C 
ATOM      3  C   UNL     1       1.917   5.646  17.994  0.00  0.00    +0.000 C 
ATOM      4  C   UNL     1       2.701   6.697  18.789  0.00  0.00    +0.000 C 
ATOM      5  C   UNL     1       4.214   6.467  18.769  0.00  0.00    +0.000 C 
ATOM      6  C   UNL     1       4.595   5.017  19.088  0.00  0.00    +0.000 C 
ATOM      7  N   UNL     1       2.194   6.800  20.141  0.00  0.00    +0.000 N 
ATOM      8  C   UNL     1       1.576   8.006  20.377  0.00  0.00    +0.000 C 
ATOM      9  O   UNL     1       1.017   8.292  21.422  0.00  0.00    +0.000 OA
ATOM     10  N   UNL     1       1.667   8.765  19.255  0.00  0.00    +0.000 N 
ATOM     11  C   UNL     1       2.345   8.105  18.273  0.00  0.00    +0.000 C 
ATOM     12  O   UNL     1       2.584   8.533  17.151  0.00  0.00    +0.000 OA
ATOM     13  H   UNL     1       2.202   6.075  20.845  0.00  0.00    +0.000 HD
ENDROOT
BRANCH   1  15
ATOM     14  C   UNL     1       5.832   4.148  16.641  0.00  0.00    +0.000 C 
ATOM     15  C   UNL     1       4.322   4.004  16.773  0.00  0.00    +0.000 C 
ENDBRANCH   1  15
BRANCH  10  16
ATOM     16  C   UNL     1       1.140  10.110  19.151  0.00  0.00    +0.000 C 
BRANCH  16  17
ATOM     17  C   UNL     1      -0.229  10.123  18.482  0.00  0.00    +0.000 C 
ATOM     18  O   UNL     1      -0.483   9.326  17.575  0.00  0.00    +0.000 OA
BRANCH  17  19
ATOM     19  C   UNL     1      -1.261  11.066  18.960  0.00  0.00    +0.000 A 
ATOM     20  C   UNL     1      -2.354  11.616  18.285  0.00  0.00    +0.000 A 
ATOM     21  C   UNL     1      -2.920  11.501  16.913  0.00  0.00    +0.000 C 
ATOM     22  N   UNL     1      -3.040  12.403  19.187  0.00  0.00    +0.000 N 
ATOM     23  C   UNL     1      -2.454  12.374  20.423  0.00  0.00    +0.000 A 
ATOM     24  C   UNL     1      -2.845  12.988  21.620  0.00  0.00    +0.000 A 
ATOM     25  C   UNL     1      -2.040  12.789  22.745  0.00  0.00    +0.000 A 
ATOM     26  C   UNL     1      -0.884  12.019  22.666  0.00  0.00    +0.000 A 
ATOM     27  C   UNL     1      -0.515  11.412  21.461  0.00  0.00    +0.000 A 
ATOM     28  C   UNL     1      -1.323  11.572  20.313  0.00  0.00    +0.000 A 
ATOM     29  H   UNL     1      -3.888  12.913  18.979  0.00  0.00    +0.000 HD
ENDBRANCH  17  19
ENDBRANCH  16  17
ENDBRANCH  10  16
TORSDOF 4
ENDMDL
MODEL 7
REMARK VINA RESULT:      -6.7      2.907      5.262
REMARK  Name = 
REMARK  6 active torsions:
REMARK  status: ('A' for Active; 'I' for Inactive)
REMARK    1  A    between atoms: C_1  and  C_2
REMARK    2  A    between atoms: C_2  and  C_3
REMARK    3  A    between atoms: N_12  and  C_13
REMARK    4  A    between atoms: C_13  and  C_14
REMARK    5  A    between atoms: C_14  and  C_16
REMARK    6  A    between atoms: C_17  and  C_18
REMARK                            x       y       z     vdW  Elec       q    Type
REMARK                         _______ _______ _______ _____ _____    ______ ____
ROOT
ATOM      1  C   UNL     1       7.396   6.986  16.995  0.00  0.00    +0.000 C 
ATOM      2  C   UNL     1       5.880   7.213  17.100  0.00  0.00    +0.000 C 
ATOM      3  C   UNL     1       5.190   6.136  17.936  0.00  0.00    +0.000 C 
ATOM      4  C   UNL     1       5.484   4.727  17.406  0.00  0.00    +0.000 C 
ATOM      5  C   UNL     1       6.975   4.462  17.185  0.00  0.00    +0.000 C 
ATOM      6  C   UNL     1       7.665   5.588  16.408  0.00  0.00    +0.000 C 
ATOM      7  N   UNL     1       4.710   4.457  16.213  0.00  0.00    +0.000 N 
ATOM      8  C   UNL     1       3.752   3.491  16.418  0.00  0.00    +0.000 C 
ATOM      9  O   UNL     1       2.941   3.146  15.577  0.00  0.00    +0.000 OA
ATOM     10  N   UNL     1       3.853   3.048  17.698  0.00  0.00    +0.000 N 
ATOM     11  C   UNL     1       4.866   3.681  18.356  0.00  0.00    +0.000 C 
ATOM     12  O   UNL     1       5.198   3.494  19.519  0.00  0.00    +0.000 OA
ATOM     13  H   UNL     1       4.775   4.942  15.329  0.00  0.00    +0.000 HD
ENDROOT
BRANCH   1  15
ATOM     14  C   UNL     1       8.563   8.620  18.590  0.00  0.00    +0.000 C 
ATOM     15  C   UNL     1       8.144   7.179  18.332  0.00  0.00    +0.000 C 
ENDBRANCH   1  15
BRANCH  10  16
ATOM     16  C   UNL     1       3.011   2.010  18.257  0.00  0.00    +0.000 C 
BRANCH  16  17
ATOM     17  C   UNL     1       1.716   2.585  18.815  0.00  0.00    +0.000 C 
ATOM     18  O   UNL     1       0.633   2.062  18.534  0.00  0.00    +0.000 OA
BRANCH  17  19
ATOM     19  C   UNL     1       1.770   3.745  19.730  0.00  0.00    +0.000 A 
ATOM     20  C   UNL     1       1.828   3.784  21.125  0.00  0.00    +0.000 A 
ATOM     21  C   UNL     1       1.868   2.770  22.214  0.00  0.00    +0.000 C 
ATOM     22  N   UNL     1       1.910   5.110  21.495  0.00  0.00    +0.000 N 
ATOM     23  C   UNL     1       1.927   5.935  20.402  0.00  0.00    +0.000 A 
ATOM     24  C   UNL     1       2.043   7.328  20.327  0.00  0.00    +0.000 A 
ATOM     25  C   UNL     1       2.023   7.914  19.058  0.00  0.00    +0.000 A 
ATOM     26  C   UNL     1       1.878   7.134  17.916  0.00  0.00    +0.000 A 
ATOM     27  C   UNL     1       1.768   5.742  18.015  0.00  0.00    +0.000 A 
ATOM     28  C   UNL     1       1.811   5.118  19.282  0.00  0.00    +0.000 A 
ATOM     29  H   UNL     1       1.982   5.440  22.449  0.00  0.00    +0.000 HD
ENDBRANCH  17  19
ENDBRANCH  16  17
ENDBRANCH  10  16
TORSDOF 4
ENDMDL
MODEL 8
REMARK VINA RESULT:      -6.7      4.610      7.693
REMARK  Name = 
REMARK  6 active torsions:
REMARK  status: ('A' for Active; 'I' for Inactive)
REMARK    1  A    between atoms: C_1  and  C_2
REMARK    2  A    between atoms: C_2  and  C_3
REMARK    3  A    between atoms: N_12  and  C_13
REMARK    4  A    between atoms: C_13  and  C_14
REMARK    5  A    between atoms: C_14  and  C_16
REMARK    6  A    between atoms: C_17  and  C_18
REMARK                            x       y       z     vdW  Elec       q    Type
REMARK                         _______ _______ _______ _____ _____    ______ ____
ROOT
ATOM      1  C   UNL     1       3.265   3.591  18.185  0.00  0.00    +0.000 C 
ATOM      2  C   UNL     1       4.260   4.755  18.313  0.00  0.00    +0.000 C 
ATOM      3  C   UNL     1       3.770   5.832  19.281  0.00  0.00    +0.000 C 
ATOM      4  C   UNL     1       2.382   6.356  18.895  0.00  0.00    +0.000 C 
ATOM      5  C   UNL     1       1.359   5.243  18.657  0.00  0.00    +0.000 C 
ATOM      6  C   UNL     1       1.894   4.136  17.743  0.00  0.00    +0.000 C 
ATOM      7  N   UNL     1       2.469   7.254  17.763  0.00  0.00    +0.000 N 
ATOM      8  C   UNL     1       2.167   8.552  18.099  0.00  0.00    +0.000 C 
ATOM      9  O   UNL     1       2.237   9.491  17.325  0.00  0.00    +0.000 OA
ATOM     10  N   UNL     1       1.833   8.591  19.415  0.00  0.00    +0.000 N 
ATOM     11  C   UNL     1       1.889   7.346  19.969  0.00  0.00    +0.000 C 
ATOM     12  O   UNL     1       1.643   7.065  21.135  0.00  0.00    +0.000 OA
ATOM     13  H   UNL     1       2.780   7.019  16.829  0.00  0.00    +0.000 HD
ENDROOT
BRANCH   1  15
ATOM     14  C   UNL     1       4.477   2.305  20.043  0.00  0.00    +0.000 C 
ATOM     15  C   UNL     1       3.136   2.745  19.470  0.00  0.00    +0.000 C 
ENDBRANCH   1  15
BRANCH  10  16
ATOM     16  C   UNL     1       1.436   9.799  20.108  0.00  0.00    +0.000 C 
BRANCH  16  17
ATOM     17  C   UNL     1      -0.069  10.021  20.024  0.00  0.00    +0.000 C 
ATOM     18  O   UNL     1      -0.824   9.462  20.824  0.00  0.00    +0.000 OA
BRANCH  17  19
ATOM     19  C   UNL     1      -0.612  10.943  19.004  0.00  0.00    +0.000 A 
ATOM     20  C   UNL     1      -0.216  12.240  18.668  0.00  0.00    +0.000 A 
ATOM     21  C   UNL     1       0.836  13.183  19.136  0.00  0.00    +0.000 C 
ATOM     22  N   UNL     1      -1.011  12.652  17.618  0.00  0.00    +0.000 N 
ATOM     23  C   UNL     1      -1.892  11.675  17.244  0.00  0.00    +0.000 A 
ATOM     24  C   UNL     1      -2.836  11.661  16.210  0.00  0.00    +0.000 A 
ATOM     25  C   UNL     1      -3.619  10.513  16.060  0.00  0.00    +0.000 A 
ATOM     26  C   UNL     1      -3.470   9.432  16.923  0.00  0.00    +0.000 A 
ATOM     27  C   UNL     1      -2.517   9.466  17.947  0.00  0.00    +0.000 A 
ATOM     28  C   UNL     1      -1.692  10.602  18.107  0.00  0.00    +0.000 A 
ATOM     29  H   UNL     1      -0.937  13.549  17.156  0.00  0.00    +0.000 HD
ENDBRANCH  17  19
ENDBRANCH  16  17
ENDBRANCH  10  16
TORSDOF 4
ENDMDL
MODEL 9
REMARK VINA RESULT:      -6.6      5.077      7.799
REMARK  Name = 
REMARK  6 active torsions:
REMARK  status: ('A' for Active; 'I' for Inactive)
REMARK    1  A    between atoms: C_1  and  C_2
REMARK    2  A    between atoms: C_2  and  C_3
REMARK    3  A    between atoms: N_12  and  C_13
REMARK    4  A    between atoms: C_13  and  C_14
REMARK    5  A    between atoms: C_14  and  C_16
REMARK    6  A    between atoms: C_17  and  C_18
REMARK                            x       y       z     vdW  Elec       q    Type
REMARK                         _______ _______ _______ _____ _____    ______ ____
ROOT
ATOM      1  C   UNL     1       3.966   3.936  18.055  0.00  0.00    +0.000 C 
ATOM      2  C   UNL     1       2.453   4.167  18.188  0.00  0.00    +0.000 C 
ATOM      3  C   UNL     1       2.053   5.601  17.841  0.00  0.00    +0.000 C 
ATOM      4  C   UNL     1       2.826   6.627  18.678  0.00  0.00    +0.000 C 
ATOM      5  C   UNL     1       4.339   6.399  18.668  0.00  0.00    +0.000 C 
ATOM      6  C   UNL     1       4.718   4.941  18.947  0.00  0.00    +0.000 C 
ATOM      7  N   UNL     1       2.303   6.688  20.026  0.00  0.00    +0.000 N 
ATOM      8  C   UNL     1       1.681   7.884  20.292  0.00  0.00    +0.000 C 
ATOM      9  O   UNL     1       1.109   8.138  21.339  0.00  0.00    +0.000 OA
ATOM     10  N   UNL     1       1.784   8.678  19.196  0.00  0.00    +0.000 N 
ATOM     11  C   UNL     1       2.474   8.050  18.201  0.00  0.00    +0.000 C 
ATOM     12  O   UNL     1       2.726   8.512  17.096  0.00  0.00    +0.000 OA
ATOM     13  H   UNL     1       2.304   5.941  20.708  0.00  0.00    +0.000 HD
ENDROOT
BRANCH   1  15
ATOM     14  C   UNL     1       5.990   4.085  16.487  0.00  0.00    +0.000 C 
ATOM     15  C   UNL     1       4.474   4.000  16.598  0.00  0.00    +0.000 C 
ENDBRANCH   1  15
BRANCH  10  16
ATOM     16  C   UNL     1       1.257  10.026  19.127  0.00  0.00    +0.000 C 
BRANCH  16  17
ATOM     17  C   UNL     1      -0.119  10.054  18.472  0.00  0.00    +0.000 C 
ATOM     18  O   UNL     1      -0.340   9.375  17.465  0.00  0.00    +0.000 OA
BRANCH  17  19
ATOM     19  C   UNL     1      -1.195  10.865  19.078  0.00  0.00    +0.000 A 
ATOM     20  C   UNL     1      -1.200  11.607  20.261  0.00  0.00    +0.000 A 
ATOM     21  C   UNL     1      -0.212  11.894  21.337  0.00  0.00    +0.000 C 
ATOM     22  N   UNL     1      -2.432  12.220  20.356  0.00  0.00    +0.000 N 
ATOM     23  C   UNL     1      -3.222  11.926  19.278  0.00  0.00    +0.000 A 
ATOM     24  C   UNL     1      -4.512  12.368  18.959  0.00  0.00    +0.000 A 
ATOM     25  C   UNL     1      -5.088  11.892  17.778  0.00  0.00    +0.000 A 
ATOM     26  C   UNL     1      -4.403  10.999  16.961  0.00  0.00    +0.000 A 
ATOM     27  C   UNL     1      -3.113  10.573  17.298  0.00  0.00    +0.000 A 
ATOM     28  C   UNL     1      -2.493  11.058  18.472  0.00  0.00    +0.000 A 
ATOM     29  H   UNL     1      -2.713  12.837  21.107  0.00  0.00    +0.000 HD
ENDBRANCH  17  19
ENDBRANCH  16  17
ENDBRANCH  10  16
TORSDOF 4
ENDMDL
