MODEL 1
REMARK VINA RESULT:      -8.6      0.000      0.000
REMARK  Name = 
REMARK  5 active torsions:
REMARK  status: ('A' for Active; 'I' for Inactive)
REMARK    1  A    between atoms: C_4  and  C_5
REMARK    2  A    between atoms: C_5  and  O_6
REMARK    3  A    between atoms: C_8  and  C_9
REMARK    4  A    between atoms: C_11  and  C_12
REMARK    5  A    between atoms: C_26  and  O_27
REMARK                            x       y       z     vdW  Elec       q    Type
REMARK                         _______ _______ _______ _____ _____    ______ ____
ROOT
ATOM      1  C   UNL     1       4.088   5.375  19.067  0.00  0.00    +0.000 C 
ATOM      2  C   UNL     1       3.500   6.686  18.612  0.00  0.00    +0.000 C 
ATOM      3  C   UNL     1       2.365   7.127  19.185  0.00  0.00    +0.000 C 
ATOM      4  O   UNL     1       1.629   6.335  20.063  0.00  0.00    +0.000 OA
ATOM      5  C   UNL     1       1.833   4.971  20.022  0.00  0.00    +0.000 A 
ATOM      6  C   UNL     1       0.832   4.173  20.576  0.00  0.00    +0.000 A 
ATOM      7  C   UNL     1       0.959   2.789  20.534  0.00  0.00    +0.000 A 
ATOM      8  C   UNL     1       2.088   2.213  19.945  0.00  0.00    +0.000 A 
ATOM      9  C   UNL     1       3.107   3.013  19.423  0.00  0.00    +0.000 A 
ATOM     10  C   UNL     1       2.992   4.408  19.457  0.00  0.00    +0.000 A 
ENDROOT
BRANCH   1  16
ATOM     11  O   UNL     1       8.733   4.479  17.792  0.00  0.00    +0.000 OA
ATOM     12  C   UNL     1       7.540   4.549  17.522  0.00  0.00    +0.000 A 
ATOM     13  C   UNL     1       7.090   4.407  16.133  0.00  0.00    +0.000 A 
ATOM     14  C   UNL     1       5.782   4.476  15.855  0.00  0.00    +0.000 A 
ATOM     15  O   UNL     1       4.815   4.717  16.820  0.00  0.00    +0.000 OA
ATOM     16  C   UNL     1       5.201   4.899  18.148  0.00  0.00    +0.000 A 
ATOM     17  C   UNL     1       6.485   4.780  18.555  0.00  0.00    +0.000 A 
BRANCH  17  18
ATOM     18  O   UNL     1       6.920   4.916  19.862  0.00  0.00    +0.000 OA
ATOM     19  H   UNL     1       7.367   5.767  19.987  0.00  0.00    +0.000 HD
ENDBRANCH  17  18
BRANCH  14  20
ATOM     20  C   UNL     1       5.260   4.280  14.463  0.00  0.00    +0.000 C 
BRANCH  20  21
ATOM     21  O   UNL     1       6.176   3.502  13.705  0.00  0.00    +0.000 OA
ATOM     22  H   UNL     1       5.701   3.213  12.907  0.00  0.00    +0.000 HD
ENDBRANCH  20  21
ENDBRANCH  14  20
ENDBRANCH   1  16
BRANCH   3  23
ATOM     23  C   UNL     1       1.856   8.506  19.030  0.00  0.00    +0.000 A 
ATOM     24  C   UNL     1       1.059   9.087  20.030  0.00  0.00    +0.000 A 
ATOM     25  C   UNL     1       0.660  10.425  19.942  0.00  0.00    +0.000 A 
ATOM     26  C   UNL     1       1.051  11.196  18.851  0.00  0.00    +0.000 A 
ATOM     27 CL   UNL     1       0.585  12.848  18.754  0.00  0.00    +0.000 Cl
ATOM     28  C   UNL     1       1.835  10.639  17.846  0.00  0.00    +0.000 A 
ATOM     29  C   UNL     1       2.238   9.304  17.939  0.00  0.00    +0.000 A 
ENDBRANCH   3  23
TORSDOF 5
ENDMDL
MODEL 2
REMARK VINA RESULT:      -7.8      1.799      2.999
REMARK  Name = 
REMARK  5 active torsions:
REMARK  status: ('A' for Active; 'I' for Inactive)
REMARK    1  A    between atoms: C_4  and  C_5
REMARK    2  A    between atoms: C_5  and  O_6
REMARK    3  A    between atoms: C_8  and  C_9
REMARK    4  A    between atoms: C_11  and  C_12
REMARK    5  A    between atoms: C_26  and  O_27
REMARK                            x       y       z     vdW  Elec       q    Type
REMARK                         _______ _______ _______ _____ _____    ______ ____
ROOT
ATOM      1  C   UNL     1       3.744   5.567  19.732  0.00  0.00    +0.000 C 
ATOM      2  C   UNL     1       2.957   6.847  19.840  0.00  0.00    +0.000 C 
ATOM      3  C   UNL     1       1.715   6.809  20.357  0.00  0.00    +0.000 C 
ATOM      4  O   UNL     1       1.073   5.606  20.638  0.00  0.00    +0.000 OA
ATOM      5  C   UNL     1       1.536   4.468  20.010  0.00  0.00    +0.000 A 
ATOM      6  C   UNL     1       0.664   3.381  19.964  0.00  0.00    +0.000 A 
ATOM      7  C   UNL     1       1.055   2.217  19.312  0.00  0.00    +0.000 A 
ATOM      8  C   UNL     1       2.319   2.145  18.719  0.00  0.00    +0.000 A 
ATOM      9  C   UNL     1       3.206   3.221  18.797  0.00  0.00    +0.000 A 
ATOM     10  C   UNL     1       2.825   4.400  19.448  0.00  0.00    +0.000 A 
ENDROOT
BRANCH   1  16
ATOM     11  O   UNL     1       6.300   5.969  15.571  0.00  0.00    +0.000 OA
ATOM     12  C   UNL     1       6.244   5.850  16.788  0.00  0.00    +0.000 A 
ATOM     13  C   UNL     1       7.466   5.602  17.562  0.00  0.00    +0.000 A 
ATOM     14  C   UNL     1       7.390   5.483  18.893  0.00  0.00    +0.000 A 
ATOM     15  O   UNL     1       6.192   5.545  19.591  0.00  0.00    +0.000 OA
ATOM     16  C   UNL     1       5.000   5.739  18.893  0.00  0.00    +0.000 A 
ATOM     17  C   UNL     1       4.964   5.943  17.556  0.00  0.00    +0.000 A 
BRANCH  17  18
ATOM     18  O   UNL     1       3.817   6.174  16.818  0.00  0.00    +0.000 OA
ATOM     19  H   UNL     1       3.323   5.351  16.687  0.00  0.00    +0.000 HD
ENDBRANCH  17  18
BRANCH  14  20
ATOM     20  C   UNL     1       8.612   5.287  19.739  0.00  0.00    +0.000 C 
BRANCH  20  21
ATOM     21  O   UNL     1       8.249   5.219  21.111  0.00  0.00    +0.000 OA
ATOM     22  H   UNL     1       7.427   4.702  21.156  0.00  0.00    +0.000 HD
ENDBRANCH  20  21
ENDBRANCH  14  20
ENDBRANCH   1  16
BRANCH   3  23
ATOM     23  C   UNL     1       0.967   8.014  20.771  0.00  0.00    +0.000 A 
ATOM     24  C   UNL     1       0.225   8.017  21.964  0.00  0.00    +0.000 A 
ATOM     25  C   UNL     1      -0.400   9.184  22.417  0.00  0.00    +0.000 A 
ATOM     26  C   UNL     1      -0.292  10.360  21.681  0.00  0.00    +0.000 A 
ATOM     27 CL   UNL     1      -1.037  11.802  22.250  0.00  0.00    +0.000 Cl
ATOM     28  C   UNL     1       0.432  10.379  20.494  0.00  0.00    +0.000 A 
ATOM     29  C   UNL     1       1.061   9.214  20.045  0.00  0.00    +0.000 A 
ENDBRANCH   3  23
TORSDOF 5
ENDMDL
MODEL 3
REMARK VINA RESULT:      -7.7      1.184      2.729
REMARK  Name = 
REMARK  5 active torsions:
REMARK  status: ('A' for Active; 'I' for Inactive)
REMARK    1  A    between atoms: C_4  and  C_5
REMARK    2  A    between atoms: C_5  and  O_6
REMARK    3  A    between atoms: C_8  and  C_9
REMARK    4  A    between atoms: C_11  and  C_12
REMARK    5  A    between atoms: C_26  and  O_27
REMARK                            x       y       z     vdW  Elec       q    Type
REMARK                         _______ _______ _______ _____ _____    ______ ____
ROOT
ATOM      1  C   UNL     1       3.975   5.536  19.614  0.00  0.00    +0.000 C 
ATOM      2  C   UNL     1       3.304   6.853  19.321  0.00  0.00    +0.000 C 
ATOM      3  C   UNL     1       2.065   7.076  19.798  0.00  0.00    +0.000 C 
ATOM      4  O   UNL     1       1.321   6.069  20.408  0.00  0.00    +0.000 OA
ATOM      5  C   UNL     1       1.680   4.761  20.156  0.00  0.00    +0.000 A 
ATOM      6  C   UNL     1       0.716   3.788  20.413  0.00  0.00    +0.000 A 
ATOM      7  C   UNL     1       1.001   2.454  20.145  0.00  0.00    +0.000 A 
ATOM      8  C   UNL     1       2.251   2.102  19.628  0.00  0.00    +0.000 A 
ATOM      9  C   UNL     1       3.230   3.073  19.404  0.00  0.00    +0.000 A 
ATOM     10  C   UNL     1       2.956   4.420  19.668  0.00  0.00    +0.000 A 
ENDROOT
BRANCH   1  16
ATOM     11  O   UNL     1       6.555   4.262  15.648  0.00  0.00    +0.000 OA
ATOM     12  C   UNL     1       6.492   4.615  16.819  0.00  0.00    +0.000 A 
ATOM     13  C   UNL     1       7.703   4.647  17.646  0.00  0.00    +0.000 A 
ATOM     14  C   UNL     1       7.619   5.045  18.922  0.00  0.00    +0.000 A 
ATOM     15  O   UNL     1       6.422   5.399  19.527  0.00  0.00    +0.000 OA
ATOM     16  C   UNL     1       5.238   5.344  18.791  0.00  0.00    +0.000 A 
ATOM     17  C   UNL     1       5.213   5.026  17.477  0.00  0.00    +0.000 A 
BRANCH  17  18
ATOM     18  O   UNL     1       4.076   4.990  16.689  0.00  0.00    +0.000 OA
ATOM     19  H   UNL     1       3.946   5.837  16.237  0.00  0.00    +0.000 HD
ENDBRANCH  17  18
BRANCH  14  20
ATOM     20  C   UNL     1       8.833   5.152  19.796  0.00  0.00    +0.000 C 
BRANCH  20  21
ATOM     21  O   UNL     1       8.450   5.135  21.164  0.00  0.00    +0.000 OA
ATOM     22  H   UNL     1       9.052   5.741  21.629  0.00  0.00    +0.000 HD
ENDBRANCH  20  21
ENDBRANCH  14  20
ENDBRANCH   1  16
BRANCH   3  23
ATOM     23  C   UNL     1       1.428   8.408  19.819  0.00  0.00    +0.000 A 
ATOM     24  C   UNL     1       1.444   9.224  18.676  0.00  0.00    +0.000 A 
ATOM     25  C   UNL     1       0.754  10.441  18.654  0.00  0.00    +0.000 A 
ATOM     26  C   UNL     1       0.041  10.856  19.775  0.00  0.00    +0.000 A 
ATOM     27 CL   UNL     1      -0.830  12.338  19.740  0.00  0.00    +0.000 Cl
ATOM     28  C   UNL     1       0.017  10.067  20.920  0.00  0.00    +0.000 A 
ATOM     29  C   UNL     1       0.702   8.849  20.939  0.00  0.00    +0.000 A 
ENDBRANCH   3  23
TORSDOF 5
ENDMDL
MODEL 4
REMARK VINA RESULT:      -7.6      1.476      2.177
REMARK  Name = 
REMARK  5 active torsions:
REMARK  status: ('A' for Active; 'I' for Inactive)
REMARK    1  A    between atoms: C_4  and  C_5
REMARK    2  A    between atoms: C_5  and  O_6
REMARK    3  A    between atoms: C_8  and  C_9
REMARK    4  A    between atoms: C_11  and  C_12
REMARK    5  A    between atoms: C_26  and  O_27
REMARK                            x       y       z     vdW  Elec       q    Type
REMARK                         _______ _______ _______ _____ _____    ______ ____
ROOT
ATOM      1  C   UNL     1       4.751   4.933  17.465  0.00  0.00    +0.000 C 
ATOM      2  C   UNL     1       3.966   6.219  17.457  0.00  0.00    +0.000 C 
ATOM      3  C   UNL     1       3.018   6.412  18.393  0.00  0.00    +0.000 C 
ATOM      4  O   UNL     1       2.625   5.396  19.261  0.00  0.00    +0.000 OA
ATOM      5  C   UNL     1       2.904   4.095  18.896  0.00  0.00    +0.000 A 
ATOM      6  C   UNL     1       2.166   3.096  19.530  0.00  0.00    +0.000 A 
ATOM      7  C   UNL     1       2.372   1.767  19.181  0.00  0.00    +0.000 A 
ATOM      8  C   UNL     1       3.319   1.444  18.205  0.00  0.00    +0.000 A 
ATOM      9  C   UNL     1       4.084   2.441  17.595  0.00  0.00    +0.000 A 
ATOM     10  C   UNL     1       3.886   3.785  17.936  0.00  0.00    +0.000 A 
ENDROOT
BRANCH   1  16
ATOM     11  O   UNL     1       8.513   5.822  14.455  0.00  0.00    +0.000 OA
ATOM     12  C   UNL     1       7.430   5.303  14.695  0.00  0.00    +0.000 A 
ATOM     13  C   UNL     1       6.682   4.632  13.626  0.00  0.00    +0.000 A 
ATOM     14  C   UNL     1       5.504   4.060  13.905  0.00  0.00    +0.000 A 
ATOM     15  O   UNL     1       4.924   4.101  15.165  0.00  0.00    +0.000 OA
ATOM     16  C   UNL     1       5.580   4.763  16.202  0.00  0.00    +0.000 A 
ATOM     17  C   UNL     1       6.806   5.314  16.053  0.00  0.00    +0.000 A 
BRANCH  17  18
ATOM     18  O   UNL     1       7.518   5.951  17.054  0.00  0.00    +0.000 OA
ATOM     19  H   UNL     1       6.987   6.018  17.862  0.00  0.00    +0.000 HD
ENDBRANCH  17  18
BRANCH  14  20
ATOM     20  C   UNL     1       4.724   3.312  12.866  0.00  0.00    +0.000 C 
BRANCH  20  21
ATOM     21  O   UNL     1       5.605   2.558  12.046  0.00  0.00    +0.000 OA
ATOM     22  H   UNL     1       5.942   3.167  11.366  0.00  0.00    +0.000 HD
ENDBRANCH  20  21
ENDBRANCH  14  20
ENDBRANCH   1  16
BRANCH   3  23
ATOM     23  C   UNL     1       2.390   7.722  18.660  0.00  0.00    +0.000 A 
ATOM     24  C   UNL     1       2.284   8.682  17.640  0.00  0.00    +0.000 A 
ATOM     25  C   UNL     1       1.599   9.883  17.853  0.00  0.00    +0.000 A 
ATOM     26  C   UNL     1       1.014  10.139  19.090  0.00  0.00    +0.000 A 
ATOM     27 CL   UNL     1       0.148  11.602  19.346  0.00  0.00    +0.000 Cl
ATOM     28  C   UNL     1       1.112   9.205  20.117  0.00  0.00    +0.000 A 
ATOM     29  C   UNL     1       1.792   8.003  19.900  0.00  0.00    +0.000 A 
ENDBRANCH   3  23
TORSDOF 5
ENDMDL
MODEL 5
REMARK VINA RESULT:      -7.5      4.782      9.553
REMARK  Name = 
REMARK  5 active torsions:
REMARK  status: ('A' for Active; 'I' for Inactive)
REMARK    1  A    between atoms: C_4  and  C_5
REMARK    2  A    between atoms: C_5  and  O_6
REMARK    3  A    between atoms: C_8  and  C_9
REMARK    4  A    between atoms: C_11  and  C_12
REMARK    5  A    between atoms: C_26  and  O_27
REMARK                            x       y       z     vdW  Elec       q    Type
REMARK                         _______ _______ _______ _____ _____    ______ ____
ROOT
ATOM      1  C   UNL     1      -0.951  11.315  18.700  0.00  0.00    +0.000 C 
ATOM      2  C   UNL     1      -0.195  10.055  18.368  0.00  0.00    +0.000 C 
ATOM      3  C   UNL     1       1.062   9.907  18.825  0.00  0.00    +0.000 C 
ATOM      4  O   UNL     1       1.743  10.949  19.450  0.00  0.00    +0.000 OA
ATOM      5  C   UNL     1       1.292  12.235  19.231  0.00  0.00    +0.000 A 
ATOM      6  C   UNL     1       2.190  13.266  19.499  0.00  0.00    +0.000 A 
ATOM      7  C   UNL     1       1.810  14.583  19.265  0.00  0.00    +0.000 A 
ATOM      8  C   UNL     1       0.532  14.859  18.771  0.00  0.00    +0.000 A 
ATOM      9  C   UNL     1      -0.381  13.828  18.537  0.00  0.00    +0.000 A 
ATOM     10  C   UNL     1      -0.011  12.497  18.767  0.00  0.00    +0.000 A 
ENDROOT
BRANCH   1  16
ATOM     11  O   UNL     1      -5.735  12.151  18.050  0.00  0.00    +0.000 OA
ATOM     12  C   UNL     1      -4.645  11.780  17.634  0.00  0.00    +0.000 A 
ATOM     13  C   UNL     1      -4.534  11.152  16.313  0.00  0.00    +0.000 A 
ATOM     14  C   UNL     1      -3.334  10.760  15.869  0.00  0.00    +0.000 A 
ATOM     15  O   UNL     1      -2.173  10.883  16.618  0.00  0.00    +0.000 OA
ATOM     16  C   UNL     1      -2.236  11.437  17.896  0.00  0.00    +0.000 A 
ATOM     17  C   UNL     1      -3.381  11.932  18.419  0.00  0.00    +0.000 A 
BRANCH  17  18
ATOM     18  O   UNL     1      -3.496  12.523  19.664  0.00  0.00    +0.000 OA
ATOM     19  H   UNL     1      -2.622  12.664  20.058  0.00  0.00    +0.000 HD
ENDBRANCH  17  18
BRANCH  14  20
ATOM     20  C   UNL     1      -3.153  10.165  14.504  0.00  0.00    +0.000 C 
BRANCH  20  21
ATOM     21  O   UNL     1      -4.420   9.885  13.924  0.00  0.00    +0.000 OA
ATOM     22  H   UNL     1      -4.531   8.920  13.950  0.00  0.00    +0.000 HD
ENDBRANCH  20  21
ENDBRANCH  14  20
ENDBRANCH   1  16
BRANCH   3  23
ATOM     23  C   UNL     1       1.790   8.622  18.809  0.00  0.00    +0.000 A 
ATOM     24  C   UNL     1       2.636   8.296  17.735  0.00  0.00    +0.000 A 
ATOM     25  C   UNL     1       3.409   7.130  17.760  0.00  0.00    +0.000 A 
ATOM     26  C   UNL     1       3.344   6.277  18.857  0.00  0.00    +0.000 A 
ATOM     27 CL   UNL     1       4.315   4.859  18.902  0.00  0.00    +0.000 Cl
ATOM     28  C   UNL     1       2.510   6.577  19.929  0.00  0.00    +0.000 A 
ATOM     29  C   UNL     1       1.742   7.744  19.905  0.00  0.00    +0.000 A 
ENDBRANCH   3  23
TORSDOF 5
ENDMDL
MODEL 6
REMARK VINA RESULT:      -7.5      0.896      1.282
REMARK  Name = 
REMARK  5 active torsions:
REMARK  status: ('A' for Active; 'I' for Inactive)
REMARK    1  A    between atoms: C_4  and  C_5
REMARK    2  A    between atoms: C_5  and  O_6
REMARK    3  A    between atoms: C_8  and  C_9
REMARK    4  A    between atoms: C_11  and  C_12
REMARK    5  A    between atoms: C_26  and  O_27
REMARK                            x       y       z     vdW  Elec       q    Type
REMARK                         _______ _______ _______ _____ _____    ______ ____
ROOT
ATOM      1  C   UNL     1       4.095   5.504  19.307  0.00  0.00    +0.000 C 
ATOM      2  C   UNL     1       3.422   6.797  18.924  0.00  0.00    +0.000 C 
ATOM      3  C   UNL     1       2.275   7.143  19.538  0.00  0.00    +0.000 C 
ATOM      4  O   UNL     1       1.606   6.269  20.391  0.00  0.00    +0.000 OA
ATOM      5  C   UNL     1       1.889   4.923  20.283  0.00  0.00    +0.000 A 
ATOM      6  C   UNL     1       0.949   4.042  20.818  0.00  0.00    +0.000 A 
ATOM      7  C   UNL     1       1.156   2.672  20.709  0.00  0.00    +0.000 A 
ATOM      8  C   UNL     1       2.305   2.191  20.073  0.00  0.00    +0.000 A 
ATOM      9  C   UNL     1       3.264   3.074  19.570  0.00  0.00    +0.000 A 
ATOM     10  C   UNL     1       3.067   4.457  19.671  0.00  0.00    +0.000 A 
ENDROOT
BRANCH   1  16
ATOM     11  O   UNL     1       8.685   4.330  18.056  0.00  0.00    +0.000 OA
ATOM     12  C   UNL     1       7.537   4.639  17.759  0.00  0.00    +0.000 A 
ATOM     13  C   UNL     1       7.192   4.939  16.365  0.00  0.00    +0.000 A 
ATOM     14  C   UNL     1       5.931   5.266  16.055  0.00  0.00    +0.000 A 
ATOM     15  O   UNL     1       4.923   5.375  17.002  0.00  0.00    +0.000 OA
ATOM     16  C   UNL     1       5.215   5.139  18.345  0.00  0.00    +0.000 A 
ATOM     17  C   UNL     1       6.435   4.733  18.765  0.00  0.00    +0.000 A 
BRANCH  17  18
ATOM     18  O   UNL     1       6.771   4.450  20.077  0.00  0.00    +0.000 OA
ATOM     19  H   UNL     1       6.339   3.635  20.373  0.00  0.00    +0.000 HD
ENDBRANCH  17  18
BRANCH  14  20
ATOM     20  C   UNL     1       5.509   5.526  14.640  0.00  0.00    +0.000 C 
BRANCH  20  21
ATOM     21  O   UNL     1       5.127   6.886  14.489  0.00  0.00    +0.000 OA
ATOM     22  H   UNL     1       4.566   7.104  15.253  0.00  0.00    +0.000 HD
ENDBRANCH  20  21
ENDBRANCH  14  20
ENDBRANCH   1  16
BRANCH   3  23
ATOM     23  C   UNL     1       1.682   8.494  19.456  0.00  0.00    +0.000 A 
ATOM     24  C   UNL     1       1.702   9.209  18.247  0.00  0.00    +0.000 A 
ATOM     25  C   UNL     1       1.052  10.443  18.133  0.00  0.00    +0.000 A 
ATOM     26  C   UNL     1       0.377  10.976  19.227  0.00  0.00    +0.000 A 
ATOM     27 CL   UNL     1      -0.445  12.479  19.080  0.00  0.00    +0.000 Cl
ATOM     28  C   UNL     1       0.350  10.288  20.436  0.00  0.00    +0.000 A 
ATOM     29  C   UNL     1       0.995   9.054  20.547  0.00  0.00    +0.000 A 
ENDBRANCH   3  23
TORSDOF 5
ENDMDL
MODEL 7
REMARK VINA RESULT:      -7.4      1.881      3.087
REMARK  Name = 
REMARK  5 active torsions:
REMARK  status: ('A' for Active; 'I' for Inactive)
REMARK    1  A    between atoms: C_4  and  C_5
REMARK    2  A    between atoms: C_5  and  O_6
REMARK    3  A    between atoms: C_8  and  C_9
REMARK    4  A    between atoms: C_11  and  C_12
REMARK    5  A    between atoms: C_26  and  O_27
REMARK                            x       y       z     vdW  Elec       q    Type
REMARK                         _______ _______ _______ _____ _____    ______ ____
ROOT
ATOM      1  C   UNL     1       3.563   5.827  19.572  0.00  0.00    +0.000 C 
ATOM      2  C   UNL     1       2.794   7.105  19.791  0.00  0.00    +0.000 C 
ATOM      3  C   UNL     1       1.644   7.063  20.488  0.00  0.00    +0.000 C 
ATOM      4  O   UNL     1       1.058   5.858  20.867  0.00  0.00    +0.000 OA
ATOM      5  C   UNL     1       1.428   4.719  20.182  0.00  0.00    +0.000 A 
ATOM      6  C   UNL     1       0.564   3.628  20.270  0.00  0.00    +0.000 A 
ATOM      7  C   UNL     1       0.860   2.463  19.572  0.00  0.00    +0.000 A 
ATOM      8  C   UNL     1       2.021   2.394  18.797  0.00  0.00    +0.000 A 
ATOM      9  C   UNL     1       2.905   3.474  18.737  0.00  0.00    +0.000 A 
ATOM     10  C   UNL     1       2.618   4.655  19.433  0.00  0.00    +0.000 A 
ENDROOT
BRANCH   1  16
ATOM     11  O   UNL     1       5.452   6.803  15.157  0.00  0.00    +0.000 OA
ATOM     12  C   UNL     1       5.569   6.413  16.312  0.00  0.00    +0.000 A 
ATOM     13  C   UNL     1       6.830   5.813  16.763  0.00  0.00    +0.000 A 
ATOM     14  C   UNL     1       6.946   5.401  18.032  0.00  0.00    +0.000 A 
ATOM     15  O   UNL     1       5.909   5.476  18.950  0.00  0.00    +0.000 OA
ATOM     16  C   UNL     1       4.679   6.002  18.554  0.00  0.00    +0.000 A 
ATOM     17  C   UNL     1       4.469   6.514  17.320  0.00  0.00    +0.000 A 
BRANCH  17  18
ATOM     18  O   UNL     1       3.283   7.078  16.885  0.00  0.00    +0.000 OA
ATOM     19  H   UNL     1       3.425   7.588  16.073  0.00  0.00    +0.000 HD
ENDBRANCH  17  18
BRANCH  14  20
ATOM     20  C   UNL     1       8.229   4.834  18.562  0.00  0.00    +0.000 C 
BRANCH  20  21
ATOM     21  O   UNL     1       8.433   5.261  19.902  0.00  0.00    +0.000 OA
ATOM     22  H   UNL     1       9.298   5.703  19.925  0.00  0.00    +0.000 HD
ENDBRANCH  20  21
ENDBRANCH  14  20
ENDBRANCH   1  16
BRANCH   3  23
ATOM     23  C   UNL     1       0.959   8.266  21.005  0.00  0.00    +0.000 A 
ATOM     24  C   UNL     1       0.893   9.436  20.229  0.00  0.00    +0.000 A 
ATOM     25  C   UNL     1       0.158  10.544  20.665  0.00  0.00    +0.000 A 
ATOM     26  C   UNL     1      -0.516  10.496  21.881  0.00  0.00    +0.000 A 
ATOM     27 CL   UNL     1      -1.442  11.847  22.405  0.00  0.00    +0.000 Cl
ATOM     28  C   UNL     1      -0.459   9.350  22.668  0.00  0.00    +0.000 A 
ATOM     29  C   UNL     1       0.271   8.242  22.229  0.00  0.00    +0.000 A 
ENDBRANCH   3  23
TORSDOF 5
ENDMDL
MODEL 8
REMARK VINA RESULT:      -7.4      1.378      1.778
REMARK  Name = 
REMARK  5 active torsions:
REMARK  status: ('A' for Active; 'I' for Inactive)
REMARK    1  A    between atoms: C_4  and  C_5
REMARK    2  A    between atoms: C_5  and  O_6
REMARK    3  A    between atoms: C_8  and  C_9
REMARK    4  A    between atoms: C_11  and  C_12
REMARK    5  A    between atoms: C_26  and  O_27
REMARK                            x       y       z     vdW  Elec       q    Type
REMARK                         _______ _______ _______ _____ _____    ______ ____
ROOT
ATOM      1  C   UNL     1       4.042   5.196  18.531  0.00  0.00    +0.000 C 
ATOM      2  C   UNL     1       3.382   6.539  18.707  0.00  0.00    +0.000 C 
ATOM      3  C   UNL     1       2.279   6.630  19.473  0.00  0.00    +0.000 C 
ATOM      4  O   UNL     1       1.633   5.500  19.969  0.00  0.00    +0.000 OA
ATOM      5  C   UNL     1       1.876   4.295  19.342  0.00  0.00    +0.000 A 
ATOM      6  C   UNL     1       0.944   3.280  19.557  0.00  0.00    +0.000 A 
ATOM      7  C   UNL     1       1.110   2.053  18.925  0.00  0.00    +0.000 A 
ATOM      8  C   UNL     1       2.211   1.846  18.088  0.00  0.00    +0.000 A 
ATOM      9  C   UNL     1       3.164   2.851  17.901  0.00  0.00    +0.000 A 
ATOM     10  C   UNL     1       3.008   4.092  18.531  0.00  0.00    +0.000 A 
ENDROOT
BRANCH   1  16
ATOM     11  O   UNL     1       8.103   6.785  16.298  0.00  0.00    +0.000 OA
ATOM     12  C   UNL     1       7.086   6.103  16.317  0.00  0.00    +0.000 A 
ATOM     13  C   UNL     1       6.651   5.394  15.109  0.00  0.00    +0.000 A 
ATOM     14  C   UNL     1       5.542   4.644  15.148  0.00  0.00    +0.000 A 
ATOM     15  O   UNL     1       4.747   4.530  16.279  0.00  0.00    +0.000 OA
ATOM     16  C   UNL     1       5.099   5.219  17.439  0.00  0.00    +0.000 A 
ATOM     17  C   UNL     1       6.234   5.948  17.536  0.00  0.00    +0.000 A 
BRANCH  17  18
ATOM     18  O   UNL     1       6.651   6.623  18.670  0.00  0.00    +0.000 OA
ATOM     19  H   UNL     1       5.902   6.792  19.262  0.00  0.00    +0.000 HD
ENDBRANCH  17  18
BRANCH  14  20
ATOM     20  C   UNL     1       5.083   3.852  13.961  0.00  0.00    +0.000 C 
BRANCH  20  21
ATOM     21  O   UNL     1       6.200   3.271  13.302  0.00  0.00    +0.000 OA
ATOM     22  H   UNL     1       6.878   3.121  13.984  0.00  0.00    +0.000 HD
ENDBRANCH  20  21
ENDBRANCH  14  20
ENDBRANCH   1  16
BRANCH   3  23
ATOM     23  C   UNL     1       1.717   7.912  19.945  0.00  0.00    +0.000 A 
ATOM     24  C   UNL     1       1.527   8.979  19.051  0.00  0.00    +0.000 A 
ATOM     25  C   UNL     1       0.901  10.159  19.465  0.00  0.00    +0.000 A 
ATOM     26  C   UNL     1       0.458  10.287  20.778  0.00  0.00    +0.000 A 
ATOM     27 CL   UNL     1      -0.338  11.725  21.282  0.00  0.00    +0.000 Cl
ATOM     28  C   UNL     1       0.641   9.245  21.682  0.00  0.00    +0.000 A 
ATOM     29  C   UNL     1       1.262   8.065  21.266  0.00  0.00    +0.000 A 
ENDBRANCH   3  23
TORSDOF 5
ENDMDL
MODEL 9
REMARK VINA RESULT:      -7.3      4.945      9.749
REMARK  Name = 
REMARK  5 active torsions:
REMARK  status: ('A' for Active; 'I' for Inactive)
REMARK    1  A    between atoms: C_4  and  C_5
REMARK    2  A    between atoms: C_5  and  O_6
REMARK    3  A    between atoms: C_8  and  C_9
REMARK    4  A    between atoms: C_11  and  C_12
REMARK    5  A    between atoms: C_26  and  O_27
REMARK                            x       y       z     vdW  Elec       q    Type
REMARK                         _______ _______ _______ _____ _____    ______ ____
ROOT
ATOM      1  C   UNL     1      -1.192  11.667  19.263  0.00  0.00    +0.000 C 
ATOM      2  C   UNL     1      -0.493  10.374  18.929  0.00  0.00    +0.000 C 
ATOM      3  C   UNL     1       0.809  10.235  19.240  0.00  0.00    +0.000 C 
ATOM      4  O   UNL     1       1.571  11.305  19.706  0.00  0.00    +0.000 OA
ATOM      5  C   UNL     1       1.108  12.580  19.457  0.00  0.00    +0.000 A 
ATOM      6  C   UNL     1       2.042  13.612  19.544  0.00  0.00    +0.000 A 
ATOM      7  C   UNL     1       1.648  14.916  19.267  0.00  0.00    +0.000 A 
ATOM      8  C   UNL     1       0.322  15.181  18.913  0.00  0.00    +0.000 A 
ATOM      9  C   UNL     1      -0.621  14.153  18.861  0.00  0.00    +0.000 A 
ATOM     10  C   UNL     1      -0.239  12.834  19.135  0.00  0.00    +0.000 A 
ENDROOT
BRANCH   1  16
ATOM     11  O   UNL     1      -6.060  12.219  19.194  0.00  0.00    +0.000 OA
ATOM     12  C   UNL     1      -5.002  11.953  18.637  0.00  0.00    +0.000 A 
ATOM     13  C   UNL     1      -5.002  11.428  17.267  0.00  0.00    +0.000 A 
ATOM     14  C   UNL     1      -3.837  11.151  16.667  0.00  0.00    +0.000 A 
ATOM     15  O   UNL     1      -2.609  11.300  17.296  0.00  0.00    +0.000 OA
ATOM     16  C   UNL     1      -2.563  11.757  18.613  0.00  0.00    +0.000 A 
ATOM     17  C   UNL     1      -3.670  12.135  19.291  0.00  0.00    +0.000 A 
BRANCH  17  18
ATOM     18  O   UNL     1      -3.680  12.628  20.584  0.00  0.00    +0.000 OA
ATOM     19  H   UNL     1      -3.822  11.912  21.222  0.00  0.00    +0.000 HD
ENDBRANCH  17  18
BRANCH  14  20
ATOM     20  C   UNL     1      -3.775  10.668  15.249  0.00  0.00    +0.000 C 
BRANCH  20  21
ATOM     21  O   UNL     1      -2.423  10.467  14.862  0.00  0.00    +0.000 OA
ATOM     22  H   UNL     1      -2.318  10.884  13.990  0.00  0.00    +0.000 HD
ENDBRANCH  20  21
ENDBRANCH  14  20
ENDBRANCH   1  16
BRANCH   3  23
ATOM     23  C   UNL     1       1.518   8.939  19.224  0.00  0.00    +0.000 A 
ATOM     24  C   UNL     1       1.517   8.113  20.360  0.00  0.00    +0.000 A 
ATOM     25  C   UNL     1       2.096   6.840  20.322  0.00  0.00    +0.000 A 
ATOM     26  C   UNL     1       2.684   6.380  19.147  0.00  0.00    +0.000 A 
ATOM     27 CL   UNL     1       3.371   4.805  19.089  0.00  0.00    +0.000 Cl
ATOM     28  C   UNL     1       2.702   7.184  18.012  0.00  0.00    +0.000 A 
ATOM     29  C   UNL     1       2.119   8.453  18.051  0.00  0.00    +0.000 A 
ENDBRANCH   3  23
TORSDOF 5
ENDMDL
