MODEL 1
REMARK VINA RESULT:      -7.6      0.000      0.000
REMARK  Name = 
REMARK  4 active torsions:
REMARK  status: ('A' for Active; 'I' for Inactive)
REMARK    1  A    between atoms: C_1  and  C_2
REMARK    2  A    between atoms: C_2  and  O_3
REMARK    3  A    between atoms: O_3  and  C_4
REMARK    4  A    between atoms: C_9  and  C_10
REMARK                            x       y       z     vdW  Elec       q    Type
REMARK                         _______ _______ _______ _____ _____    ______ ____
ROOT
ATOM      1  C   UNL     1       2.971   6.067  18.952  0.00  0.00    +0.000 A 
ATOM      2  C   UNL     1       1.884   5.545  19.665  0.00  0.00    +0.000 A 
ATOM      3  C   UNL     1       2.046   4.335  20.307  0.00  0.00    +0.000 A 
ATOM      4  C   UNL     1       3.227   3.637  20.262  0.00  0.00    +0.000 A 
ATOM      5  C   UNL     1       4.323   4.116  19.578  0.00  0.00    +0.000 A 
ATOM      6  C   UNL     1       4.200   5.352  18.918  0.00  0.00    +0.000 A 
ATOM      7  O   UNL     1       3.163   2.470  20.956  0.00  0.00    +0.000 OA
ATOM      8  C   UNL     1       1.817   2.535  21.477  0.00  0.00    +0.000 C 
ATOM      9  O   UNL     1       1.090   3.700  21.038  0.00  0.00    +0.000 OA
ENDROOT
BRANCH   6  10
ATOM     10  C   UNL     1       5.368   5.881  18.199  0.00  0.00    +0.000 C 
ATOM     11  C   UNL     1       5.770   5.479  16.986  0.00  0.00    +0.000 C 
ATOM     12  S   UNL     1       5.052   4.288  15.965  0.00  0.00    +0.000 S 
ATOM     13  C   UNL     1       6.354   4.394  14.797  0.00  0.00    +0.000 C 
ATOM     14  O   UNL     1       6.449   3.692  13.805  0.00  0.00    +0.000 OA
ATOM     15  N   UNL     1       7.229   5.362  15.172  0.00  0.00    +0.000 N 
ATOM     16  C   UNL     1       7.002   6.012  16.347  0.00  0.00    +0.000 C 
ATOM     17  O   UNL     1       7.714   6.894  16.801  0.00  0.00    +0.000 OA
ATOM     18  H   UNL     1       8.043   5.562  14.616  0.00  0.00    +0.000 HD
ENDBRANCH   6  10
BRANCH   1  19
ATOM     19  O   UNL     1       2.929   7.256  18.260  0.00  0.00    +0.000 OA
BRANCH  19  21
ATOM     20  C   UNL     1       1.902   9.372  17.780  0.00  0.00    +0.000 C 
ATOM     21  C   UNL     1       2.111   8.285  18.817  0.00  0.00    +0.000 C 
ENDBRANCH  19  21
ENDBRANCH   1  19
TORSDOF 3
ENDMDL
MODEL 2
REMARK VINA RESULT:      -7.0      2.054      4.101
REMARK  Name = 
REMARK  4 active torsions:
REMARK  status: ('A' for Active; 'I' for Inactive)
REMARK    1  A    between atoms: C_1  and  C_2
REMARK    2  A    between atoms: C_2  and  O_3
REMARK    3  A    between atoms: O_3  and  C_4
REMARK    4  A    between atoms: C_9  and  C_10
REMARK                            x       y       z     vdW  Elec       q    Type
REMARK                         _______ _______ _______ _____ _____    ______ ____
ROOT
ATOM      1  C   UNL     1       2.415   5.265  19.708  0.00  0.00    +0.000 A 
ATOM      2  C   UNL     1       1.710   5.954  20.703  0.00  0.00    +0.000 A 
ATOM      3  C   UNL     1       1.473   7.301  20.522  0.00  0.00    +0.000 A 
ATOM      4  C   UNL     1       1.907   7.975  19.408  0.00  0.00    +0.000 A 
ATOM      5  C   UNL     1       2.599   7.336  18.402  0.00  0.00    +0.000 A 
ATOM      6  C   UNL     1       2.852   5.960  18.546  0.00  0.00    +0.000 A 
ATOM      7  O   UNL     1       1.572   9.291  19.439  0.00  0.00    +0.000 OA
ATOM      8  C   UNL     1       0.840   9.358  20.682  0.00  0.00    +0.000 C 
ATOM      9  O   UNL     1       0.805   8.104  21.393  0.00  0.00    +0.000 OA
ENDROOT
BRANCH   6  10
ATOM     10  C   UNL     1       3.574   5.264  17.470  0.00  0.00    +0.000 C 
ATOM     11  C   UNL     1       4.864   4.909  17.517  0.00  0.00    +0.000 C 
ATOM     12  S   UNL     1       5.990   5.144  18.803  0.00  0.00    +0.000 S 
ATOM     13  C   UNL     1       7.326   4.532  17.849  0.00  0.00    +0.000 C 
ATOM     14  O   UNL     1       8.485   4.505  18.224  0.00  0.00    +0.000 OA
ATOM     15  N   UNL     1       6.870   4.106  16.643  0.00  0.00    +0.000 N 
ATOM     16  C   UNL     1       5.547   4.266  16.363  0.00  0.00    +0.000 C 
ATOM     17  O   UNL     1       5.014   3.934  15.317  0.00  0.00    +0.000 OA
ATOM     18  H   UNL     1       7.503   3.721  15.962  0.00  0.00    +0.000 HD
ENDBRANCH   6  10
BRANCH   1  19
ATOM     19  O   UNL     1       2.725   3.927  19.780  0.00  0.00    +0.000 OA
BRANCH  19  21
ATOM     20  C   UNL     1       0.949   2.652  18.789  0.00  0.00    +0.000 C 
ATOM     21  C   UNL     1       1.646   3.041  20.079  0.00  0.00    +0.000 C 
ENDBRANCH  19  21
ENDBRANCH   1  19
TORSDOF 3
ENDMDL
MODEL 3
REMARK VINA RESULT:      -7.0      2.687      6.010
REMARK  Name = 
REMARK  4 active torsions:
REMARK  status: ('A' for Active; 'I' for Inactive)
REMARK    1  A    between atoms: C_1  and  C_2
REMARK    2  A    between atoms: C_2  and  O_3
REMARK    3  A    between atoms: O_3  and  C_4
REMARK    4  A    between atoms: C_9  and  C_10
REMARK                            x       y       z     vdW  Elec       q    Type
REMARK                         _______ _______ _______ _____ _____    ______ ____
ROOT
ATOM      1  C   UNL     1       4.039   5.929  17.416  0.00  0.00    +0.000 A 
ATOM      2  C   UNL     1       5.231   6.470  16.918  0.00  0.00    +0.000 A 
ATOM      3  C   UNL     1       6.034   5.669  16.133  0.00  0.00    +0.000 A 
ATOM      4  C   UNL     1       5.701   4.372  15.834  0.00  0.00    +0.000 A 
ATOM      5  C   UNL     1       4.535   3.801  16.297  0.00  0.00    +0.000 A 
ATOM      6  C   UNL     1       3.686   4.589  17.093  0.00  0.00    +0.000 A 
ATOM      7  O   UNL     1       6.635   3.766  15.054  0.00  0.00    +0.000 OA
ATOM      8  C   UNL     1       7.574   4.846  14.864  0.00  0.00    +0.000 C 
ATOM      9  O   UNL     1       7.217   6.047  15.576  0.00  0.00    +0.000 OA
ENDROOT
BRANCH   6  10
ATOM     10  C   UNL     1       2.430   3.996  17.579  0.00  0.00    +0.000 C 
ATOM     11  C   UNL     1       2.213   3.581  18.834  0.00  0.00    +0.000 C 
ATOM     12  S   UNL     1       3.292   3.638  20.179  0.00  0.00    +0.000 S 
ATOM     13  C   UNL     1       2.182   2.753  21.205  0.00  0.00    +0.000 C 
ATOM     14  O   UNL     1       2.428   2.402  22.346  0.00  0.00    +0.000 OA
ATOM     15  N   UNL     1       1.025   2.518  20.534  0.00  0.00    +0.000 N 
ATOM     16  C   UNL     1       0.940   2.929  19.238  0.00  0.00    +0.000 C 
ATOM     17  O   UNL     1      -0.037   2.773  18.524  0.00  0.00    +0.000 OA
ATOM     18  H   UNL     1       0.269   2.018  20.972  0.00  0.00    +0.000 HD
ENDBRANCH   6  10
BRANCH   1  19
ATOM     19  O   UNL     1       3.164   6.622  18.220  0.00  0.00    +0.000 OA
BRANCH  19  21
ATOM     20  C   UNL     1       1.859   8.554  18.794  0.00  0.00    +0.000 C 
ATOM     21  C   UNL     1       2.842   7.952  17.809  0.00  0.00    +0.000 C 
ENDBRANCH  19  21
ENDBRANCH   1  19
TORSDOF 3
ENDMDL
MODEL 4
REMARK VINA RESULT:      -7.0      3.075      6.039
REMARK  Name = 
REMARK  4 active torsions:
REMARK  status: ('A' for Active; 'I' for Inactive)
REMARK    1  A    between atoms: C_1  and  C_2
REMARK    2  A    between atoms: C_2  and  O_3
REMARK    3  A    between atoms: O_3  and  C_4
REMARK    4  A    between atoms: C_9  and  C_10
REMARK                            x       y       z     vdW  Elec       q    Type
REMARK                         _______ _______ _______ _____ _____    ______ ____
ROOT
ATOM      1  C   UNL     1       2.760   4.560  17.913  0.00  0.00    +0.000 A 
ATOM      2  C   UNL     1       3.507   3.835  16.976  0.00  0.00    +0.000 A 
ATOM      3  C   UNL     1       4.807   4.229  16.732  0.00  0.00    +0.000 A 
ATOM      4  C   UNL     1       5.377   5.301  17.372  0.00  0.00    +0.000 A 
ATOM      5  C   UNL     1       4.680   6.038  18.306  0.00  0.00    +0.000 A 
ATOM      6  C   UNL     1       3.356   5.661  18.589  0.00  0.00    +0.000 A 
ATOM      7  O   UNL     1       6.659   5.515  16.976  0.00  0.00    +0.000 OA
ATOM      8  C   UNL     1       6.842   4.429  16.042  0.00  0.00    +0.000 C 
ATOM      9  O   UNL     1       5.657   3.630  15.856  0.00  0.00    +0.000 OA
ENDROOT
BRANCH   6  10
ATOM     10  C   UNL     1       2.608   6.430  19.596  0.00  0.00    +0.000 C 
ATOM     11  C   UNL     1       2.072   7.640  19.394  0.00  0.00    +0.000 C 
ATOM     12  S   UNL     1       2.091   8.590  17.954  0.00  0.00    +0.000 S 
ATOM     13  C   UNL     1       1.334   9.954  18.752  0.00  0.00    +0.000 C 
ATOM     14  O   UNL     1       1.128  11.033  18.224  0.00  0.00    +0.000 OA
ATOM     15  N   UNL     1       1.028   9.624  20.033  0.00  0.00    +0.000 N 
ATOM     16  C   UNL     1       1.386   8.389  20.481  0.00  0.00    +0.000 C 
ATOM     17  O   UNL     1       1.177   7.972  21.608  0.00  0.00    +0.000 OA
ATOM     18  H   UNL     1       0.586  10.291  20.643  0.00  0.00    +0.000 HD
ENDBRANCH   6  10
BRANCH   1  19
ATOM     19  O   UNL     1       1.452   4.274  18.232  0.00  0.00    +0.000 OA
BRANCH  19  21
ATOM     20  C   UNL     1       1.105   3.048  20.267  0.00  0.00    +0.000 C 
ATOM     21  C   UNL     1       1.198   2.969  18.755  0.00  0.00    +0.000 C 
ENDBRANCH  19  21
ENDBRANCH   1  19
TORSDOF 3
ENDMDL
MODEL 5
REMARK VINA RESULT:      -6.8      1.044      1.044
REMARK  Name = 
REMARK  4 active torsions:
REMARK  status: ('A' for Active; 'I' for Inactive)
REMARK    1  A    between atoms: C_1  and  C_2
REMARK    2  A    between atoms: C_2  and  O_3
REMARK    3  A    between atoms: O_3  and  C_4
REMARK    4  A    between atoms: C_9  and  C_10
REMARK                            x       y       z     vdW  Elec       q    Type
REMARK                         _______ _______ _______ _____ _____    ______ ____
ROOT
ATOM      1  C   UNL     1       2.971   5.897  18.498  0.00  0.00    +0.000 A 
ATOM      2  C   UNL     1       1.800   5.318  19.004  0.00  0.00    +0.000 A 
ATOM      3  C   UNL     1       1.759   3.947  19.147  0.00  0.00    +0.000 A 
ATOM      4  C   UNL     1       2.821   3.146  18.809  0.00  0.00    +0.000 A 
ATOM      5  C   UNL     1       3.994   3.673  18.314  0.00  0.00    +0.000 A 
ATOM      6  C   UNL     1       4.077   5.069  18.162  0.00  0.00    +0.000 A 
ATOM      7  O   UNL     1       2.562   1.829  19.024  0.00  0.00    +0.000 OA
ATOM      8  C   UNL     1       1.229   1.899  19.576  0.00  0.00    +0.000 C 
ATOM      9  O   UNL     1       0.699   3.239  19.623  0.00  0.00    +0.000 OA
ENDROOT
BRANCH   6  10
ATOM     10  C   UNL     1       5.330   5.645  17.650  0.00  0.00    +0.000 C 
ATOM     11  C   UNL     1       5.848   5.402  16.439  0.00  0.00    +0.000 C 
ATOM     12  S   UNL     1       5.210   4.402  15.187  0.00  0.00    +0.000 S 
ATOM     13  C   UNL     1       6.632   4.617  14.185  0.00  0.00    +0.000 C 
ATOM     14  O   UNL     1       6.813   4.060  13.116  0.00  0.00    +0.000 OA
ATOM     15  N   UNL     1       7.489   5.482  14.786  0.00  0.00    +0.000 N 
ATOM     16  C   UNL     1       7.156   5.967  16.014  0.00  0.00    +0.000 C 
ATOM     17  O   UNL     1       7.839   6.743  16.662  0.00  0.00    +0.000 OA
ATOM     18  H   UNL     1       8.364   5.724  14.351  0.00  0.00    +0.000 HD
ENDBRANCH   6  10
BRANCH   1  19
ATOM     19  O   UNL     1       3.128   7.249  18.295  0.00  0.00    +0.000 OA
BRANCH  19  21
ATOM     20  C   UNL     1       1.711   9.124  17.801  0.00  0.00    +0.000 C 
ATOM     21  C   UNL     1       2.112   8.094  18.840  0.00  0.00    +0.000 C 
ENDBRANCH  19  21
ENDBRANCH   1  19
TORSDOF 3
ENDMDL
MODEL 6
REMARK VINA RESULT:      -6.7      2.082      4.688
REMARK  Name = 
REMARK  4 active torsions:
REMARK  status: ('A' for Active; 'I' for Inactive)
REMARK    1  A    between atoms: C_1  and  C_2
REMARK    2  A    between atoms: C_2  and  O_3
REMARK    3  A    between atoms: O_3  and  C_4
REMARK    4  A    between atoms: C_9  and  C_10
REMARK                            x       y       z     vdW  Elec       q    Type
REMARK                         _______ _______ _______ _____ _____    ______ ____
ROOT
ATOM      1  C   UNL     1       2.060   6.505  20.035  0.00  0.00    +0.000 A 
ATOM      2  C   UNL     1       1.597   7.709  20.581  0.00  0.00    +0.000 A 
ATOM      3  C   UNL     1       1.523   8.813  19.757  0.00  0.00    +0.000 A 
ATOM      4  C   UNL     1       1.890   8.764  18.436  0.00  0.00    +0.000 A 
ATOM      5  C   UNL     1       2.345   7.600  17.856  0.00  0.00    +0.000 A 
ATOM      6  C   UNL     1       2.426   6.450  18.661  0.00  0.00    +0.000 A 
ATOM      7  O   UNL     1       1.744   9.965  17.815  0.00  0.00    +0.000 OA
ATOM      8  C   UNL     1       1.204  10.764  18.890  0.00  0.00    +0.000 C 
ATOM      9  O   UNL     1       1.095  10.048  20.136  0.00  0.00    +0.000 OA
ENDROOT
BRANCH   6  10
ATOM     10  C   UNL     1       2.893   5.197  18.049  0.00  0.00    +0.000 C 
ATOM     11  C   UNL     1       4.174   4.896  17.799  0.00  0.00    +0.000 C 
ATOM     12  S   UNL     1       5.577   5.847  18.126  0.00  0.00    +0.000 S 
ATOM     13  C   UNL     1       6.632   4.709  17.313  0.00  0.00    +0.000 C 
ATOM     14  O   UNL     1       7.828   4.876  17.146  0.00  0.00    +0.000 OA
ATOM     15  N   UNL     1       5.914   3.633  16.899  0.00  0.00    +0.000 N 
ATOM     16  C   UNL     1       4.570   3.637  17.115  0.00  0.00    +0.000 C 
ATOM     17  O   UNL     1       3.812   2.739  16.787  0.00  0.00    +0.000 OA
ATOM     18  H   UNL     1       6.361   2.875  16.409  0.00  0.00    +0.000 HD
ENDBRANCH   6  10
BRANCH   1  19
ATOM     19  O   UNL     1       2.193   5.341  20.756  0.00  0.00    +0.000 OA
BRANCH  19  21
ATOM     20  C   UNL     1       1.573   3.068  21.219  0.00  0.00    +0.000 C 
ATOM     21  C   UNL     1       1.128   4.396  20.636  0.00  0.00    +0.000 C 
ENDBRANCH  19  21
ENDBRANCH   1  19
TORSDOF 3
ENDMDL
MODEL 7
REMARK VINA RESULT:      -6.7      2.575      6.368
REMARK  Name = 
REMARK  4 active torsions:
REMARK  status: ('A' for Active; 'I' for Inactive)
REMARK    1  A    between atoms: C_1  and  C_2
REMARK    2  A    between atoms: C_2  and  O_3
REMARK    3  A    between atoms: O_3  and  C_4
REMARK    4  A    between atoms: C_9  and  C_10
REMARK                            x       y       z     vdW  Elec       q    Type
REMARK                         _______ _______ _______ _____ _____    ______ ____
ROOT
ATOM      1  C   UNL     1       6.482   4.821  17.855  0.00  0.00    +0.000 A 
ATOM      2  C   UNL     1       7.338   5.013  16.762  0.00  0.00    +0.000 A 
ATOM      3  C   UNL     1       6.861   4.722  15.501  0.00  0.00    +0.000 A 
ATOM      4  C   UNL     1       5.589   4.252  15.292  0.00  0.00    +0.000 A 
ATOM      5  C   UNL     1       4.712   4.054  16.337  0.00  0.00    +0.000 A 
ATOM      6  C   UNL     1       5.158   4.349  17.638  0.00  0.00    +0.000 A 
ATOM      7  O   UNL     1       5.332   4.025  13.977  0.00  0.00    +0.000 OA
ATOM      8  C   UNL     1       6.577   4.446  13.379  0.00  0.00    +0.000 C 
ATOM      9  O   UNL     1       7.566   4.856  14.345  0.00  0.00    +0.000 OA
ENDROOT
BRANCH   6  10
ATOM     10  C   UNL     1       4.226   4.159  18.759  0.00  0.00    +0.000 C 
ATOM     11  C   UNL     1       3.400   5.098  19.238  0.00  0.00    +0.000 C 
ATOM     12  S   UNL     1       3.196   6.721  18.688  0.00  0.00    +0.000 S 
ATOM     13  C   UNL     1       2.105   7.110  20.002  0.00  0.00    +0.000 C 
ATOM     14  O   UNL     1       1.636   8.217  20.204  0.00  0.00    +0.000 OA
ATOM     15  N   UNL     1       1.875   6.002  20.752  0.00  0.00    +0.000 N 
ATOM     16  C   UNL     1       2.531   4.855  20.420  0.00  0.00    +0.000 C 
ATOM     17  O   UNL     1       2.420   3.795  21.014  0.00  0.00    +0.000 OA
ATOM     18  H   UNL     1       1.269   6.041  21.554  0.00  0.00    +0.000 HD
ENDBRANCH   6  10
BRANCH   1  19
ATOM     19  O   UNL     1       6.846   5.062  19.160  0.00  0.00    +0.000 OA
BRANCH  19  21
ATOM     20  C   UNL     1       8.054   7.079  18.676  0.00  0.00    +0.000 C 
ATOM     21  C   UNL     1       8.096   5.725  19.358  0.00  0.00    +0.000 C 
ENDBRANCH  19  21
ENDBRANCH   1  19
TORSDOF 3
ENDMDL
MODEL 8
REMARK VINA RESULT:      -6.7      2.443      3.632
REMARK  Name = 
REMARK  4 active torsions:
REMARK  status: ('A' for Active; 'I' for Inactive)
REMARK    1  A    between atoms: C_1  and  C_2
REMARK    2  A    between atoms: C_2  and  O_3
REMARK    3  A    between atoms: O_3  and  C_4
REMARK    4  A    between atoms: C_9  and  C_10
REMARK                            x       y       z     vdW  Elec       q    Type
REMARK                         _______ _______ _______ _____ _____    ______ ____
ROOT
ATOM      1  C   UNL     1       6.189   4.623  18.144  0.00  0.00    +0.000 A 
ATOM      2  C   UNL     1       5.297   4.279  19.169  0.00  0.00    +0.000 A 
ATOM      3  C   UNL     1       3.954   4.195  18.864  0.00  0.00    +0.000 A 
ATOM      4  C   UNL     1       3.476   4.438  17.601  0.00  0.00    +0.000 A 
ATOM      5  C   UNL     1       4.318   4.773  16.562  0.00  0.00    +0.000 A 
ATOM      6  C   UNL     1       5.695   4.860  16.832  0.00  0.00    +0.000 A 
ATOM      7  O   UNL     1       2.125   4.305  17.527  0.00  0.00    +0.000 OA
ATOM      8  C   UNL     1       1.815   3.910  18.881  0.00  0.00    +0.000 C 
ATOM      9  O   UNL     1       2.968   3.873  19.744  0.00  0.00    +0.000 OA
ENDROOT
BRANCH   6  10
ATOM     10  C   UNL     1       6.605   5.199  15.727  0.00  0.00    +0.000 C 
ATOM     11  C   UNL     1       6.543   4.678  14.495  0.00  0.00    +0.000 C 
ATOM     12  S   UNL     1       5.417   3.525  13.879  0.00  0.00    +0.000 S 
ATOM     13  C   UNL     1       6.263   3.400  12.349  0.00  0.00    +0.000 C 
ATOM     14  O   UNL     1       5.957   2.634  11.453  0.00  0.00    +0.000 OA
ATOM     15  N   UNL     1       7.302   4.275  12.328  0.00  0.00    +0.000 N 
ATOM     16  C   UNL     1       7.540   5.017  13.444  0.00  0.00    +0.000 C 
ATOM     17  O   UNL     1       8.442   5.831  13.558  0.00  0.00    +0.000 OA
ATOM     18  H   UNL     1       7.902   4.340  11.522  0.00  0.00    +0.000 HD
ENDBRANCH   6  10
BRANCH   1  19
ATOM     19  O   UNL     1       7.547   4.753  18.327  0.00  0.00    +0.000 OA
BRANCH  19  21
ATOM     20  C   UNL     1       8.037   7.098  18.487  0.00  0.00    +0.000 C 
ATOM     21  C   UNL     1       7.970   5.776  19.229  0.00  0.00    +0.000 C 
ENDBRANCH  19  21
ENDBRANCH   1  19
TORSDOF 3
ENDMDL
MODEL 9
REMARK VINA RESULT:      -6.6      3.310      5.527
REMARK  Name = 
REMARK  4 active torsions:
REMARK  status: ('A' for Active; 'I' for Inactive)
REMARK    1  A    between atoms: C_1  and  C_2
REMARK    2  A    between atoms: C_2  and  O_3
REMARK    3  A    between atoms: O_3  and  C_4
REMARK    4  A    between atoms: C_9  and  C_10
REMARK                            x       y       z     vdW  Elec       q    Type
REMARK                         _______ _______ _______ _____ _____    ______ ____
ROOT
ATOM      1  C   UNL     1       4.478   5.632  18.130  0.00  0.00    +0.000 A 
ATOM      2  C   UNL     1       4.811   4.282  18.297  0.00  0.00    +0.000 A 
ATOM      3  C   UNL     1       3.785   3.361  18.360  0.00  0.00    +0.000 A 
ATOM      4  C   UNL     1       2.467   3.729  18.269  0.00  0.00    +0.000 A 
ATOM      5  C   UNL     1       2.095   5.045  18.099  0.00  0.00    +0.000 A 
ATOM      6  C   UNL     1       3.112   6.013  18.020  0.00  0.00    +0.000 A 
ATOM      7  O   UNL     1       1.627   2.665  18.363  0.00  0.00    +0.000 OA
ATOM      8  C   UNL     1       2.572   1.580  18.483  0.00  0.00    +0.000 C 
ATOM      9  O   UNL     1       3.945   2.019  18.518  0.00  0.00    +0.000 OA
ENDROOT
BRANCH   6  10
ATOM     10  C   UNL     1       2.728   7.419  17.820  0.00  0.00    +0.000 C 
ATOM     11  C   UNL     1       2.131   8.188  18.738  0.00  0.00    +0.000 C 
ATOM     12  S   UNL     1       1.678   7.771  20.350  0.00  0.00    +0.000 S 
ATOM     13  C   UNL     1       0.875   9.307  20.605  0.00  0.00    +0.000 C 
ATOM     14  O   UNL     1       0.258   9.604  21.613  0.00  0.00    +0.000 OA
ATOM     15  N   UNL     1       1.041  10.098  19.513  0.00  0.00    +0.000 N 
ATOM     16  C   UNL     1       1.709   9.584  18.444  0.00  0.00    +0.000 C 
ATOM     17  O   UNL     1       1.920  10.185  17.403  0.00  0.00    +0.000 OA
ATOM     18  H   UNL     1       0.644  11.022  19.484  0.00  0.00    +0.000 HD
ENDBRANCH   6  10
BRANCH   1  19
ATOM     19  O   UNL     1       5.408   6.645  18.066  0.00  0.00    +0.000 OA
BRANCH  19  21
ATOM     20  C   UNL     1       7.603   7.476  17.561  0.00  0.00    +0.000 C 
ATOM     21  C   UNL     1       6.594   6.371  17.318  0.00  0.00    +0.000 C 
ENDBRANCH  19  21
ENDBRANCH   1  19
TORSDOF 3
ENDMDL
