MODEL 1
REMARK VINA RESULT:      -7.6      0.000      0.000
REMARK  Name = 
REMARK  9 active torsions:
REMARK  status: ('A' for Active; 'I' for Inactive)
REMARK    1  A    between atoms: C_1  and  C_2
REMARK    2  A    between atoms: C_2  and  C_3
REMARK    3  A    between atoms: C_2  and  C_4
REMARK    4  A    between atoms: C_6  and  C_7
REMARK    5  A    between atoms: C_8  and  C_9
REMARK    6  A    between atoms: C_9  and  C_11
REMARK    7  A    between atoms: C_17  and  C_18
REMARK    8  A    between atoms: N_19  and  C_20
REMARK    9  A    between atoms: C_25  and  O_26
REMARK                            x       y       z     vdW  Elec       q    Type
REMARK                         _______ _______ _______ _____ _____    ______ ____
ROOT
ATOM      1  C   UNL     1       2.962   4.363  19.002  0.00  0.00    +0.000 A 
ATOM      2  C   UNL     1       2.435   5.613  19.385  0.00  0.00    +0.000 A 
ATOM      3  C   UNL     1       2.748   6.796  18.703  0.00  0.00    +0.000 A 
ATOM      4  C   UNL     1       3.614   6.734  17.605  0.00  0.00    +0.000 A 
ATOM      5  C   UNL     1       4.181   5.514  17.219  0.00  0.00    +0.000 A 
ATOM      6  C   UNL     1       3.858   4.336  17.918  0.00  0.00    +0.000 A 
ENDROOT
BRANCH   1   8
ATOM      7  C   UNL     1       2.402   3.386  21.252  0.00  0.00    +0.000 C 
ATOM      8  C   UNL     1       2.601   3.091  19.764  0.00  0.00    +0.000 C 
ATOM      9  C   UNL     1       1.368   2.355  19.219  0.00  0.00    +0.000 C 
ENDBRANCH   1   8
BRANCH   3  10
ATOM     10  C   UNL     1       2.111   8.049  19.150  0.00  0.00    +0.000 C 
ATOM     11  C   UNL     1       1.360   8.821  18.355  0.00  0.00    +0.000 C 
BRANCH  11  12
ATOM     12  C   UNL     1       0.731  10.087  18.840  0.00  0.00    +0.000 C 
ATOM     13  O   UNL     1       1.337  10.821  19.614  0.00  0.00    +0.000 OA
BRANCH  12  14
ATOM     14  C   UNL     1      -0.600  10.355  18.305  0.00  0.00    +0.000 A 
ATOM     15  C   UNL     1      -1.286   9.674  17.314  0.00  0.00    +0.000 A 
ATOM     16  C   UNL     1      -2.533  10.283  16.996  0.00  0.00    +0.000 A 
ATOM     17  C   UNL     1      -2.771  11.395  17.771  0.00  0.00    +0.000 A 
ATOM     18  S   UNL     1      -1.513  11.675  18.899  0.00  0.00    +0.000 S 
ENDBRANCH  12  14
ENDBRANCH  11  12
ENDBRANCH   3  10
BRANCH   5  19
ATOM     19  C   UNL     1       5.136   5.538  16.085  0.00  0.00    +0.000 C 
ATOM     20  N   UNL     1       5.264   4.523  15.291  0.00  0.00    +0.000 NA
BRANCH  20  21
ATOM     21  C   UNL     1       6.205   4.642  14.318  0.00  0.00    +0.000 A 
ATOM     22  N   UNL     1       7.309   5.365  14.322  0.00  0.00    +0.000 NA
ATOM     23  C   UNL     1       8.021   5.168  13.154  0.00  0.00    +0.000 A 
ATOM     24  C   UNL     1       7.455   4.299  12.251  0.00  0.00    +0.000 A 
ATOM     25  S   UNL     1       5.974   3.713  12.873  0.00  0.00    +0.000 S 
ENDBRANCH  20  21
ENDBRANCH   5  19
BRANCH   6  26
ATOM     26  O   UNL     1       4.403   3.127  17.572  0.00  0.00    +0.000 OA
ATOM     27  H   UNL     1       5.065   2.885  18.254  0.00  0.00    +0.000 HD
ENDBRANCH   6  26
TORSDOF 7
ENDMDL
MODEL 2
REMARK VINA RESULT:      -7.4      3.440      8.372
REMARK  Name = 
REMARK  9 active torsions:
REMARK  status: ('A' for Active; 'I' for Inactive)
REMARK    1  A    between atoms: C_1  and  C_2
REMARK    2  A    between atoms: C_2  and  C_3
REMARK    3  A    between atoms: C_2  and  C_4
REMARK    4  A    between atoms: C_6  and  C_7
REMARK    5  A    between atoms: C_8  and  C_9
REMARK    6  A    between atoms: C_9  and  C_11
REMARK    7  A    between atoms: C_17  and  C_18
REMARK    8  A    between atoms: N_19  and  C_20
REMARK    9  A    between atoms: C_25  and  O_26
REMARK                            x       y       z     vdW  Elec       q    Type
REMARK                         _______ _______ _______ _____ _____    ______ ____
ROOT
ATOM      1  C   UNL     1       2.982   4.369  19.154  0.00  0.00    +0.000 A 
ATOM      2  C   UNL     1       3.830   4.525  18.038  0.00  0.00    +0.000 A 
ATOM      3  C   UNL     1       4.069   5.775  17.452  0.00  0.00    +0.000 A 
ATOM      4  C   UNL     1       3.444   6.905  17.992  0.00  0.00    +0.000 A 
ATOM      5  C   UNL     1       2.571   6.780  19.078  0.00  0.00    +0.000 A 
ATOM      6  C   UNL     1       2.339   5.516  19.653  0.00  0.00    +0.000 A 
ENDROOT
BRANCH   1   8
ATOM      7  C   UNL     1       1.794   2.165  18.902  0.00  0.00    +0.000 C 
ATOM      8  C   UNL     1       2.742   2.994  19.772  0.00  0.00    +0.000 C 
ATOM      9  C   UNL     1       4.022   2.189  20.044  0.00  0.00    +0.000 C 
ENDBRANCH   1   8
BRANCH   3  10
ATOM     10  C   UNL     1       5.007   5.844  16.317  0.00  0.00    +0.000 C 
ATOM     11  C   UNL     1       5.796   4.826  15.946  0.00  0.00    +0.000 C 
BRANCH  11  12
ATOM     12  C   UNL     1       6.739   4.931  14.793  0.00  0.00    +0.000 C 
ATOM     13  O   UNL     1       7.796   5.542  14.912  0.00  0.00    +0.000 OA
BRANCH  12  14
ATOM     14  C   UNL     1       6.304   4.246  13.580  0.00  0.00    +0.000 A 
ATOM     15  C   UNL     1       5.074   3.670  13.307  0.00  0.00    +0.000 A 
ATOM     16  C   UNL     1       5.048   3.012  12.045  0.00  0.00    +0.000 A 
ATOM     17  C   UNL     1       6.249   3.127  11.383  0.00  0.00    +0.000 A 
ATOM     18  S   UNL     1       7.384   4.056  12.267  0.00  0.00    +0.000 S 
ENDBRANCH  12  14
ENDBRANCH  11  12
ENDBRANCH   3  10
BRANCH   5  19
ATOM     19  C   UNL     1       1.900   8.013  19.556  0.00  0.00    +0.000 C 
ATOM     20  N   UNL     1       1.569   8.161  20.799  0.00  0.00    +0.000 NA
BRANCH  20  21
ATOM     21  C   UNL     1       0.917   9.312  21.109  0.00  0.00    +0.000 A 
ATOM     22  N   UNL     1       0.814  10.419  20.398  0.00  0.00    +0.000 NA
ATOM     23  C   UNL     1       0.017  11.342  21.051  0.00  0.00    +0.000 A 
ATOM     24  C   UNL     1      -0.484  10.940  22.267  0.00  0.00    +0.000 A 
ATOM     25  S   UNL     1       0.067   9.360  22.619  0.00  0.00    +0.000 S 
ENDBRANCH  20  21
ENDBRANCH   5  19
BRANCH   6  26
ATOM     26  O   UNL     1       1.483   5.357  20.711  0.00  0.00    +0.000 OA
ATOM     27  H   UNL     1       2.012   5.377  21.537  0.00  0.00    +0.000 HD
ENDBRANCH   6  26
TORSDOF 7
ENDMDL
MODEL 3
REMARK VINA RESULT:      -7.2      1.552      1.825
REMARK  Name = 
REMARK  9 active torsions:
REMARK  status: ('A' for Active; 'I' for Inactive)
REMARK    1  A    between atoms: C_1  and  C_2
REMARK    2  A    between atoms: C_2  and  C_3
REMARK    3  A    between atoms: C_2  and  C_4
REMARK    4  A    between atoms: C_6  and  C_7
REMARK    5  A    between atoms: C_8  and  C_9
REMARK    6  A    between atoms: C_9  and  C_11
REMARK    7  A    between atoms: C_17  and  C_18
REMARK    8  A    between atoms: N_19  and  C_20
REMARK    9  A    between atoms: C_25  and  O_26
REMARK                            x       y       z     vdW  Elec       q    Type
REMARK                         _______ _______ _______ _____ _____    ______ ____
ROOT
ATOM      1  C   UNL     1       2.480   4.107  19.392  0.00  0.00    +0.000 A 
ATOM      2  C   UNL     1       2.124   5.387  19.862  0.00  0.00    +0.000 A 
ATOM      3  C   UNL     1       2.591   6.562  19.256  0.00  0.00    +0.000 A 
ATOM      4  C   UNL     1       3.438   6.458  18.147  0.00  0.00    +0.000 A 
ATOM      5  C   UNL     1       3.836   5.203  17.675  0.00  0.00    +0.000 A 
ATOM      6  C   UNL     1       3.361   4.034  18.298  0.00  0.00    +0.000 A 
ENDROOT
BRANCH   1   8
ATOM      7  C   UNL     1       1.756   3.079  21.571  0.00  0.00    +0.000 C 
ATOM      8  C   UNL     1       1.955   2.846  20.072  0.00  0.00    +0.000 C 
ATOM      9  C   UNL     1       0.658   2.291  19.464  0.00  0.00    +0.000 C 
ENDBRANCH   1   8
BRANCH   3  10
ATOM     10  C   UNL     1       2.127   7.854  19.793  0.00  0.00    +0.000 C 
ATOM     11  C   UNL     1       1.439   7.977  20.935  0.00  0.00    +0.000 C 
BRANCH  11  12
ATOM     12  C   UNL     1       0.980   9.302  21.449  0.00  0.00    +0.000 C 
ATOM     13  O   UNL     1       1.114   9.585  22.635  0.00  0.00    +0.000 OA
BRANCH  12  14
ATOM     14  C   UNL     1       0.408  10.187  20.440  0.00  0.00    +0.000 A 
ATOM     15  C   UNL     1      -0.702   9.979  19.638  0.00  0.00    +0.000 A 
ATOM     16  C   UNL     1      -0.906  11.035  18.705  0.00  0.00    +0.000 A 
ATOM     17  C   UNL     1       0.037  12.027  18.840  0.00  0.00    +0.000 A 
ATOM     18  S   UNL     1       1.137  11.699  20.111  0.00  0.00    +0.000 S 
ENDBRANCH  12  14
ENDBRANCH  11  12
ENDBRANCH   3  10
BRANCH   5  19
ATOM     19  C   UNL     1       4.783   5.176  16.534  0.00  0.00    +0.000 C 
ATOM     20  N   UNL     1       4.700   4.271  15.611  0.00  0.00    +0.000 NA
BRANCH  20  21
ATOM     21  C   UNL     1       5.652   4.318  14.643  0.00  0.00    +0.000 A 
ATOM     22  N   UNL     1       5.628   3.787  13.436  0.00  0.00    +0.000 NA
ATOM     23  C   UNL     1       6.779   4.111  12.740  0.00  0.00    +0.000 A 
ATOM     24  C   UNL     1       7.687   4.886  13.422  0.00  0.00    +0.000 A 
ATOM     25  S   UNL     1       7.095   5.213  14.992  0.00  0.00    +0.000 S 
ENDBRANCH  20  21
ENDBRANCH   5  19
BRANCH   6  26
ATOM     26  O   UNL     1       3.740   2.789  17.866  0.00  0.00    +0.000 OA
ATOM     27  H   UNL     1       3.365   2.126  18.484  0.00  0.00    +0.000 HD
ENDBRANCH   6  26
TORSDOF 7
ENDMDL
MODEL 4
REMARK VINA RESULT:      -7.2      3.551      8.387
REMARK  Name = 
REMARK  9 active torsions:
REMARK  status: ('A' for Active; 'I' for Inactive)
REMARK    1  A    between atoms: C_1  and  C_2
REMARK    2  A    between atoms: C_2  and  C_3
REMARK    3  A    between atoms: C_2  and  C_4
REMARK    4  A    between atoms: C_6  and  C_7
REMARK    5  A    between atoms: C_8  and  C_9
REMARK    6  A    between atoms: C_9  and  C_11
REMARK    7  A    between atoms: C_17  and  C_18
REMARK    8  A    between atoms: N_19  and  C_20
REMARK    9  A    between atoms: C_25  and  O_26
REMARK                            x       y       z     vdW  Elec       q    Type
REMARK                         _______ _______ _______ _____ _____    ______ ____
ROOT
ATOM      1  C   UNL     1       2.604   4.185  19.459  0.00  0.00    +0.000 A 
ATOM      2  C   UNL     1       3.714   4.343  18.605  0.00  0.00    +0.000 A 
ATOM      3  C   UNL     1       4.191   5.606  18.227  0.00  0.00    +0.000 A 
ATOM      4  C   UNL     1       3.542   6.746  18.713  0.00  0.00    +0.000 A 
ATOM      5  C   UNL     1       2.417   6.623  19.536  0.00  0.00    +0.000 A 
ATOM      6  C   UNL     1       1.950   5.348  19.904  0.00  0.00    +0.000 A 
ENDROOT
BRANCH   1   8
ATOM      7  C   UNL     1       1.962   2.684  21.374  0.00  0.00    +0.000 C 
ATOM      8  C   UNL     1       2.108   2.797  19.854  0.00  0.00    +0.000 C 
ATOM      9  C   UNL     1       0.792   2.378  19.181  0.00  0.00    +0.000 C 
ENDBRANCH   1   8
BRANCH   3  10
ATOM     10  C   UNL     1       5.387   5.669  17.366  0.00  0.00    +0.000 C 
ATOM     11  C   UNL     1       5.441   5.145  16.135  0.00  0.00    +0.000 C 
BRANCH  11  12
ATOM     12  C   UNL     1       6.671   5.224  15.291  0.00  0.00    +0.000 C 
ATOM     13  O   UNL     1       7.683   5.766  15.723  0.00  0.00    +0.000 OA
BRANCH  12  14
ATOM     14  C   UNL     1       6.554   4.601  13.977  0.00  0.00    +0.000 A 
ATOM     15  C   UNL     1       5.585   3.725  13.519  0.00  0.00    +0.000 A 
ATOM     16  C   UNL     1       5.852   3.256  12.201  0.00  0.00    +0.000 A 
ATOM     17  C   UNL     1       7.002   3.807  11.685  0.00  0.00    +0.000 A 
ATOM     18  S   UNL     1       7.730   4.912  12.772  0.00  0.00    +0.000 S 
ENDBRANCH  12  14
ENDBRANCH  11  12
ENDBRANCH   3  10
BRANCH   5  19
ATOM     19  C   UNL     1       1.748   7.877  19.962  0.00  0.00    +0.000 C 
ATOM     20  N   UNL     1       1.279   8.015  21.161  0.00  0.00    +0.000 NA
BRANCH  20  21
ATOM     21  C   UNL     1       0.644   9.188  21.420  0.00  0.00    +0.000 A 
ATOM     22  N   UNL     1       0.433  10.208  20.611  0.00  0.00    +0.000 NA
ATOM     23  C   UNL     1      -0.300  11.191  21.251  0.00  0.00    +0.000 A 
ATOM     24  C   UNL     1      -0.641  10.924  22.556  0.00  0.00    +0.000 A 
ATOM     25  S   UNL     1      -0.017   9.398  23.009  0.00  0.00    +0.000 S 
ENDBRANCH  20  21
ENDBRANCH   5  19
BRANCH   6  26
ATOM     26  O   UNL     1       0.845   5.193  20.700  0.00  0.00    +0.000 OA
ATOM     27  H   UNL     1       1.108   4.671  21.487  0.00  0.00    +0.000 HD
ENDBRANCH   6  26
TORSDOF 7
ENDMDL
MODEL 5
REMARK VINA RESULT:      -7.2      3.211      8.295
REMARK  Name = 
REMARK  9 active torsions:
REMARK  status: ('A' for Active; 'I' for Inactive)
REMARK    1  A    between atoms: C_1  and  C_2
REMARK    2  A    between atoms: C_2  and  C_3
REMARK    3  A    between atoms: C_2  and  C_4
REMARK    4  A    between atoms: C_6  and  C_7
REMARK    5  A    between atoms: C_8  and  C_9
REMARK    6  A    between atoms: C_9  and  C_11
REMARK    7  A    between atoms: C_17  and  C_18
REMARK    8  A    between atoms: N_19  and  C_20
REMARK    9  A    between atoms: C_25  and  O_26
REMARK                            x       y       z     vdW  Elec       q    Type
REMARK                         _______ _______ _______ _____ _____    ______ ____
ROOT
ATOM      1  C   UNL     1       2.469   4.369  19.657  0.00  0.00    +0.000 A 
ATOM      2  C   UNL     1       3.628   4.337  18.854  0.00  0.00    +0.000 A 
ATOM      3  C   UNL     1       4.214   5.503  18.343  0.00  0.00    +0.000 A 
ATOM      4  C   UNL     1       3.630   6.739  18.641  0.00  0.00    +0.000 A 
ATOM      5  C   UNL     1       2.461   6.803  19.408  0.00  0.00    +0.000 A 
ATOM      6  C   UNL     1       1.883   5.623  19.910  0.00  0.00    +0.000 A 
ENDROOT
BRANCH   1   8
ATOM      7  C   UNL     1       2.088   1.918  19.234  0.00  0.00    +0.000 C 
ATOM      8  C   UNL     1       1.854   3.082  20.199  0.00  0.00    +0.000 C 
ATOM      9  C   UNL     1       2.341   2.690  21.603  0.00  0.00    +0.000 C 
ENDBRANCH   1   8
BRANCH   3  10
ATOM     10  C   UNL     1       5.451   5.372  17.551  0.00  0.00    +0.000 C 
ATOM     11  C   UNL     1       5.554   4.594  16.465  0.00  0.00    +0.000 C 
BRANCH  11  12
ATOM     12  C   UNL     1       6.824   4.481  15.687  0.00  0.00    +0.000 C 
ATOM     13  O   UNL     1       7.908   4.560  16.257  0.00  0.00    +0.000 OA
BRANCH  12  14
ATOM     14  C   UNL     1       6.649   4.255  14.256  0.00  0.00    +0.000 A 
ATOM     15  C   UNL     1       5.680   3.504  13.612  0.00  0.00    +0.000 A 
ATOM     16  C   UNL     1       5.883   3.443  12.205  0.00  0.00    +0.000 A 
ATOM     17  C   UNL     1       6.985   4.168  11.815  0.00  0.00    +0.000 A 
ATOM     18  S   UNL     1       7.743   4.947  13.137  0.00  0.00    +0.000 S 
ENDBRANCH  12  14
ENDBRANCH  11  12
ENDBRANCH   3  10
BRANCH   5  19
ATOM     19  C   UNL     1       1.867   8.144  19.630  0.00  0.00    +0.000 C 
ATOM     20  N   UNL     1       1.292   8.449  20.750  0.00  0.00    +0.000 NA
BRANCH  20  21
ATOM     21  C   UNL     1       0.742   9.689  20.819  0.00  0.00    +0.000 A 
ATOM     22  N   UNL     1       0.806  10.566  21.802  0.00  0.00    +0.000 NA
ATOM     23  C   UNL     1       0.152  11.734  21.454  0.00  0.00    +0.000 A 
ATOM     24  C   UNL     1      -0.420  11.744  20.203  0.00  0.00    +0.000 A 
ATOM     25  S   UNL     1      -0.145  10.241  19.436  0.00  0.00    +0.000 S 
ENDBRANCH  20  21
ENDBRANCH   5  19
BRANCH   6  26
ATOM     26  O   UNL     1       0.733   5.649  20.656  0.00  0.00    +0.000 OA
ATOM     27  H   UNL     1      -0.014   5.397  20.072  0.00  0.00    +0.000 HD
ENDBRANCH   6  26
TORSDOF 7
ENDMDL
MODEL 6
REMARK VINA RESULT:      -7.2      3.489      8.274
REMARK  Name = 
REMARK  9 active torsions:
REMARK  status: ('A' for Active; 'I' for Inactive)
REMARK    1  A    between atoms: C_1  and  C_2
REMARK    2  A    between atoms: C_2  and  C_3
REMARK    3  A    between atoms: C_2  and  C_4
REMARK    4  A    between atoms: C_6  and  C_7
REMARK    5  A    between atoms: C_8  and  C_9
REMARK    6  A    between atoms: C_9  and  C_11
REMARK    7  A    between atoms: C_17  and  C_18
REMARK    8  A    between atoms: N_19  and  C_20
REMARK    9  A    between atoms: C_25  and  O_26
REMARK                            x       y       z     vdW  Elec       q    Type
REMARK                         _______ _______ _______ _____ _____    ______ ____
ROOT
ATOM      1  C   UNL     1       2.580   3.842  19.162  0.00  0.00    +0.000 A 
ATOM      2  C   UNL     1       3.573   4.310  18.278  0.00  0.00    +0.000 A 
ATOM      3  C   UNL     1       3.898   5.669  18.171  0.00  0.00    +0.000 A 
ATOM      4  C   UNL     1       3.213   6.591  18.971  0.00  0.00    +0.000 A 
ATOM      5  C   UNL     1       2.200   6.164  19.835  0.00  0.00    +0.000 A 
ATOM      6  C   UNL     1       1.883   4.795  19.927  0.00  0.00    +0.000 A 
ENDROOT
BRANCH   1   8
ATOM      7  C   UNL     1       0.878   2.063  18.644  0.00  0.00    +0.000 C 
ATOM      8  C   UNL     1       2.249   2.355  19.257  0.00  0.00    +0.000 C 
ATOM      9  C   UNL     1       3.300   1.431  18.623  0.00  0.00    +0.000 C 
ENDBRANCH   1   8
BRANCH   3  10
ATOM     10  C   UNL     1       4.983   6.056  17.251  0.00  0.00    +0.000 C 
ATOM     11  C   UNL     1       5.790   5.174  16.647  0.00  0.00    +0.000 C 
BRANCH  11  12
ATOM     12  C   UNL     1       6.882   5.601  15.721  0.00  0.00    +0.000 C 
ATOM     13  O   UNL     1       7.713   6.427  16.085  0.00  0.00    +0.000 OA
BRANCH  12  14
ATOM     14  C   UNL     1       6.872   4.947  14.417  0.00  0.00    +0.000 A 
ATOM     15  C   UNL     1       7.703   5.171  13.332  0.00  0.00    +0.000 A 
ATOM     16  C   UNL     1       7.333   4.400  12.193  0.00  0.00    +0.000 A 
ATOM     17  C   UNL     1       6.247   3.595  12.452  0.00  0.00    +0.000 A 
ATOM     18  S   UNL     1       5.707   3.743  14.069  0.00  0.00    +0.000 S 
ENDBRANCH  12  14
ENDBRANCH  11  12
ENDBRANCH   3  10
BRANCH   5  19
ATOM     19  C   UNL     1       1.478   7.207  20.604  0.00  0.00    +0.000 C 
ATOM     20  N   UNL     1       1.434   8.435  20.196  0.00  0.00    +0.000 NA
BRANCH  20  21
ATOM     21  C   UNL     1       0.785   9.309  21.008  0.00  0.00    +0.000 A 
ATOM     22  N   UNL     1       0.271   9.098  22.205  0.00  0.00    +0.000 NA
ATOM     23  C   UNL     1      -0.260  10.268  22.718  0.00  0.00    +0.000 A 
ATOM     24  C   UNL     1      -0.159  11.373  21.907  0.00  0.00    +0.000 A 
ATOM     25  S   UNL     1       0.615  10.940  20.444  0.00  0.00    +0.000 S 
ENDBRANCH  20  21
ENDBRANCH   5  19
BRANCH   6  26
ATOM     26  O   UNL     1       0.889   4.344  20.756  0.00  0.00    +0.000 OA
ATOM     27  H   UNL     1       0.733   5.028  21.442  0.00  0.00    +0.000 HD
ENDBRANCH   6  26
TORSDOF 7
ENDMDL
MODEL 7
REMARK VINA RESULT:      -7.2      1.642      2.188
REMARK  Name = 
REMARK  9 active torsions:
REMARK  status: ('A' for Active; 'I' for Inactive)
REMARK    1  A    between atoms: C_1  and  C_2
REMARK    2  A    between atoms: C_2  and  C_3
REMARK    3  A    between atoms: C_2  and  C_4
REMARK    4  A    between atoms: C_6  and  C_7
REMARK    5  A    between atoms: C_8  and  C_9
REMARK    6  A    between atoms: C_9  and  C_11
REMARK    7  A    between atoms: C_17  and  C_18
REMARK    8  A    between atoms: N_19  and  C_20
REMARK    9  A    between atoms: C_25  and  O_26
REMARK                            x       y       z     vdW  Elec       q    Type
REMARK                         _______ _______ _______ _____ _____    ______ ____
ROOT
ATOM      1  C   UNL     1       3.052   4.580  18.920  0.00  0.00    +0.000 A 
ATOM      2  C   UNL     1       2.599   5.874  19.248  0.00  0.00    +0.000 A 
ATOM      3  C   UNL     1       2.964   7.003  18.504  0.00  0.00    +0.000 A 
ATOM      4  C   UNL     1       3.806   6.840  17.398  0.00  0.00    +0.000 A 
ATOM      5  C   UNL     1       4.299   5.574  17.065  0.00  0.00    +0.000 A 
ATOM      6  C   UNL     1       3.926   4.451  17.825  0.00  0.00    +0.000 A 
ENDROOT
BRANCH   1   8
ATOM      7  C   UNL     1       2.247   3.788  21.169  0.00  0.00    +0.000 C 
ATOM      8  C   UNL     1       2.637   3.368  19.749  0.00  0.00    +0.000 C 
ATOM      9  C   UNL     1       1.502   2.536  19.132  0.00  0.00    +0.000 C 
ENDBRANCH   1   8
BRANCH   3  10
ATOM     10  C   UNL     1       2.402   8.309  18.898  0.00  0.00    +0.000 C 
ATOM     11  C   UNL     1       1.110   8.498  19.196  0.00  0.00    +0.000 C 
BRANCH  11  12
ATOM     12  C   UNL     1       0.573   9.836  19.589  0.00  0.00    +0.000 C 
ATOM     13  O   UNL     1       0.471  10.730  18.755  0.00  0.00    +0.000 OA
BRANCH  12  14
ATOM     14  C   UNL     1       0.183   9.953  20.989  0.00  0.00    +0.000 A 
ATOM     15  C   UNL     1       0.560   9.162  22.061  0.00  0.00    +0.000 A 
ATOM     16  C   UNL     1      -0.097   9.530  23.270  0.00  0.00    +0.000 A 
ATOM     17  C   UNL     1      -0.936  10.605  23.089  0.00  0.00    +0.000 A 
ATOM     18  S   UNL     1      -0.898  11.186  21.479  0.00  0.00    +0.000 S 
ENDBRANCH  12  14
ENDBRANCH  11  12
ENDBRANCH   3  10
BRANCH   5  19
ATOM     19  C   UNL     1       5.235   5.491  15.916  0.00  0.00    +0.000 C 
ATOM     20  N   UNL     1       5.122   4.560  15.023  0.00  0.00    +0.000 NA
BRANCH  20  21
ATOM     21  C   UNL     1       6.066   4.556  14.046  0.00  0.00    +0.000 A 
ATOM     22  N   UNL     1       7.178   5.262  13.969  0.00  0.00    +0.000 NA
ATOM     23  C   UNL     1       7.890   4.923  12.833  0.00  0.00    +0.000 A 
ATOM     24  C   UNL     1       7.315   3.962  12.035  0.00  0.00    +0.000 A 
ATOM     25  S   UNL     1       5.827   3.468  12.717  0.00  0.00    +0.000 S 
ENDBRANCH  20  21
ENDBRANCH   5  19
BRANCH   6  26
ATOM     26  O   UNL     1       4.399   3.198  17.532  0.00  0.00    +0.000 OA
ATOM     27  H   UNL     1       3.652   2.664  17.187  0.00  0.00    +0.000 HD
ENDBRANCH   6  26
TORSDOF 7
ENDMDL
MODEL 8
REMARK VINA RESULT:      -7.1      4.922     10.032
REMARK  Name = 
REMARK  9 active torsions:
REMARK  status: ('A' for Active; 'I' for Inactive)
REMARK    1  A    between atoms: C_1  and  C_2
REMARK    2  A    between atoms: C_2  and  C_3
REMARK    3  A    between atoms: C_2  and  C_4
REMARK    4  A    between atoms: C_6  and  C_7
REMARK    5  A    between atoms: C_8  and  C_9
REMARK    6  A    between atoms: C_9  and  C_11
REMARK    7  A    between atoms: C_17  and  C_18
REMARK    8  A    between atoms: N_19  and  C_20
REMARK    9  A    between atoms: C_25  and  O_26
REMARK                            x       y       z     vdW  Elec       q    Type
REMARK                         _______ _______ _______ _____ _____    ______ ____
ROOT
ATOM      1  C   UNL     1       0.909  12.346  18.774  0.00  0.00    +0.000 A 
ATOM      2  C   UNL     1       1.548  11.125  18.478  0.00  0.00    +0.000 A 
ATOM      3  C   UNL     1       0.835   9.986  18.082  0.00  0.00    +0.000 A 
ATOM      4  C   UNL     1      -0.558  10.064  17.977  0.00  0.00    +0.000 A 
ATOM      5  C   UNL     1      -1.226  11.251  18.295  0.00  0.00    +0.000 A 
ATOM      6  C   UNL     1      -0.495  12.385  18.695  0.00  0.00    +0.000 A 
ENDROOT
BRANCH   1   8
ATOM      7  C   UNL     1       2.015  13.525  20.702  0.00  0.00    +0.000 C 
ATOM      8  C   UNL     1       1.713  13.570  19.203  0.00  0.00    +0.000 C 
ATOM      9  C   UNL     1       3.021  13.773  18.423  0.00  0.00    +0.000 C 
ENDBRANCH   1   8
BRANCH   3  10
ATOM     10  C   UNL     1       1.597   8.767  17.749  0.00  0.00    +0.000 C 
ATOM     11  C   UNL     1       2.203   8.001  18.665  0.00  0.00    +0.000 C 
BRANCH  11  12
ATOM     12  C   UNL     1       2.970   6.774  18.294  0.00  0.00    +0.000 C 
ATOM     13  O   UNL     1       4.052   6.871  17.725  0.00  0.00    +0.000 OA
BRANCH  12  14
ATOM     14  C   UNL     1       2.340   5.516  18.679  0.00  0.00    +0.000 A 
ATOM     15  C   UNL     1       1.929   4.471  17.868  0.00  0.00    +0.000 A 
ATOM     16  C   UNL     1       1.272   3.440  18.597  0.00  0.00    +0.000 A 
ATOM     17  C   UNL     1       1.223   3.718  19.944  0.00  0.00    +0.000 A 
ATOM     18  S   UNL     1       2.000   5.195  20.325  0.00  0.00    +0.000 S 
ENDBRANCH  12  14
ENDBRANCH  11  12
ENDBRANCH   3  10
BRANCH   5  19
ATOM     19  C   UNL     1      -2.708  11.239  18.219  0.00  0.00    +0.000 C 
ATOM     20  N   UNL     1      -3.429  11.958  19.018  0.00  0.00    +0.000 NA
BRANCH  20  21
ATOM     21  C   UNL     1      -4.775  11.827  18.885  0.00  0.00    +0.000 A 
ATOM     22  N   UNL     1      -5.454  11.175  17.960  0.00  0.00    +0.000 NA
ATOM     23  C   UNL     1      -6.811  11.245  18.215  0.00  0.00    +0.000 A 
ATOM     24  C   UNL     1      -7.170  11.959  19.334  0.00  0.00    +0.000 A 
ATOM     25  S   UNL     1      -5.768  12.579  20.091  0.00  0.00    +0.000 S 
ENDBRANCH  20  21
ENDBRANCH   5  19
BRANCH   6  26
ATOM     26  O   UNL     1      -1.119  13.560  19.024  0.00  0.00    +0.000 OA
ATOM     27  H   UNL     1      -1.494  13.464  19.925  0.00  0.00    +0.000 HD
ENDBRANCH   6  26
TORSDOF 7
ENDMDL
MODEL 9
REMARK VINA RESULT:      -7.1      1.678      2.131
REMARK  Name = 
REMARK  9 active torsions:
REMARK  status: ('A' for Active; 'I' for Inactive)
REMARK    1  A    between atoms: C_1  and  C_2
REMARK    2  A    between atoms: C_2  and  C_3
REMARK    3  A    between atoms: C_2  and  C_4
REMARK    4  A    between atoms: C_6  and  C_7
REMARK    5  A    between atoms: C_8  and  C_9
REMARK    6  A    between atoms: C_9  and  C_11
REMARK    7  A    between atoms: C_17  and  C_18
REMARK    8  A    between atoms: N_19  and  C_20
REMARK    9  A    between atoms: C_25  and  O_26
REMARK                            x       y       z     vdW  Elec       q    Type
REMARK                         _______ _______ _______ _____ _____    ______ ____
ROOT
ATOM      1  C   UNL     1       3.216   3.965  19.295  0.00  0.00    +0.000 A 
ATOM      2  C   UNL     1       2.723   5.223  19.695  0.00  0.00    +0.000 A 
ATOM      3  C   UNL     1       2.880   6.371  18.908  0.00  0.00    +0.000 A 
ATOM      4  C   UNL     1       3.550   6.264  17.683  0.00  0.00    +0.000 A 
ATOM      5  C   UNL     1       4.080   5.036  17.272  0.00  0.00    +0.000 A 
ATOM      6  C   UNL     1       3.916   3.893  18.077  0.00  0.00    +0.000 A 
ENDROOT
BRANCH   1   8
ATOM      7  C   UNL     1       4.378   2.205  20.668  0.00  0.00    +0.000 C 
ATOM      8  C   UNL     1       3.029   2.731  20.174  0.00  0.00    +0.000 C 
ATOM      9  C   UNL     1       2.092   2.945  21.374  0.00  0.00    +0.000 C 
ENDBRANCH   1   8
BRANCH   3  10
ATOM     10  C   UNL     1       2.290   7.633  19.390  0.00  0.00    +0.000 C 
ATOM     11  C   UNL     1       1.795   8.576  18.578  0.00  0.00    +0.000 C 
BRANCH  11  12
ATOM     12  C   UNL     1       1.206   9.846  19.099  0.00  0.00    +0.000 C 
ATOM     13  O   UNL     1       1.219  10.862  18.411  0.00  0.00    +0.000 OA
BRANCH  12  14
ATOM     14  C   UNL     1       0.624   9.750  20.434  0.00  0.00    +0.000 A 
ATOM     15  C   UNL     1       0.219   8.618  21.120  0.00  0.00    +0.000 A 
ATOM     16  C   UNL     1      -0.386   8.926  22.372  0.00  0.00    +0.000 A 
ATOM     17  C   UNL     1      -0.401  10.280  22.613  0.00  0.00    +0.000 A 
ATOM     18  S   UNL     1       0.345  11.167  21.353  0.00  0.00    +0.000 S 
ENDBRANCH  12  14
ENDBRANCH  11  12
ENDBRANCH   3  10
BRANCH   5  19
ATOM     19  C   UNL     1       4.829   5.014  15.992  0.00  0.00    +0.000 C 
ATOM     20  N   UNL     1       6.085   4.703  15.952  0.00  0.00    +0.000 NA
BRANCH  20  21
ATOM     21  C   UNL     1       6.675   4.765  14.730  0.00  0.00    +0.000 A 
ATOM     22  N   UNL     1       7.738   5.454  14.360  0.00  0.00    +0.000 NA
ATOM     23  C   UNL     1       8.044   5.200  13.035  0.00  0.00    +0.000 A 
ATOM     24  C   UNL     1       7.207   4.322  12.389  0.00  0.00    +0.000 A 
ATOM     25  S   UNL     1       5.985   3.799  13.466  0.00  0.00    +0.000 S 
ENDBRANCH  20  21
ENDBRANCH   5  19
BRANCH   6  26
ATOM     26  O   UNL     1       4.432   2.678  17.708  0.00  0.00    +0.000 OA
ATOM     27  H   UNL     1       5.368   2.812  17.447  0.00  0.00    +0.000 HD
ENDBRANCH   6  26
TORSDOF 7
ENDMDL
