MODEL 1
REMARK VINA RESULT:      -7.7      0.000      0.000
REMARK  Name = 
REMARK  4 active torsions:
REMARK  status: ('A' for Active; 'I' for Inactive)
REMARK    1  A    between atoms: C_4  and  C_5
REMARK    2  A    between atoms: C_12  and  O_13
REMARK    3  A    between atoms: C_14  and  S_15
REMARK    4  A    between atoms: S_15  and  C_16
REMARK                            x       y       z     vdW  Elec       q    Type
REMARK                         _______ _______ _______ _____ _____    ______ ____
ROOT
ATOM      1  O   UNL     1       3.717   7.435  17.340  0.00  0.00    +0.000 OA
ATOM      2  C   UNL     1       4.391   6.419  17.168  0.00  0.00    +0.000 C 
ATOM      3  C   UNL     1       5.094   6.206  15.843  0.00  0.00    +0.000 C 
ATOM      4  C   UNL     1       5.318   4.725  15.536  0.00  0.00    +0.000 C 
ATOM      5  C   UNL     1       6.021   4.028  16.709  0.00  0.00    +0.000 C 
ATOM      6  C   UNL     1       5.359   4.319  18.029  0.00  0.00    +0.000 C 
ATOM      7  C   UNL     1       4.595   5.404  18.256  0.00  0.00    +0.000 C 
ENDROOT
BRANCH   4   8
ATOM      8  C   UNL     1       6.082   4.533  14.234  0.00  0.00    +0.000 A 
ATOM      9  C   UNL     1       7.240   5.278  13.951  0.00  0.00    +0.000 A 
ATOM     10  C   UNL     1       7.926   5.104  12.749  0.00  0.00    +0.000 A 
ATOM     11  C   UNL     1       7.468   4.187  11.809  0.00  0.00    +0.000 A 
ATOM     12  C   UNL     1       6.325   3.436  12.076  0.00  0.00    +0.000 A 
ATOM     13  C   UNL     1       5.636   3.606  13.279  0.00  0.00    +0.000 A 
ENDBRANCH   4   8
BRANCH   6  14
ATOM     14  O   UNL     1       5.582   3.377  19.023  0.00  0.00    +0.000 OA
ATOM     15  H   UNL     1       4.754   2.901  19.212  0.00  0.00    +0.000 HD
ENDBRANCH   6  14
BRANCH   7  16
ATOM     16  S   UNL     1       3.806   5.704  19.769  0.00  0.00    +0.000 S 
BRANCH  16  17
ATOM     17  C   UNL     1       2.549   4.444  19.749  0.00  0.00    +0.000 A 
ATOM     18  N   UNL     1       2.277   3.737  20.865  0.00  0.00    +0.000 NA
ATOM     19  C   UNL     1       1.336   2.780  20.752  0.00  0.00    +0.000 A 
ATOM     20  C   UNL     1       0.666   2.498  19.585  0.00  0.00    +0.000 A 
ATOM     21  C   UNL     1       1.017   3.270  18.506  0.00  0.00    +0.000 A 
ATOM     22  N   UNL     1       1.950   4.237  18.559  0.00  0.00    +0.000 NA
ENDBRANCH  16  17
ENDBRANCH   7  16
TORSDOF 4
ENDMDL
MODEL 2
REMARK VINA RESULT:      -7.7      0.045      1.053
REMARK  Name = 
REMARK  4 active torsions:
REMARK  status: ('A' for Active; 'I' for Inactive)
REMARK    1  A    between atoms: C_4  and  C_5
REMARK    2  A    between atoms: C_12  and  O_13
REMARK    3  A    between atoms: C_14  and  S_15
REMARK    4  A    between atoms: S_15  and  C_16
REMARK                            x       y       z     vdW  Elec       q    Type
REMARK                         _______ _______ _______ _____ _____    ______ ____
ROOT
ATOM      1  O   UNL     1       3.743   7.446  17.361  0.00  0.00    +0.000 OA
ATOM      2  C   UNL     1       4.399   6.420  17.179  0.00  0.00    +0.000 C 
ATOM      3  C   UNL     1       5.090   6.204  15.848  0.00  0.00    +0.000 C 
ATOM      4  C   UNL     1       5.288   4.722  15.530  0.00  0.00    +0.000 C 
ATOM      5  C   UNL     1       5.987   4.006  16.695  0.00  0.00    +0.000 C 
ATOM      6  C   UNL     1       5.339   4.300  18.021  0.00  0.00    +0.000 C 
ATOM      7  C   UNL     1       4.594   5.396  18.259  0.00  0.00    +0.000 C 
ENDROOT
BRANCH   4   8
ATOM      8  C   UNL     1       6.040   4.526  14.223  0.00  0.00    +0.000 A 
ATOM      9  C   UNL     1       5.597   3.605  13.258  0.00  0.00    +0.000 A 
ATOM     10  C   UNL     1       6.302   3.423  12.067  0.00  0.00    +0.000 A 
ATOM     11  C   UNL     1       7.459   4.154  11.820  0.00  0.00    +0.000 A 
ATOM     12  C   UNL     1       7.909   5.075  12.764  0.00  0.00    +0.000 A 
ATOM     13  C   UNL     1       7.206   5.261  13.957  0.00  0.00    +0.000 A 
ENDBRANCH   4   8
BRANCH   6  14
ATOM     14  O   UNL     1       5.553   3.349  19.009  0.00  0.00    +0.000 OA
ATOM     15  H   UNL     1       5.391   3.745  19.882  0.00  0.00    +0.000 HD
ENDBRANCH   6  14
BRANCH   7  16
ATOM     16  S   UNL     1       3.820   5.699  19.780  0.00  0.00    +0.000 S 
BRANCH  16  17
ATOM     17  C   UNL     1       2.556   4.446  19.770  0.00  0.00    +0.000 A 
ATOM     18  N   UNL     1       2.237   3.794  20.907  0.00  0.00    +0.000 NA
ATOM     19  C   UNL     1       1.295   2.837  20.803  0.00  0.00    +0.000 A 
ATOM     20  C   UNL     1       0.668   2.504  19.625  0.00  0.00    +0.000 A 
ATOM     21  C   UNL     1       1.066   3.221  18.525  0.00  0.00    +0.000 A 
ATOM     22  N   UNL     1       2.002   4.185  18.568  0.00  0.00    +0.000 NA
ENDBRANCH  16  17
ENDBRANCH   7  16
TORSDOF 4
ENDMDL
MODEL 3
REMARK VINA RESULT:      -7.7      0.147      1.027
REMARK  Name = 
REMARK  4 active torsions:
REMARK  status: ('A' for Active; 'I' for Inactive)
REMARK    1  A    between atoms: C_4  and  C_5
REMARK    2  A    between atoms: C_12  and  O_13
REMARK    3  A    between atoms: C_14  and  S_15
REMARK    4  A    between atoms: S_15  and  C_16
REMARK                            x       y       z     vdW  Elec       q    Type
REMARK                         _______ _______ _______ _____ _____    ______ ____
ROOT
ATOM      1  O   UNL     1       3.692   7.406  17.317  0.00  0.00    +0.000 OA
ATOM      2  C   UNL     1       4.400   6.412  17.150  0.00  0.00    +0.000 C 
ATOM      3  C   UNL     1       5.094   6.206  15.818  0.00  0.00    +0.000 C 
ATOM      4  C   UNL     1       5.368   4.730  15.528  0.00  0.00    +0.000 C 
ATOM      5  C   UNL     1       6.109   4.075  16.702  0.00  0.00    +0.000 C 
ATOM      6  C   UNL     1       5.454   4.361  18.026  0.00  0.00    +0.000 C 
ATOM      7  C   UNL     1       4.654   5.421  18.248  0.00  0.00    +0.000 C 
ENDROOT
BRANCH   4   8
ATOM      8  C   UNL     1       6.122   4.548  14.220  0.00  0.00    +0.000 A 
ATOM      9  C   UNL     1       7.261   5.315  13.922  0.00  0.00    +0.000 A 
ATOM     10  C   UNL     1       7.938   5.150  12.713  0.00  0.00    +0.000 A 
ATOM     11  C   UNL     1       7.490   4.219  11.782  0.00  0.00    +0.000 A 
ATOM     12  C   UNL     1       6.365   3.446  12.064  0.00  0.00    +0.000 A 
ATOM     13  C   UNL     1       5.685   3.608  13.273  0.00  0.00    +0.000 A 
ENDBRANCH   4   8
BRANCH   6  14
ATOM     14  O   UNL     1       5.723   3.441  19.030  0.00  0.00    +0.000 OA
ATOM     15  H   UNL     1       5.666   3.881  19.897  0.00  0.00    +0.000 HD
ENDBRANCH   6  14
BRANCH   7  16
ATOM     16  S   UNL     1       3.874   5.713  19.767  0.00  0.00    +0.000 S 
BRANCH  16  17
ATOM     17  C   UNL     1       2.607   4.461  19.742  0.00  0.00    +0.000 A 
ATOM     18  N   UNL     1       2.067   4.065  18.571  0.00  0.00    +0.000 NA
ATOM     19  C   UNL     1       1.091   3.140  18.646  0.00  0.00    +0.000 A 
ATOM     20  C   UNL     1       0.634   2.603  19.827  0.00  0.00    +0.000 A 
ATOM     21  C   UNL     1       1.244   3.074  20.962  0.00  0.00    +0.000 A 
ATOM     22  N   UNL     1       2.221   3.998  20.948  0.00  0.00    +0.000 NA
ENDBRANCH  16  17
ENDBRANCH   7  16
TORSDOF 4
ENDMDL
MODEL 4
REMARK VINA RESULT:      -7.6      0.140      1.474
REMARK  Name = 
REMARK  4 active torsions:
REMARK  status: ('A' for Active; 'I' for Inactive)
REMARK    1  A    between atoms: C_4  and  C_5
REMARK    2  A    between atoms: C_12  and  O_13
REMARK    3  A    between atoms: C_14  and  S_15
REMARK    4  A    between atoms: S_15  and  C_16
REMARK                            x       y       z     vdW  Elec       q    Type
REMARK                         _______ _______ _______ _____ _____    ______ ____
ROOT
ATOM      1  O   UNL     1       3.746   7.456  17.294  0.00  0.00    +0.000 OA
ATOM      2  C   UNL     1       4.408   6.432  17.121  0.00  0.00    +0.000 C 
ATOM      3  C   UNL     1       5.093   6.203  15.789  0.00  0.00    +0.000 C 
ATOM      4  C   UNL     1       5.299   4.718  15.489  0.00  0.00    +0.000 C 
ATOM      5  C   UNL     1       6.009   4.022  16.659  0.00  0.00    +0.000 C 
ATOM      6  C   UNL     1       5.367   4.329  17.985  0.00  0.00    +0.000 C 
ATOM      7  C   UNL     1       4.617   5.423  18.214  0.00  0.00    +0.000 C 
ENDROOT
BRANCH   4   8
ATOM      8  C   UNL     1       6.044   4.510  14.180  0.00  0.00    +0.000 A 
ATOM      9  C   UNL     1       5.598   3.579  13.226  0.00  0.00    +0.000 A 
ATOM     10  C   UNL     1       6.296   3.386  12.033  0.00  0.00    +0.000 A 
ATOM     11  C   UNL     1       7.450   4.116  11.774  0.00  0.00    +0.000 A 
ATOM     12  C   UNL     1       7.905   5.047  12.706  0.00  0.00    +0.000 A 
ATOM     13  C   UNL     1       7.208   5.244  13.901  0.00  0.00    +0.000 A 
ENDBRANCH   4   8
BRANCH   6  14
ATOM     14  O   UNL     1       5.594   3.392  18.983  0.00  0.00    +0.000 OA
ATOM     15  H   UNL     1       5.393   3.786  19.850  0.00  0.00    +0.000 HD
ENDBRANCH   6  14
BRANCH   7  16
ATOM     16  S   UNL     1       3.850   5.741  19.734  0.00  0.00    +0.000 S 
BRANCH  16  17
ATOM     17  C   UNL     1       2.607   4.466  19.758  0.00  0.00    +0.000 A 
ATOM     18  N   UNL     1       1.940   4.146  18.631  0.00  0.00    +0.000 NA
ATOM     19  C   UNL     1       0.992   3.196  18.746  0.00  0.00    +0.000 A 
ATOM     20  C   UNL     1       0.683   2.562  19.926  0.00  0.00    +0.000 A 
ATOM     21  C   UNL     1       1.415   2.961  21.017  0.00  0.00    +0.000 A 
ATOM     22  N   UNL     1       2.370   3.906  20.962  0.00  0.00    +0.000 NA
ENDBRANCH  16  17
ENDBRANCH   7  16
TORSDOF 4
ENDMDL
MODEL 5
REMARK VINA RESULT:      -7.1      5.279      6.974
REMARK  Name = 
REMARK  4 active torsions:
REMARK  status: ('A' for Active; 'I' for Inactive)
REMARK    1  A    between atoms: C_4  and  C_5
REMARK    2  A    between atoms: C_12  and  O_13
REMARK    3  A    between atoms: C_14  and  S_15
REMARK    4  A    between atoms: S_15  and  C_16
REMARK                            x       y       z     vdW  Elec       q    Type
REMARK                         _______ _______ _______ _____ _____    ______ ____
ROOT
ATOM      1  O   UNL     1       0.840   8.669  21.773  0.00  0.00    +0.000 OA
ATOM      2  C   UNL     1       1.265   8.429  20.642  0.00  0.00    +0.000 C 
ATOM      3  C   UNL     1       1.677   7.016  20.284  0.00  0.00    +0.000 C 
ATOM      4  C   UNL     1       2.729   6.980  19.175  0.00  0.00    +0.000 C 
ATOM      5  C   UNL     1       2.266   7.798  17.962  0.00  0.00    +0.000 C 
ATOM      6  C   UNL     1       1.781   9.170  18.346  0.00  0.00    +0.000 C 
ATOM      7  C   UNL     1       1.330   9.484  19.575  0.00  0.00    +0.000 C 
ENDROOT
BRANCH   4   8
ATOM      8  C   UNL     1       3.082   5.553  18.784  0.00  0.00    +0.000 A 
ATOM      9  C   UNL     1       4.220   4.915  19.306  0.00  0.00    +0.000 A 
ATOM     10  C   UNL     1       4.543   3.610  18.931  0.00  0.00    +0.000 A 
ATOM     11  C   UNL     1       3.738   2.922  18.030  0.00  0.00    +0.000 A 
ATOM     12  C   UNL     1       2.602   3.538  17.507  0.00  0.00    +0.000 A 
ATOM     13  C   UNL     1       2.275   4.844  17.881  0.00  0.00    +0.000 A 
ENDBRANCH   4   8
BRANCH   6  14
ATOM     14  O   UNL     1       1.831  10.121  17.335  0.00  0.00    +0.000 OA
ATOM     15  H   UNL     1       2.757  10.273  17.079  0.00  0.00    +0.000 HD
ENDBRANCH   6  14
BRANCH   7  16
ATOM     16  S   UNL     1       0.813  11.078  20.013  0.00  0.00    +0.000 S 
BRANCH  16  17
ATOM     17  C   UNL     1      -0.824  11.106  19.314  0.00  0.00    +0.000 A 
ATOM     18  N   UNL     1      -1.158  10.246  18.330  0.00  0.00    +0.000 NA
ATOM     19  C   UNL     1      -2.405  10.359  17.835  0.00  0.00    +0.000 A 
ATOM     20  C   UNL     1      -3.322  11.286  18.272  0.00  0.00    +0.000 A 
ATOM     21  C   UNL     1      -2.885  12.117  19.273  0.00  0.00    +0.000 A 
ATOM     22  N   UNL     1      -1.651  12.052  19.804  0.00  0.00    +0.000 NA
ENDBRANCH  16  17
ENDBRANCH   7  16
TORSDOF 4
ENDMDL
MODEL 6
REMARK VINA RESULT:      -7.1      4.457      8.161
REMARK  Name = 
REMARK  4 active torsions:
REMARK  status: ('A' for Active; 'I' for Inactive)
REMARK    1  A    between atoms: C_4  and  C_5
REMARK    2  A    between atoms: C_12  and  O_13
REMARK    3  A    between atoms: C_14  and  S_15
REMARK    4  A    between atoms: S_15  and  C_16
REMARK                            x       y       z     vdW  Elec       q    Type
REMARK                         _______ _______ _______ _____ _____    ______ ____
ROOT
ATOM      1  O   UNL     1       2.928   8.046  16.953  0.00  0.00    +0.000 OA
ATOM      2  C   UNL     1       2.526   7.702  18.065  0.00  0.00    +0.000 C 
ATOM      3  C   UNL     1       1.675   8.656  18.879  0.00  0.00    +0.000 C 
ATOM      4  C   UNL     1       1.797   8.406  20.382  0.00  0.00    +0.000 C 
ATOM      5  C   UNL     1       1.528   6.930  20.710  0.00  0.00    +0.000 C 
ATOM      6  C   UNL     1       2.318   5.995  19.834  0.00  0.00    +0.000 C 
ATOM      7  C   UNL     1       2.797   6.335  18.623  0.00  0.00    +0.000 C 
ENDROOT
BRANCH   4   8
ATOM      8  C   UNL     1       0.888   9.329  21.179  0.00  0.00    +0.000 A 
ATOM      9  C   UNL     1       0.357   8.937  22.419  0.00  0.00    +0.000 A 
ATOM     10  C   UNL     1      -0.487   9.787  23.137  0.00  0.00    +0.000 A 
ATOM     11  C   UNL     1      -0.816  11.039  22.627  0.00  0.00    +0.000 A 
ATOM     12  C   UNL     1      -0.293  11.445  21.401  0.00  0.00    +0.000 A 
ATOM     13  C   UNL     1       0.553  10.598  20.681  0.00  0.00    +0.000 A 
ENDBRANCH   4   8
BRANCH   6  14
ATOM     14  O   UNL     1       2.535   4.730  20.364  0.00  0.00    +0.000 OA
ATOM     15  H   UNL     1       2.372   4.059  19.678  0.00  0.00    +0.000 HD
ENDBRANCH   6  14
BRANCH   7  16
ATOM     16  S   UNL     1       3.740   5.259  17.645  0.00  0.00    +0.000 S 
BRANCH  16  17
ATOM     17  C   UNL     1       5.388   5.824  18.015  0.00  0.00    +0.000 A 
ATOM     18  N   UNL     1       5.993   6.725  17.214  0.00  0.00    +0.000 NA
ATOM     19  C   UNL     1       7.251   7.071  17.548  0.00  0.00    +0.000 A 
ATOM     20  C   UNL     1       7.925   6.558  18.632  0.00  0.00    +0.000 A 
ATOM     21  C   UNL     1       7.224   5.646  19.381  0.00  0.00    +0.000 A 
ATOM     22  N   UNL     1       5.968   5.261  19.095  0.00  0.00    +0.000 NA
ENDBRANCH  16  17
ENDBRANCH   7  16
TORSDOF 4
ENDMDL
MODEL 7
REMARK VINA RESULT:      -7.1      4.463      8.149
REMARK  Name = 
REMARK  4 active torsions:
REMARK  status: ('A' for Active; 'I' for Inactive)
REMARK    1  A    between atoms: C_4  and  C_5
REMARK    2  A    between atoms: C_12  and  O_13
REMARK    3  A    between atoms: C_14  and  S_15
REMARK    4  A    between atoms: S_15  and  C_16
REMARK                            x       y       z     vdW  Elec       q    Type
REMARK                         _______ _______ _______ _____ _____    ______ ____
ROOT
ATOM      1  O   UNL     1       2.925   8.095  16.949  0.00  0.00    +0.000 OA
ATOM      2  C   UNL     1       2.523   7.739  18.058  0.00  0.00    +0.000 C 
ATOM      3  C   UNL     1       1.673   8.685  18.882  0.00  0.00    +0.000 C 
ATOM      4  C   UNL     1       1.795   8.419  20.383  0.00  0.00    +0.000 C 
ATOM      5  C   UNL     1       1.528   6.940  20.695  0.00  0.00    +0.000 C 
ATOM      6  C   UNL     1       2.318   6.014  19.810  0.00  0.00    +0.000 C 
ATOM      7  C   UNL     1       2.796   6.366  18.602  0.00  0.00    +0.000 C 
ENDROOT
BRANCH   4   8
ATOM      8  C   UNL     1       0.886   9.333  21.189  0.00  0.00    +0.000 A 
ATOM      9  C   UNL     1       0.479  10.582  20.690  0.00  0.00    +0.000 A 
ATOM     10  C   UNL     1      -0.345  11.420  21.443  0.00  0.00    +0.000 A 
ATOM     11  C   UNL     1      -0.775  11.026  22.705  0.00  0.00    +0.000 A 
ATOM     12  C   UNL     1      -0.385   9.788  23.214  0.00  0.00    +0.000 A 
ATOM     13  C   UNL     1       0.438   8.946  22.462  0.00  0.00    +0.000 A 
ENDBRANCH   4   8
BRANCH   6  14
ATOM     14  O   UNL     1       2.536   4.744  20.326  0.00  0.00    +0.000 OA
ATOM     15  H   UNL     1       2.071   4.087  19.780  0.00  0.00    +0.000 HD
ENDBRANCH   6  14
BRANCH   7  16
ATOM     16  S   UNL     1       3.739   5.302  17.612  0.00  0.00    +0.000 S 
BRANCH  16  17
ATOM     17  C   UNL     1       5.388   5.841  18.013  0.00  0.00    +0.000 A 
ATOM     18  N   UNL     1       6.034   6.709  17.208  0.00  0.00    +0.000 NA
ATOM     19  C   UNL     1       7.290   7.037  17.567  0.00  0.00    +0.000 A 
ATOM     20  C   UNL     1       7.923   6.537  18.681  0.00  0.00    +0.000 A 
ATOM     21  C   UNL     1       7.183   5.659  19.433  0.00  0.00    +0.000 A 
ATOM     22  N   UNL     1       5.927   5.294  19.122  0.00  0.00    +0.000 NA
ENDBRANCH  16  17
ENDBRANCH   7  16
TORSDOF 4
ENDMDL
MODEL 8
REMARK VINA RESULT:      -7.1      5.287      6.964
REMARK  Name = 
REMARK  4 active torsions:
REMARK  status: ('A' for Active; 'I' for Inactive)
REMARK    1  A    between atoms: C_4  and  C_5
REMARK    2  A    between atoms: C_12  and  O_13
REMARK    3  A    between atoms: C_14  and  S_15
REMARK    4  A    between atoms: S_15  and  C_16
REMARK                            x       y       z     vdW  Elec       q    Type
REMARK                         _______ _______ _______ _____ _____    ______ ____
ROOT
ATOM      1  O   UNL     1       0.659   8.749  21.729  0.00  0.00    +0.000 OA
ATOM      2  C   UNL     1       1.142   8.526  20.618  0.00  0.00    +0.000 C 
ATOM      3  C   UNL     1       1.608   7.125  20.276  0.00  0.00    +0.000 C 
ATOM      4  C   UNL     1       2.712   7.122  19.218  0.00  0.00    +0.000 C 
ATOM      5  C   UNL     1       2.285   7.932  17.986  0.00  0.00    +0.000 C 
ATOM      6  C   UNL     1       1.745   9.289  18.351  0.00  0.00    +0.000 C 
ATOM      7  C   UNL     1       1.230   9.586  19.559  0.00  0.00    +0.000 C 
ENDROOT
BRANCH   4   8
ATOM      8  C   UNL     1       3.120   5.706  18.840  0.00  0.00    +0.000 A 
ATOM      9  C   UNL     1       4.289   5.122  19.357  0.00  0.00    +0.000 A 
ATOM     10  C   UNL     1       4.663   3.827  18.994  0.00  0.00    +0.000 A 
ATOM     11  C   UNL     1       3.878   3.096  18.110  0.00  0.00    +0.000 A 
ATOM     12  C   UNL     1       2.712   3.658  17.591  0.00  0.00    +0.000 A 
ATOM     13  C   UNL     1       2.335   4.953  17.953  0.00  0.00    +0.000 A 
ENDBRANCH   4   8
BRANCH   6  14
ATOM     14  O   UNL     1       1.817  10.245  17.347  0.00  0.00    +0.000 OA
ATOM     15  H   UNL     1       2.713  10.249  16.967  0.00  0.00    +0.000 HD
ENDBRANCH   6  14
BRANCH   7  16
ATOM     16  S   UNL     1       0.651  11.165  19.976  0.00  0.00    +0.000 S 
BRANCH  16  17
ATOM     17  C   UNL     1      -0.956  11.148  19.210  0.00  0.00    +0.000 A 
ATOM     18  N   UNL     1      -1.904  12.025  19.599  0.00  0.00    +0.000 NA
ATOM     19  C   UNL     1      -3.102  11.920  18.992  0.00  0.00    +0.000 A 
ATOM     20  C   UNL     1      -3.391  10.985  18.027  0.00  0.00    +0.000 A 
ATOM     21  C   UNL     1      -2.362  10.136  17.703  0.00  0.00    +0.000 A 
ATOM     22  N   UNL     1      -1.148  10.192  18.278  0.00  0.00    +0.000 NA
ENDBRANCH  16  17
ENDBRANCH   7  16
TORSDOF 4
ENDMDL
MODEL 9
REMARK VINA RESULT:      -7.0      5.276      7.012
REMARK  Name = 
REMARK  4 active torsions:
REMARK  status: ('A' for Active; 'I' for Inactive)
REMARK    1  A    between atoms: C_4  and  C_5
REMARK    2  A    between atoms: C_12  and  O_13
REMARK    3  A    between atoms: C_14  and  S_15
REMARK    4  A    between atoms: S_15  and  C_16
REMARK                            x       y       z     vdW  Elec       q    Type
REMARK                         _______ _______ _______ _____ _____    ______ ____
ROOT
ATOM      1  O   UNL     1       0.661   8.723  21.706  0.00  0.00    +0.000 OA
ATOM      2  C   UNL     1       1.149   8.506  20.597  0.00  0.00    +0.000 C 
ATOM      3  C   UNL     1       1.609   7.106  20.245  0.00  0.00    +0.000 C 
ATOM      4  C   UNL     1       2.718   7.106  19.193  0.00  0.00    +0.000 C 
ATOM      5  C   UNL     1       2.302   7.929  17.966  0.00  0.00    +0.000 C 
ATOM      6  C   UNL     1       1.768   9.286  18.339  0.00  0.00    +0.000 C 
ATOM      7  C   UNL     1       1.247   9.575  19.546  0.00  0.00    +0.000 C 
ENDROOT
BRANCH   4   8
ATOM      8  C   UNL     1       3.121   5.691  18.805  0.00  0.00    +0.000 A 
ATOM      9  C   UNL     1       2.334   4.922  17.933  0.00  0.00    +0.000 A 
ATOM     10  C   UNL     1       2.705   3.620  17.593  0.00  0.00    +0.000 A 
ATOM     11  C   UNL     1       3.867   3.065  18.120  0.00  0.00    +0.000 A 
ATOM     12  C   UNL     1       4.663   3.817  18.983  0.00  0.00    +0.000 A 
ATOM     13  C   UNL     1       4.295   5.120  19.324  0.00  0.00    +0.000 A 
ENDBRANCH   4   8
BRANCH   6  14
ATOM     14  O   UNL     1       1.851  10.249  17.343  0.00  0.00    +0.000 OA
ATOM     15  H   UNL     1       2.773  10.327  17.042  0.00  0.00    +0.000 HD
ENDBRANCH   6  14
BRANCH   7  16
ATOM     16  S   UNL     1       0.675  11.153  19.974  0.00  0.00    +0.000 S 
BRANCH  16  17
ATOM     17  C   UNL     1      -0.935  11.145  19.214  0.00  0.00    +0.000 A 
ATOM     18  N   UNL     1      -1.880  12.021  19.615  0.00  0.00    +0.000 NA
ATOM     19  C   UNL     1      -3.080  11.922  19.011  0.00  0.00    +0.000 A 
ATOM     20  C   UNL     1      -3.375  10.995  18.039  0.00  0.00    +0.000 A 
ATOM     21  C   UNL     1      -2.348  10.148  17.705  0.00  0.00    +0.000 A 
ATOM     22  N   UNL     1      -1.131  10.198  18.275  0.00  0.00    +0.000 NA
ENDBRANCH  16  17
ENDBRANCH   7  16
TORSDOF 4
ENDMDL
