MODEL 1
REMARK VINA RESULT:      -5.8      0.000      0.000
REMARK  Name = 
REMARK  21 active torsions:
REMARK  status: ('A' for Active; 'I' for Inactive)
REMARK    1  A    between atoms: C_1  and  C_2
REMARK    2  A    between atoms: C_2  and  C_3
REMARK    3  A    between atoms: C_3  and  C_4
REMARK    4  A    between atoms: C_4  and  C_5
REMARK    5  A    between atoms: C_5  and  C_6
REMARK    6  A    between atoms: C_6  and  C_7
REMARK    7  A    between atoms: C_7  and  C_8
REMARK    8  A    between atoms: C_8  and  C_9
REMARK    9  A    between atoms: C_10  and  C_11
REMARK   10  A    between atoms: C_11  and  C_12
REMARK   11  A    between atoms: C_12  and  C_13
REMARK   12  A    between atoms: C_13  and  C_14
REMARK   13  A    between atoms: C_14  and  C_15
REMARK   14  A    between atoms: C_15  and  C_16
REMARK   15  A    between atoms: C_16  and  C_17
REMARK   16  A    between atoms: C_17  and  C_18
REMARK   17  A    between atoms: N_20  and  CA_21
REMARK   18  A    between atoms: CA_21  and  CB_22
REMARK   19  A    between atoms: CA_21  and  C_24
REMARK   20  A    between atoms: CB_22  and  OG_23
REMARK   21  A    between atoms: C_24  and  OXT_26
REMARK                            x       y       z     vdW  Elec       q    Type
REMARK                         _______ _______ _______ _____ _____    ______ ____
ROOT
ATOM      1  C   UNK A   0       1.219   8.705  18.227  0.00  0.00    +0.000 C 
ENDROOT
BRANCH   1   2
ATOM      2  C   UNK A   0       2.648   8.488  17.748  0.00  0.00    +0.000 C 
BRANCH   2   3
ATOM      3  C   UNK A   0       3.140   7.054  17.933  0.00  0.00    +0.000 C 
BRANCH   3   4
ATOM      4  C   UNK A   0       4.451   6.836  17.182  0.00  0.00    +0.000 C 
ATOM      5  O   UNK A   0       4.618   7.126  16.001  0.00  0.00    +0.000 OA
ATOM      6  N   SER A   1       5.458   6.320  17.958  0.00  0.00    +0.000 N 
ATOM      7  H   SER A   1       5.293   6.087  18.931  0.00  0.00    +0.000 HD
BRANCH   6   8
ATOM      8  CA  SER A   1       6.795   6.050  17.420  0.00  0.00    +0.000 C 
BRANCH   8   9
ATOM      9  C   SER A   1       7.222   4.628  17.789  0.00  0.00    +0.000 C 
ATOM     10  O   SER A   1       8.288   4.129  17.457  0.00  0.00    +0.000 OA
BRANCH   9  11
ATOM     11  OXT SER A   1       6.310   3.974  18.543  0.00  0.00    +0.000 OA
ATOM     12  HXT SER A   1       6.723   3.434  19.245  0.00  0.00    +0.000 HD
ENDBRANCH   9  11
ENDBRANCH   8   9
BRANCH   8  13
ATOM     13  CB  SER A   1       7.819   7.066  17.941  0.00  0.00    +0.000 C 
BRANCH  13  14
ATOM     14  OG  SER A   1       7.655   8.316  17.255  0.00  0.00    +0.000 OA
ATOM     15  H   SER A   1       8.432   8.434  16.664  0.00  0.00    +0.000 HD
ENDBRANCH  13  14
ENDBRANCH   8  13
ENDBRANCH   6   8
ENDBRANCH   3   4
ENDBRANCH   2   3
ENDBRANCH   1   2
BRANCH   1  16
ATOM     16  C   UNK A   0       1.235   9.472  19.548  0.00  0.00    +0.000 C 
BRANCH  16  17
ATOM     17  C   UNK A   0       1.192   8.517  20.723  0.00  0.00    +0.000 C 
BRANCH  17  18
ATOM     18  C   UNK A   0      -0.095   8.691  21.519  0.00  0.00    +0.000 C 
BRANCH  18  19
ATOM     19  C   UNK A   0       0.169   9.476  22.794  0.00  0.00    +0.000 C 
BRANCH  19  21
ATOM     20  C   UNK A   0      -1.121  11.620  22.720  0.00  0.00    +0.000 C 
ATOM     21  C   UNK A   0      -0.985  10.366  23.165  0.00  0.00    +0.000 C 
BRANCH  20  22
ATOM     22  C   UNK A   0      -0.129  12.236  21.787  0.00  0.00    +0.000 C 
BRANCH  22  23
ATOM     23  C   UNK A   0      -0.794  13.081  20.722  0.00  0.00    +0.000 C 
BRANCH  23  24
ATOM     24  C   UNK A   0      -1.677  12.196  19.855  0.00  0.00    +0.000 C 
BRANCH  24  25
ATOM     25  C   UNK A   0      -1.131  12.149  18.439  0.00  0.00    +0.000 C 
BRANCH  25  26
ATOM     26  C   UNK A   0      -2.180  11.608  17.480  0.00  0.00    +0.000 C 
BRANCH  26  27
ATOM     27  C   UNK A   0      -2.089  10.090  17.408  0.00  0.00    +0.000 C 
BRANCH  27  29
ATOM     28  C   UNK A   0      -3.103  10.722  15.212  0.00  0.00    +0.000 C 
ATOM     29  C   UNK A   0      -2.711   9.570  16.118  0.00  0.00    +0.000 C 
ENDBRANCH  27  29
ENDBRANCH  26  27
ENDBRANCH  25  26
ENDBRANCH  24  25
ENDBRANCH  23  24
ENDBRANCH  22  23
ENDBRANCH  20  22
ENDBRANCH  19  21
ENDBRANCH  18  19
ENDBRANCH  17  18
ENDBRANCH  16  17
ENDBRANCH   1  16
TORSDOF 20
ENDMDL
MODEL 2
REMARK VINA RESULT:      -5.8      4.221      8.595
REMARK  Name = 
REMARK  21 active torsions:
REMARK  status: ('A' for Active; 'I' for Inactive)
REMARK    1  A    between atoms: C_1  and  C_2
REMARK    2  A    between atoms: C_2  and  C_3
REMARK    3  A    between atoms: C_3  and  C_4
REMARK    4  A    between atoms: C_4  and  C_5
REMARK    5  A    between atoms: C_5  and  C_6
REMARK    6  A    between atoms: C_6  and  C_7
REMARK    7  A    between atoms: C_7  and  C_8
REMARK    8  A    between atoms: C_8  and  C_9
REMARK    9  A    between atoms: C_10  and  C_11
REMARK   10  A    between atoms: C_11  and  C_12
REMARK   11  A    between atoms: C_12  and  C_13
REMARK   12  A    between atoms: C_13  and  C_14
REMARK   13  A    between atoms: C_14  and  C_15
REMARK   14  A    between atoms: C_15  and  C_16
REMARK   15  A    between atoms: C_16  and  C_17
REMARK   16  A    between atoms: C_17  and  C_18
REMARK   17  A    between atoms: N_20  and  CA_21
REMARK   18  A    between atoms: CA_21  and  CB_22
REMARK   19  A    between atoms: CA_21  and  C_24
REMARK   20  A    between atoms: CB_22  and  OG_23
REMARK   21  A    between atoms: C_24  and  OXT_26
REMARK                            x       y       z     vdW  Elec       q    Type
REMARK                         _______ _______ _______ _____ _____    ______ ____
ROOT
ATOM      1  C   UNK A   0       2.632   6.770  19.655  0.00  0.00    +0.000 C 
ENDROOT
BRANCH   1   2
ATOM      2  C   UNK A   0       1.987   7.222  18.353  0.00  0.00    +0.000 C 
BRANCH   2   3
ATOM      3  C   UNK A   0       2.223   8.698  18.037  0.00  0.00    +0.000 C 
BRANCH   3   4
ATOM      4  C   UNK A   0       1.042   9.542  18.511  0.00  0.00    +0.000 C 
ATOM      5  O   UNK A   0       0.073   9.815  17.810  0.00  0.00    +0.000 OA
ATOM      6  N   SER A   1       1.135   9.945  19.819  0.00  0.00    +0.000 N 
ATOM      7  H   SER A   1       1.949   9.708  20.377  0.00  0.00    +0.000 HD
BRANCH   6   8
ATOM      8  CA  SER A   1       0.095  10.755  20.461  0.00  0.00    +0.000 C 
BRANCH   8   9
ATOM      9  C   SER A   1       0.476  12.235  20.390  0.00  0.00    +0.000 C 
ATOM     10  O   SER A   1      -0.103  13.055  19.692  0.00  0.00    +0.000 OA
BRANCH   9  11
ATOM     11  OXT SER A   1       1.512  12.560  21.195  0.00  0.00    +0.000 OA
ATOM     12  HXT SER A   1       1.873  13.448  21.001  0.00  0.00    +0.000 HD
ENDBRANCH   9  11
ENDBRANCH   8   9
BRANCH   8  13
ATOM     13  CB  SER A   1      -0.122  10.329  21.917  0.00  0.00    +0.000 C 
BRANCH  13  14
ATOM     14  OG  SER A   1       0.613   9.126  22.187  0.00  0.00    +0.000 OA
ATOM     15  H   SER A   1       0.133   8.383  21.760  0.00  0.00    +0.000 HD
ENDBRANCH  13  14
ENDBRANCH   8  13
ENDBRANCH   6   8
ENDBRANCH   3   4
ENDBRANCH   2   3
ENDBRANCH   1   2
BRANCH   1  16
ATOM     16  C   UNK A   0       1.640   5.921  20.448  0.00  0.00    +0.000 C 
BRANCH  16  17
ATOM     17  C   UNK A   0       2.264   4.600  20.848  0.00  0.00    +0.000 C 
BRANCH  17  18
ATOM     18  C   UNK A   0       1.207   3.508  20.948  0.00  0.00    +0.000 C 
BRANCH  18  19
ATOM     19  C   UNK A   0       1.493   2.395  19.952  0.00  0.00    +0.000 C 
BRANCH  19  21
ATOM     20  C   UNK A   0       2.217   2.844  17.599  0.00  0.00    +0.000 C 
ATOM     21  C   UNK A   0       1.259   2.829  18.531  0.00  0.00    +0.000 C 
BRANCH  20  22
ATOM     22  C   UNK A   0       3.614   2.403  17.896  0.00  0.00    +0.000 C 
BRANCH  22  23
ATOM     23  C   UNK A   0       4.545   3.574  18.132  0.00  0.00    +0.000 C 
BRANCH  23  24
ATOM     24  C   UNK A   0       4.299   4.636  17.071  0.00  0.00    +0.000 C 
BRANCH  24  25
ATOM     25  C   UNK A   0       5.217   5.822  17.305  0.00  0.00    +0.000 C 
BRANCH  25  26
ATOM     26  C   UNK A   0       6.012   6.136  16.046  0.00  0.00    +0.000 C 
BRANCH  26  27
ATOM     27  C   UNK A   0       6.894   4.953  15.675  0.00  0.00    +0.000 C 
BRANCH  27  29
ATOM     28  C   UNK A   0       5.881   3.835  13.681  0.00  0.00    +0.000 C 
ATOM     29  C   UNK A   0       6.964   4.782  14.163  0.00  0.00    +0.000 C 
ENDBRANCH  27  29
ENDBRANCH  26  27
ENDBRANCH  25  26
ENDBRANCH  24  25
ENDBRANCH  23  24
ENDBRANCH  22  23
ENDBRANCH  20  22
ENDBRANCH  19  21
ENDBRANCH  18  19
ENDBRANCH  17  18
ENDBRANCH  16  17
ENDBRANCH   1  16
TORSDOF 20
ENDMDL
MODEL 3
REMARK VINA RESULT:      -5.8      2.434      3.256
REMARK  Name = 
REMARK  21 active torsions:
REMARK  status: ('A' for Active; 'I' for Inactive)
REMARK    1  A    between atoms: C_1  and  C_2
REMARK    2  A    between atoms: C_2  and  C_3
REMARK    3  A    between atoms: C_3  and  C_4
REMARK    4  A    between atoms: C_4  and  C_5
REMARK    5  A    between atoms: C_5  and  C_6
REMARK    6  A    between atoms: C_6  and  C_7
REMARK    7  A    between atoms: C_7  and  C_8
REMARK    8  A    between atoms: C_8  and  C_9
REMARK    9  A    between atoms: C_10  and  C_11
REMARK   10  A    between atoms: C_11  and  C_12
REMARK   11  A    between atoms: C_12  and  C_13
REMARK   12  A    between atoms: C_13  and  C_14
REMARK   13  A    between atoms: C_14  and  C_15
REMARK   14  A    between atoms: C_15  and  C_16
REMARK   15  A    between atoms: C_16  and  C_17
REMARK   16  A    between atoms: C_17  and  C_18
REMARK   17  A    between atoms: N_20  and  CA_21
REMARK   18  A    between atoms: CA_21  and  CB_22
REMARK   19  A    between atoms: CA_21  and  C_24
REMARK   20  A    between atoms: CB_22  and  OG_23
REMARK   21  A    between atoms: C_24  and  OXT_26
REMARK                            x       y       z     vdW  Elec       q    Type
REMARK                         _______ _______ _______ _____ _____    ______ ____
ROOT
ATOM      1  C   UNK A   0       2.498   7.312  19.110  0.00  0.00    +0.000 C 
ENDROOT
BRANCH   1   2
ATOM      2  C   UNK A   0       3.112   6.502  17.977  0.00  0.00    +0.000 C 
BRANCH   2   3
ATOM      3  C   UNK A   0       4.619   6.300  18.121  0.00  0.00    +0.000 C 
BRANCH   3   4
ATOM      4  C   UNK A   0       4.918   4.965  18.798  0.00  0.00    +0.000 C 
ATOM      5  O   UNK A   0       5.974   4.710  19.369  0.00  0.00    +0.000 OA
ATOM      6  N   SER A   1       3.878   4.072  18.752  0.00  0.00    +0.000 N 
ATOM      7  H   SER A   1       3.016   4.306  18.271  0.00  0.00    +0.000 HD
BRANCH   6   8
ATOM      8  CA  SER A   1       3.968   2.738  19.356  0.00  0.00    +0.000 C 
BRANCH   8   9
ATOM      9  C   SER A   1       3.440   1.691  18.374  0.00  0.00    +0.000 C 
ATOM     10  O   SER A   1       2.500   1.881  17.616  0.00  0.00    +0.000 OA
BRANCH   9  11
ATOM     11  OXT SER A   1       4.130   0.529  18.408  0.00  0.00    +0.000 OA
ATOM     12  HXT SER A   1       5.092   0.661  18.289  0.00  0.00    +0.000 HD
ENDBRANCH   9  11
ENDBRANCH   8   9
BRANCH   8  13
ATOM     13  CB  SER A   1       3.192   2.672  20.676  0.00  0.00    +0.000 C 
BRANCH  13  14
ATOM     14  OG  SER A   1       2.206   3.715  20.713  0.00  0.00    +0.000 OA
ATOM     15  H   SER A   1       1.855   3.759  21.630  0.00  0.00    +0.000 HD
ENDBRANCH  13  14
ENDBRANCH   8  13
ENDBRANCH   6   8
ENDBRANCH   3   4
ENDBRANCH   2   3
ENDBRANCH   1   2
BRANCH   1  16
ATOM     16  C   UNK A   0       1.805   8.547  18.537  0.00  0.00    +0.000 C 
BRANCH  16  17
ATOM     17  C   UNK A   0       1.203   9.387  19.645  0.00  0.00    +0.000 C 
BRANCH  17  18
ATOM     18  C   UNK A   0       0.889   8.532  20.866  0.00  0.00    +0.000 C 
BRANCH  18  19
ATOM     19  C   UNK A   0       1.100   9.330  22.144  0.00  0.00    +0.000 C 
BRANCH  19  21
ATOM     20  C   UNK A   0      -0.922  10.542  22.985  0.00  0.00    +0.000 C 
ATOM     21  C   UNK A   0      -0.160   9.443  22.958  0.00  0.00    +0.000 C 
BRANCH  20  22
ATOM     22  C   UNK A   0      -0.586  11.755  22.179  0.00  0.00    +0.000 C 
BRANCH  22  23
ATOM     23  C   UNK A   0      -1.383  11.825  20.894  0.00  0.00    +0.000 C 
BRANCH  23  24
ATOM     24  C   UNK A   0      -0.556  12.521  19.824  0.00  0.00    +0.000 C 
BRANCH  24  25
ATOM     25  C   UNK A   0      -1.092  12.172  18.447  0.00  0.00    +0.000 C 
BRANCH  25  26
ATOM     26  C   UNK A   0      -2.009  10.960  18.524  0.00  0.00    +0.000 C 
BRANCH  26  27
ATOM     27  C   UNK A   0      -1.758  10.039  17.338  0.00  0.00    +0.000 C 
BRANCH  27  29
ATOM     28  C   UNK A   0      -3.963  10.880  16.513  0.00  0.00    +0.000 C 
ATOM     29  C   UNK A   0      -2.549  10.497  16.120  0.00  0.00    +0.000 C 
ENDBRANCH  27  29
ENDBRANCH  26  27
ENDBRANCH  25  26
ENDBRANCH  24  25
ENDBRANCH  23  24
ENDBRANCH  22  23
ENDBRANCH  20  22
ENDBRANCH  19  21
ENDBRANCH  18  19
ENDBRANCH  17  18
ENDBRANCH  16  17
ENDBRANCH   1  16
TORSDOF 20
ENDMDL
MODEL 4
REMARK VINA RESULT:      -5.7      4.644      9.085
REMARK  Name = 
REMARK  21 active torsions:
REMARK  status: ('A' for Active; 'I' for Inactive)
REMARK    1  A    between atoms: C_1  and  C_2
REMARK    2  A    between atoms: C_2  and  C_3
REMARK    3  A    between atoms: C_3  and  C_4
REMARK    4  A    between atoms: C_4  and  C_5
REMARK    5  A    between atoms: C_5  and  C_6
REMARK    6  A    between atoms: C_6  and  C_7
REMARK    7  A    between atoms: C_7  and  C_8
REMARK    8  A    between atoms: C_8  and  C_9
REMARK    9  A    between atoms: C_10  and  C_11
REMARK   10  A    between atoms: C_11  and  C_12
REMARK   11  A    between atoms: C_12  and  C_13
REMARK   12  A    between atoms: C_13  and  C_14
REMARK   13  A    between atoms: C_14  and  C_15
REMARK   14  A    between atoms: C_15  and  C_16
REMARK   15  A    between atoms: C_16  and  C_17
REMARK   16  A    between atoms: C_17  and  C_18
REMARK   17  A    between atoms: N_20  and  CA_21
REMARK   18  A    between atoms: CA_21  and  CB_22
REMARK   19  A    between atoms: CA_21  and  C_24
REMARK   20  A    between atoms: CB_22  and  OG_23
REMARK   21  A    between atoms: C_24  and  OXT_26
REMARK                            x       y       z     vdW  Elec       q    Type
REMARK                         _______ _______ _______ _____ _____    ______ ____
ROOT
ATOM      1  C   UNK A   0       1.147   4.342  19.539  0.00  0.00    +0.000 C 
ENDROOT
BRANCH   1   2
ATOM      2  C   UNK A   0       1.983   5.330  20.341  0.00  0.00    +0.000 C 
BRANCH   2   3
ATOM      3  C   UNK A   0       2.581   6.449  19.492  0.00  0.00    +0.000 C 
BRANCH   3   4
ATOM      4  C   UNK A   0       1.815   7.752  19.707  0.00  0.00    +0.000 C 
ATOM      5  O   UNK A   0       1.751   8.652  18.874  0.00  0.00    +0.000 OA
ATOM      6  N   SER A   1       1.158   7.821  20.909  0.00  0.00    +0.000 N 
ATOM      7  H   SER A   1       1.229   7.064  21.581  0.00  0.00    +0.000 HD
BRANCH   6   8
ATOM      8  CA  SER A   1       0.359   8.988  21.295  0.00  0.00    +0.000 C 
BRANCH   8   9
ATOM      9  C   SER A   1       1.258  10.032  21.959  0.00  0.00    +0.000 C 
ATOM     10  O   SER A   1       1.222  11.227  21.698  0.00  0.00    +0.000 OA
BRANCH   9  11
ATOM     11  OXT SER A   1       2.090   9.510  22.887  0.00  0.00    +0.000 OA
ATOM     12  HXT SER A   1       1.725   9.566  23.792  0.00  0.00    +0.000 HD
ENDBRANCH   9  11
ENDBRANCH   8   9
BRANCH   8  13
ATOM     13  CB  SER A   1      -0.785   8.592  22.236  0.00  0.00    +0.000 C 
BRANCH  13  14
ATOM     14  OG  SER A   1      -0.846   9.507  23.339  0.00  0.00    +0.000 OA
ATOM     15  H   SER A   1      -0.870   8.976  24.165  0.00  0.00    +0.000 HD
ENDBRANCH  13  14
ENDBRANCH   8  13
ENDBRANCH   6   8
ENDBRANCH   3   4
ENDBRANCH   2   3
ENDBRANCH   1   2
BRANCH   1  16
ATOM     16  C   UNK A   0       1.184   2.974  20.218  0.00  0.00    +0.000 C 
BRANCH  16  17
ATOM     17  C   UNK A   0       1.931   1.971  19.363  0.00  0.00    +0.000 C 
BRANCH  17  18
ATOM     18  C   UNK A   0       2.148   2.511  17.955  0.00  0.00    +0.000 C 
BRANCH  18  19
ATOM     19  C   UNK A   0       3.632   2.578  17.632  0.00  0.00    +0.000 C 
BRANCH  19  21
ATOM     20  C   UNK A   0       5.271   3.824  19.056  0.00  0.00    +0.000 C 
ATOM     21  C   UNK A   0       4.474   2.766  18.863  0.00  0.00    +0.000 C 
BRANCH  20  22
ATOM     22  C   UNK A   0       5.370   4.928  18.054  0.00  0.00    +0.000 C 
BRANCH  22  23
ATOM     23  C   UNK A   0       6.308   4.585  16.917  0.00  0.00    +0.000 C 
BRANCH  23  24
ATOM     24  C   UNK A   0       6.019   5.494  15.732  0.00  0.00    +0.000 C 
BRANCH  24  25
ATOM     25  C   UNK A   0       5.408   4.689  14.599  0.00  0.00    +0.000 C 
BRANCH  25  26
ATOM     26  C   UNK A   0       6.432   3.725  14.018  0.00  0.00    +0.000 C 
BRANCH  26  27
ATOM     27  C   UNK A   0       6.461   3.847  12.500  0.00  0.00    +0.000 C 
BRANCH  27  29
ATOM     28  C   UNK A   0       5.786   1.708  11.394  0.00  0.00    +0.000 C 
ATOM     29  C   UNK A   0       5.312   3.068  11.872  0.00  0.00    +0.000 C 
ENDBRANCH  27  29
ENDBRANCH  26  27
ENDBRANCH  25  26
ENDBRANCH  24  25
ENDBRANCH  23  24
ENDBRANCH  22  23
ENDBRANCH  20  22
ENDBRANCH  19  21
ENDBRANCH  18  19
ENDBRANCH  17  18
ENDBRANCH  16  17
ENDBRANCH   1  16
TORSDOF 20
ENDMDL
MODEL 5
REMARK VINA RESULT:      -5.7      4.526      7.745
REMARK  Name = 
REMARK  21 active torsions:
REMARK  status: ('A' for Active; 'I' for Inactive)
REMARK    1  A    between atoms: C_1  and  C_2
REMARK    2  A    between atoms: C_2  and  C_3
REMARK    3  A    between atoms: C_3  and  C_4
REMARK    4  A    between atoms: C_4  and  C_5
REMARK    5  A    between atoms: C_5  and  C_6
REMARK    6  A    between atoms: C_6  and  C_7
REMARK    7  A    between atoms: C_7  and  C_8
REMARK    8  A    between atoms: C_8  and  C_9
REMARK    9  A    between atoms: C_10  and  C_11
REMARK   10  A    between atoms: C_11  and  C_12
REMARK   11  A    between atoms: C_12  and  C_13
REMARK   12  A    between atoms: C_13  and  C_14
REMARK   13  A    between atoms: C_14  and  C_15
REMARK   14  A    between atoms: C_15  and  C_16
REMARK   15  A    between atoms: C_16  and  C_17
REMARK   16  A    between atoms: C_17  and  C_18
REMARK   17  A    between atoms: N_20  and  CA_21
REMARK   18  A    between atoms: CA_21  and  CB_22
REMARK   19  A    between atoms: CA_21  and  C_24
REMARK   20  A    between atoms: CB_22  and  OG_23
REMARK   21  A    between atoms: C_24  and  OXT_26
REMARK                            x       y       z     vdW  Elec       q    Type
REMARK                         _______ _______ _______ _____ _____    ______ ____
ROOT
ATOM      1  C   UNK A   0       7.270   5.572  17.383  0.00  0.00    +0.000 C 
ENDROOT
BRANCH   1   2
ATOM      2  C   UNK A   0       7.348   7.091  17.456  0.00  0.00    +0.000 C 
BRANCH   2   3
ATOM      3  C   UNK A   0       8.319   7.600  18.519  0.00  0.00    +0.000 C 
BRANCH   3   4
ATOM      4  C   UNK A   0       8.464   9.117  18.430  0.00  0.00    +0.000 C 
ATOM      5  O   UNK A   0       7.951   9.801  17.549  0.00  0.00    +0.000 OA
ATOM      6  N   SER A   1       9.193   9.667  19.453  0.00  0.00    +0.000 N 
ATOM      7  H   SER A   1       9.608   9.079  20.167  0.00  0.00    +0.000 HD
BRANCH   6   8
ATOM      8  CA  SER A   1       9.435  11.111  19.549  0.00  0.00    +0.000 C 
BRANCH   8   9
ATOM      9  C   SER A   1      10.725  11.468  18.809  0.00  0.00    +0.000 C 
ATOM     10  O   SER A   1      11.835  11.440  19.322  0.00  0.00    +0.000 OA
BRANCH   9  11
ATOM     11  OXT SER A   1      10.526  11.800  17.514  0.00  0.00    +0.000 OA
ATOM     12  HXT SER A   1       9.727  11.380  17.138  0.00  0.00    +0.000 HD
ENDBRANCH   9  11
ENDBRANCH   8   9
BRANCH   8  13
ATOM     13  CB  SER A   1       9.514  11.565  21.011  0.00  0.00    +0.000 C 
BRANCH  13  14
ATOM     14  OG  SER A   1      10.288  12.770  21.104  0.00  0.00    +0.000 OA
ATOM     15  H   SER A   1      10.409  13.117  20.193  0.00  0.00    +0.000 HD
ENDBRANCH  13  14
ENDBRANCH   8  13
ENDBRANCH   6   8
ENDBRANCH   3   4
ENDBRANCH   2   3
ENDBRANCH   1   2
BRANCH   1  16
ATOM     16  C   UNK A   0       6.856   5.149  15.975  0.00  0.00    +0.000 C 
BRANCH  16  17
ATOM     17  C   UNK A   0       5.976   3.918  16.022  0.00  0.00    +0.000 C 
BRANCH  17  18
ATOM     18  C   UNK A   0       4.523   4.297  16.281  0.00  0.00    +0.000 C 
BRANCH  18  19
ATOM     19  C   UNK A   0       4.094   3.846  17.668  0.00  0.00    +0.000 C 
BRANCH  19  21
ATOM     20  C   UNK A   0       3.360   1.738  18.801  0.00  0.00    +0.000 C 
ATOM     21  C   UNK A   0       3.612   2.421  17.679  0.00  0.00    +0.000 C 
BRANCH  20  22
ATOM     22  C   UNK A   0       3.520   2.356  20.153  0.00  0.00    +0.000 C 
BRANCH  22  23
ATOM     23  C   UNK A   0       2.190   2.718  20.776  0.00  0.00    +0.000 C 
BRANCH  23  24
ATOM     24  C   UNK A   0       2.232   4.162  21.254  0.00  0.00    +0.000 C 
BRANCH  24  25
ATOM     25  C   UNK A   0       1.709   5.082  20.166  0.00  0.00    +0.000 C 
BRANCH  25  26
ATOM     26  C   UNK A   0       1.526   6.493  20.703  0.00  0.00    +0.000 C 
BRANCH  26  27
ATOM     27  C   UNK A   0       2.194   7.497  19.774  0.00  0.00    +0.000 C 
BRANCH  27  29
ATOM     28  C   UNK A   0       3.515   7.537  17.652  0.00  0.00    +0.000 C 
ATOM     29  C   UNK A   0       2.322   6.930  18.366  0.00  0.00    +0.000 C 
ENDBRANCH  27  29
ENDBRANCH  26  27
ENDBRANCH  25  26
ENDBRANCH  24  25
ENDBRANCH  23  24
ENDBRANCH  22  23
ENDBRANCH  20  22
ENDBRANCH  19  21
ENDBRANCH  18  19
ENDBRANCH  17  18
ENDBRANCH  16  17
ENDBRANCH   1  16
TORSDOF 20
ENDMDL
MODEL 6
REMARK VINA RESULT:      -5.7      4.440      8.897
REMARK  Name = 
REMARK  21 active torsions:
REMARK  status: ('A' for Active; 'I' for Inactive)
REMARK    1  A    between atoms: C_1  and  C_2
REMARK    2  A    between atoms: C_2  and  C_3
REMARK    3  A    between atoms: C_3  and  C_4
REMARK    4  A    between atoms: C_4  and  C_5
REMARK    5  A    between atoms: C_5  and  C_6
REMARK    6  A    between atoms: C_6  and  C_7
REMARK    7  A    between atoms: C_7  and  C_8
REMARK    8  A    between atoms: C_8  and  C_9
REMARK    9  A    between atoms: C_10  and  C_11
REMARK   10  A    between atoms: C_11  and  C_12
REMARK   11  A    between atoms: C_12  and  C_13
REMARK   12  A    between atoms: C_13  and  C_14
REMARK   13  A    between atoms: C_14  and  C_15
REMARK   14  A    between atoms: C_15  and  C_16
REMARK   15  A    between atoms: C_16  and  C_17
REMARK   16  A    between atoms: C_17  and  C_18
REMARK   17  A    between atoms: N_20  and  CA_21
REMARK   18  A    between atoms: CA_21  and  CB_22
REMARK   19  A    between atoms: CA_21  and  C_24
REMARK   20  A    between atoms: CB_22  and  OG_23
REMARK   21  A    between atoms: C_24  and  OXT_26
REMARK                            x       y       z     vdW  Elec       q    Type
REMARK                         _______ _______ _______ _____ _____    ______ ____
ROOT
ATOM      1  C   UNK A   0       2.366   6.897  18.216  0.00  0.00    +0.000 C 
ENDROOT
BRANCH   1   2
ATOM      2  C   UNK A   0       2.608   8.387  18.014  0.00  0.00    +0.000 C 
BRANCH   2   3
ATOM      3  C   UNK A   0       1.333   9.175  17.719  0.00  0.00    +0.000 C 
BRANCH   3   4
ATOM      4  C   UNK A   0       0.947  10.037  18.918  0.00  0.00    +0.000 C 
ATOM      5  O   UNK A   0       1.087   9.685  20.086  0.00  0.00    +0.000 OA
ATOM      6  N   SER A   1       0.462  11.275  18.581  0.00  0.00    +0.000 N 
ATOM      7  H   SER A   1       0.354  11.540  17.607  0.00  0.00    +0.000 HD
BRANCH   6   8
ATOM      8  CA  SER A   1       0.047  12.252  19.593  0.00  0.00    +0.000 C 
BRANCH   8   9
ATOM      9  C   SER A   1      -1.286  11.824  20.207  0.00  0.00    +0.000 C 
ATOM     10  O   SER A   1      -2.360  11.905  19.628  0.00  0.00    +0.000 OA
BRANCH   9  11
ATOM     11  OXT SER A   1      -1.164  11.322  21.456  0.00  0.00    +0.000 OA
ATOM     12  HXT SER A   1      -1.271  12.006  22.147  0.00  0.00    +0.000 HD
ENDBRANCH   9  11
ENDBRANCH   8   9
BRANCH   8  13
ATOM     13  CB  SER A   1      -0.068  13.658  18.993  0.00  0.00    +0.000 C 
BRANCH  13  14
ATOM     14  OG  SER A   1      -0.852  13.612  17.792  0.00  0.00    +0.000 OA
ATOM     15  H   SER A   1      -1.665  14.141  17.948  0.00  0.00    +0.000 HD
ENDBRANCH  13  14
ENDBRANCH   8  13
ENDBRANCH   6   8
ENDBRANCH   3   4
ENDBRANCH   2   3
ENDBRANCH   1   2
BRANCH   1  16
ATOM     16  C   UNK A   0       2.547   6.546  19.691  0.00  0.00    +0.000 C 
BRANCH  16  17
ATOM     17  C   UNK A   0       1.692   5.354  20.068  0.00  0.00    +0.000 C 
BRANCH  17  18
ATOM     18  C   UNK A   0       2.227   4.676  21.323  0.00  0.00    +0.000 C 
BRANCH  18  19
ATOM     19  C   UNK A   0       2.481   3.199  21.065  0.00  0.00    +0.000 C 
BRANCH  19  21
ATOM     20  C   UNK A   0       1.532   2.053  19.052  0.00  0.00    +0.000 C 
ATOM     21  C   UNK A   0       1.369   2.560  20.279  0.00  0.00    +0.000 C 
BRANCH  20  22
ATOM     22  C   UNK A   0       2.859   2.065  18.364  0.00  0.00    +0.000 C 
BRANCH  22  23
ATOM     23  C   UNK A   0       2.835   2.881  17.089  0.00  0.00    +0.000 C 
BRANCH  23  24
ATOM     24  C   UNK A   0       3.811   4.041  17.213  0.00  0.00    +0.000 C 
BRANCH  24  25
ATOM     25  C   UNK A   0       4.775   3.785  18.357  0.00  0.00    +0.000 C 
BRANCH  25  26
ATOM     26  C   UNK A   0       5.596   5.032  18.651  0.00  0.00    +0.000 C 
BRANCH  26  27
ATOM     27  C   UNK A   0       7.071   4.760  18.391  0.00  0.00    +0.000 C 
BRANCH  27  29
ATOM     28  C   UNK A   0       6.956   5.778  16.110  0.00  0.00    +0.000 C 
ATOM     29  C   UNK A   0       7.328   4.540  16.905  0.00  0.00    +0.000 C 
ENDBRANCH  27  29
ENDBRANCH  26  27
ENDBRANCH  25  26
ENDBRANCH  24  25
ENDBRANCH  23  24
ENDBRANCH  22  23
ENDBRANCH  20  22
ENDBRANCH  19  21
ENDBRANCH  18  19
ENDBRANCH  17  18
ENDBRANCH  16  17
ENDBRANCH   1  16
TORSDOF 20
ENDMDL
MODEL 7
REMARK VINA RESULT:      -5.7      6.616      9.550
REMARK  Name = 
REMARK  21 active torsions:
REMARK  status: ('A' for Active; 'I' for Inactive)
REMARK    1  A    between atoms: C_1  and  C_2
REMARK    2  A    between atoms: C_2  and  C_3
REMARK    3  A    between atoms: C_3  and  C_4
REMARK    4  A    between atoms: C_4  and  C_5
REMARK    5  A    between atoms: C_5  and  C_6
REMARK    6  A    between atoms: C_6  and  C_7
REMARK    7  A    between atoms: C_7  and  C_8
REMARK    8  A    between atoms: C_8  and  C_9
REMARK    9  A    between atoms: C_10  and  C_11
REMARK   10  A    between atoms: C_11  and  C_12
REMARK   11  A    between atoms: C_12  and  C_13
REMARK   12  A    between atoms: C_13  and  C_14
REMARK   13  A    between atoms: C_14  and  C_15
REMARK   14  A    between atoms: C_15  and  C_16
REMARK   15  A    between atoms: C_16  and  C_17
REMARK   16  A    between atoms: C_17  and  C_18
REMARK   17  A    between atoms: N_20  and  CA_21
REMARK   18  A    between atoms: CA_21  and  CB_22
REMARK   19  A    between atoms: CA_21  and  C_24
REMARK   20  A    between atoms: CB_22  and  OG_23
REMARK   21  A    between atoms: C_24  and  OXT_26
REMARK                            x       y       z     vdW  Elec       q    Type
REMARK                         _______ _______ _______ _____ _____    ______ ____
ROOT
ATOM      1  C   UNK A   0       8.044   9.876  18.077  0.00  0.00    +0.000 C 
ENDROOT
BRANCH   1   2
ATOM      2  C   UNK A   0       9.346  10.123  18.826  0.00  0.00    +0.000 C 
BRANCH   2   3
ATOM      3  C   UNK A   0      10.347  10.970  18.044  0.00  0.00    +0.000 C 
BRANCH   3   4
ATOM      4  C   UNK A   0      10.441  12.373  18.638  0.00  0.00    +0.000 C 
ATOM      5  O   UNK A   0      10.453  12.605  19.843  0.00  0.00    +0.000 OA
ATOM      6  N   SER A   1      10.554  13.368  17.701  0.00  0.00    +0.000 N 
ATOM      7  H   SER A   1      10.539  13.150  16.710  0.00  0.00    +0.000 HD
BRANCH   6   8
ATOM      8  CA  SER A   1      10.667  14.782  18.075  0.00  0.00    +0.000 C 
BRANCH   8   9
ATOM      9  C   SER A   1       9.273  15.368  18.305  0.00  0.00    +0.000 C 
ATOM     10  O   SER A   1       8.248  14.891  17.837  0.00  0.00    +0.000 OA
BRANCH   9  11
ATOM     11  OXT SER A   1       9.275  16.461  19.099  0.00  0.00    +0.000 OA
ATOM     12  HXT SER A   1       8.483  16.511  19.670  0.00  0.00    +0.000 HD
ENDBRANCH   9  11
ENDBRANCH   8   9
BRANCH   8  13
ATOM     13  CB  SER A   1      11.413  15.583  17.002  0.00  0.00    +0.000 C 
BRANCH  13  14
ATOM     14  OG  SER A   1      10.483  16.385  16.259  0.00  0.00    +0.000 OA
ATOM     15  H   SER A   1      10.998  16.912  15.609  0.00  0.00    +0.000 HD
ENDBRANCH  13  14
ENDBRANCH   8  13
ENDBRANCH   6   8
ENDBRANCH   3   4
ENDBRANCH   2   3
ENDBRANCH   1   2
BRANCH   1  16
ATOM     16  C   UNK A   0       8.048   8.463  17.498  0.00  0.00    +0.000 C 
BRANCH  16  17
ATOM     17  C   UNK A   0       8.156   7.432  18.603  0.00  0.00    +0.000 C 
BRANCH  17  18
ATOM     18  C   UNK A   0       7.576   6.095  18.158  0.00  0.00    +0.000 C 
BRANCH  18  19
ATOM     19  C   UNK A   0       6.942   6.221  16.782  0.00  0.00    +0.000 C 
BRANCH  19  21
ATOM     20  C   UNK A   0       5.731   4.098  16.241  0.00  0.00    +0.000 C 
ATOM     21  C   UNK A   0       6.799   4.890  16.096  0.00  0.00    +0.000 C 
BRANCH  20  22
ATOM     22  C   UNK A   0       4.567   4.492  17.092  0.00  0.00    +0.000 C 
BRANCH  22  23
ATOM     23  C   UNK A   0       4.540   3.740  18.405  0.00  0.00    +0.000 C 
BRANCH  23  24
ATOM     24  C   UNK A   0       3.666   2.503  18.262  0.00  0.00    +0.000 C 
BRANCH  24  25
ATOM     25  C   UNK A   0       2.252   2.910  17.893  0.00  0.00    +0.000 C 
BRANCH  25  26
ATOM     26  C   UNK A   0       1.242   2.169  18.756  0.00  0.00    +0.000 C 
BRANCH  26  27
ATOM     27  C   UNK A   0       1.063   2.889  20.086  0.00  0.00    +0.000 C 
BRANCH  27  29
ATOM     28  C   UNK A   0       2.203   4.940  20.950  0.00  0.00    +0.000 C 
ATOM     29  C   UNK A   0       1.237   4.392  19.916  0.00  0.00    +0.000 C 
ENDBRANCH  27  29
ENDBRANCH  26  27
ENDBRANCH  25  26
ENDBRANCH  24  25
ENDBRANCH  23  24
ENDBRANCH  22  23
ENDBRANCH  20  22
ENDBRANCH  19  21
ENDBRANCH  18  19
ENDBRANCH  17  18
ENDBRANCH  16  17
ENDBRANCH   1  16
TORSDOF 20
ENDMDL
MODEL 8
REMARK VINA RESULT:      -5.7      6.236      8.799
REMARK  Name = 
REMARK  21 active torsions:
REMARK  status: ('A' for Active; 'I' for Inactive)
REMARK    1  A    between atoms: C_1  and  C_2
REMARK    2  A    between atoms: C_2  and  C_3
REMARK    3  A    between atoms: C_3  and  C_4
REMARK    4  A    between atoms: C_4  and  C_5
REMARK    5  A    between atoms: C_5  and  C_6
REMARK    6  A    between atoms: C_6  and  C_7
REMARK    7  A    between atoms: C_7  and  C_8
REMARK    8  A    between atoms: C_8  and  C_9
REMARK    9  A    between atoms: C_10  and  C_11
REMARK   10  A    between atoms: C_11  and  C_12
REMARK   11  A    between atoms: C_12  and  C_13
REMARK   12  A    between atoms: C_13  and  C_14
REMARK   13  A    between atoms: C_14  and  C_15
REMARK   14  A    between atoms: C_15  and  C_16
REMARK   15  A    between atoms: C_16  and  C_17
REMARK   16  A    between atoms: C_17  and  C_18
REMARK   17  A    between atoms: N_20  and  CA_21
REMARK   18  A    between atoms: CA_21  and  CB_22
REMARK   19  A    between atoms: CA_21  and  C_24
REMARK   20  A    between atoms: CB_22  and  OG_23
REMARK   21  A    between atoms: C_24  and  OXT_26
REMARK                            x       y       z     vdW  Elec       q    Type
REMARK                         _______ _______ _______ _____ _____    ______ ____
ROOT
ATOM      1  C   UNK A   0       7.958   8.745  17.820  0.00  0.00    +0.000 C 
ENDROOT
BRANCH   1   2
ATOM      2  C   UNK A   0       9.148   9.458  18.448  0.00  0.00    +0.000 C 
BRANCH   2   3
ATOM      3  C   UNK A   0       8.770  10.747  19.173  0.00  0.00    +0.000 C 
BRANCH   3   4
ATOM      4  C   UNK A   0       9.317  11.962  18.426  0.00  0.00    +0.000 C 
ATOM      5  O   UNK A   0       8.826  12.405  17.392  0.00  0.00    +0.000 OA
ATOM      6  N   SER A   1      10.393  12.554  19.037  0.00  0.00    +0.000 N 
ATOM      7  H   SER A   1      10.780  12.166  19.891  0.00  0.00    +0.000 HD
BRANCH   6   8
ATOM      8  CA  SER A   1      11.051  13.739  18.479  0.00  0.00    +0.000 C 
BRANCH   8   9
ATOM      9  C   SER A   1      10.070  14.913  18.460  0.00  0.00    +0.000 C 
ATOM     10  O   SER A   1       9.703  15.510  19.462  0.00  0.00    +0.000 OA
BRANCH   9  11
ATOM     11  OXT SER A   1       9.658  15.246  17.217  0.00  0.00    +0.000 OA
ATOM     12  HXT SER A   1       8.689  15.365  17.162  0.00  0.00    +0.000 HD
ENDBRANCH   9  11
ENDBRANCH   8   9
BRANCH   8  13
ATOM     13  CB  SER A   1      11.585  13.467  17.068  0.00  0.00    +0.000 C 
BRANCH  13  14
ATOM     14  OG  SER A   1      12.137  12.144  17.004  0.00  0.00    +0.000 OA
ATOM     15  H   SER A   1      12.935  12.127  17.579  0.00  0.00    +0.000 HD
ENDBRANCH  13  14
ENDBRANCH   8  13
ENDBRANCH   6   8
ENDBRANCH   3   4
ENDBRANCH   2   3
ENDBRANCH   1   2
BRANCH   1  16
ATOM     16  C   UNK A   0       7.945   7.285  18.267  0.00  0.00    +0.000 C 
BRANCH  16  17
ATOM     17  C   UNK A   0       7.241   6.417  17.245  0.00  0.00    +0.000 C 
BRANCH  17  18
ATOM     18  C   UNK A   0       5.973   7.093  16.738  0.00  0.00    +0.000 C 
BRANCH  18  19
ATOM     19  C   UNK A   0       4.777   6.167  16.894  0.00  0.00    +0.000 C 
BRANCH  19  21
ATOM     20  C   UNK A   0       4.227   5.511  19.246  0.00  0.00    +0.000 C 
ATOM     21  C   UNK A   0       4.082   6.351  18.215  0.00  0.00    +0.000 C 
BRANCH  20  22
ATOM     22  C   UNK A   0       5.122   4.316  19.169  0.00  0.00    +0.000 C 
BRANCH  22  23
ATOM     23  C   UNK A   0       4.342   3.019  19.140  0.00  0.00    +0.000 C 
BRANCH  23  24
ATOM     24  C   UNK A   0       3.962   2.690  17.704  0.00  0.00    +0.000 C 
BRANCH  24  25
ATOM     25  C   UNK A   0       2.522   2.214  17.647  0.00  0.00    +0.000 C 
BRANCH  25  26
ATOM     26  C   UNK A   0       1.583   3.292  18.169  0.00  0.00    +0.000 C 
BRANCH  26  27
ATOM     27  C   UNK A   0       0.645   2.706  19.215  0.00  0.00    +0.000 C 
BRANCH  27  29
ATOM     28  C   UNK A   0       1.283   4.663  20.635  0.00  0.00    +0.000 C 
ATOM     29  C   UNK A   0       1.039   3.166  20.613  0.00  0.00    +0.000 C 
ENDBRANCH  27  29
ENDBRANCH  26  27
ENDBRANCH  25  26
ENDBRANCH  24  25
ENDBRANCH  23  24
ENDBRANCH  22  23
ENDBRANCH  20  22
ENDBRANCH  19  21
ENDBRANCH  18  19
ENDBRANCH  17  18
ENDBRANCH  16  17
ENDBRANCH   1  16
TORSDOF 20
ENDMDL
MODEL 9
REMARK VINA RESULT:      -5.7      4.259      8.827
REMARK  Name = 
REMARK  21 active torsions:
REMARK  status: ('A' for Active; 'I' for Inactive)
REMARK    1  A    between atoms: C_1  and  C_2
REMARK    2  A    between atoms: C_2  and  C_3
REMARK    3  A    between atoms: C_3  and  C_4
REMARK    4  A    between atoms: C_4  and  C_5
REMARK    5  A    between atoms: C_5  and  C_6
REMARK    6  A    between atoms: C_6  and  C_7
REMARK    7  A    between atoms: C_7  and  C_8
REMARK    8  A    between atoms: C_8  and  C_9
REMARK    9  A    between atoms: C_10  and  C_11
REMARK   10  A    between atoms: C_11  and  C_12
REMARK   11  A    between atoms: C_12  and  C_13
REMARK   12  A    between atoms: C_13  and  C_14
REMARK   13  A    between atoms: C_14  and  C_15
REMARK   14  A    between atoms: C_15  and  C_16
REMARK   15  A    between atoms: C_16  and  C_17
REMARK   16  A    between atoms: C_17  and  C_18
REMARK   17  A    between atoms: N_20  and  CA_21
REMARK   18  A    between atoms: CA_21  and  CB_22
REMARK   19  A    between atoms: CA_21  and  C_24
REMARK   20  A    between atoms: CB_22  and  OG_23
REMARK   21  A    between atoms: C_24  and  OXT_26
REMARK                            x       y       z     vdW  Elec       q    Type
REMARK                         _______ _______ _______ _____ _____    ______ ____
ROOT
ATOM      1  C   UNK A   0       1.247   6.830  21.216  0.00  0.00    +0.000 C 
ENDROOT
BRANCH   1   2
ATOM      2  C   UNK A   0       1.610   8.114  20.481  0.00  0.00    +0.000 C 
BRANCH   2   3
ATOM      3  C   UNK A   0       1.014   9.367  21.117  0.00  0.00    +0.000 C 
BRANCH   3   4
ATOM      4  C   UNK A   0       0.435  10.287  20.045  0.00  0.00    +0.000 C 
ATOM      5  O   UNK A   0      -0.561  10.018  19.380  0.00  0.00    +0.000 OA
ATOM      6  N   SER A   1       1.103  11.477  19.911  0.00  0.00    +0.000 N 
ATOM      7  H   SER A   1       1.926  11.674  20.472  0.00  0.00    +0.000 HD
BRANCH   6   8
ATOM      8  CA  SER A   1       0.692  12.498  18.942  0.00  0.00    +0.000 C 
BRANCH   8   9
ATOM      9  C   SER A   1       1.926  13.087  18.258  0.00  0.00    +0.000 C 
ATOM     10  O   SER A   1       2.273  14.255  18.367  0.00  0.00    +0.000 OA
BRANCH   9  11
ATOM     11  OXT SER A   1       2.619  12.182  17.532  0.00  0.00    +0.000 OA
ATOM     12  HXT SER A   1       3.428  11.875  17.988  0.00  0.00    +0.000 HD
ENDBRANCH   9  11
ENDBRANCH   8   9
BRANCH   8  13
ATOM     13  CB  SER A   1      -0.125  13.607  19.616  0.00  0.00    +0.000 C 
BRANCH  13  14
ATOM     14  OG  SER A   1      -0.743  14.431  18.617  0.00  0.00    +0.000 OA
ATOM     15  H   SER A   1      -1.266  13.843  18.028  0.00  0.00    +0.000 HD
ENDBRANCH  13  14
ENDBRANCH   8  13
ENDBRANCH   6   8
ENDBRANCH   3   4
ENDBRANCH   2   3
ENDBRANCH   1   2
BRANCH   1  16
ATOM     16  C   UNK A   0       1.628   5.626  20.358  0.00  0.00    +0.000 C 
BRANCH  16  17
ATOM     17  C   UNK A   0       2.227   4.527  21.211  0.00  0.00    +0.000 C 
BRANCH  17  18
ATOM     18  C   UNK A   0       1.375   3.265  21.149  0.00  0.00    +0.000 C 
BRANCH  18  19
ATOM     19  C   UNK A   0       0.883   3.024  19.731  0.00  0.00    +0.000 C 
BRANCH  19  21
ATOM     20  C   UNK A   0       2.372   2.211  17.891  0.00  0.00    +0.000 C 
ATOM     21  C   UNK A   0       1.692   1.975  19.018  0.00  0.00    +0.000 C 
BRANCH  20  22
ATOM     22  C   UNK A   0       2.398   3.563  17.253  0.00  0.00    +0.000 C 
BRANCH  22  23
ATOM     23  C   UNK A   0       3.808   4.082  17.071  0.00  0.00    +0.000 C 
BRANCH  23  24
ATOM     24  C   UNK A   0       4.182   4.954  18.261  0.00  0.00    +0.000 C 
BRANCH  24  25
ATOM     25  C   UNK A   0       5.440   4.418  18.918  0.00  0.00    +0.000 C 
BRANCH  25  26
ATOM     26  C   UNK A   0       6.448   5.537  19.133  0.00  0.00    +0.000 C 
BRANCH  26  27
ATOM     27  C   UNK A   0       7.148   5.869  17.822  0.00  0.00    +0.000 C 
BRANCH  27  29
ATOM     28  C   UNK A   0       7.097   4.762  15.581  0.00  0.00    +0.000 C 
ATOM     29  C   UNK A   0       7.469   4.600  17.043  0.00  0.00    +0.000 C 
ENDBRANCH  27  29
ENDBRANCH  26  27
ENDBRANCH  25  26
ENDBRANCH  24  25
ENDBRANCH  23  24
ENDBRANCH  22  23
ENDBRANCH  20  22
ENDBRANCH  19  21
ENDBRANCH  18  19
ENDBRANCH  17  18
ENDBRANCH  16  17
ENDBRANCH   1  16
TORSDOF 20
ENDMDL
