MODEL 1
REMARK VINA RESULT:      -9.1      0.000      0.000
REMARK  Name = 
REMARK  5 active torsions:
REMARK  status: ('A' for Active; 'I' for Inactive)
REMARK    1  A    between atoms: C_1  and  C_2
REMARK    2  A    between atoms: C_4  and  C_5
REMARK    3  A    between atoms: C_15  and  C_16
REMARK    4  A    between atoms: N_17  and  C_18
REMARK    5  A    between atoms: C_22  and  C_23
REMARK                            x       y       z     vdW  Elec       q    Type
REMARK                         _______ _______ _______ _____ _____    ______ ____
ROOT
ATOM      1  C   UNL     1       2.088   4.130  20.917  0.00  0.00    +0.000 C 
ATOM      2  C   UNL     1       1.977   5.550  20.464  0.00  0.00    +0.000 A 
ATOM      3  C   UNL     1       1.232   6.559  21.076  0.00  0.00    +0.000 A 
ATOM      4  C   UNL     1       1.473   7.767  20.394  0.00  0.00    +0.000 A 
ATOM      5  C   UNL     1       2.291   7.441  19.310  0.00  0.00    +0.000 A 
ATOM      6  C   UNL     1       2.623   8.294  18.112  0.00  0.00    +0.000 C 
ATOM      7  N   UNL     1       2.709   6.113  19.416  0.00  0.00    +0.000 N 
ENDROOT
BRANCH   4   8
ATOM      8  C   UNL     1       0.995   9.183  20.650  0.00  0.00    +0.000 A 
ATOM      9  N   UNL     1       1.326   9.724  21.808  0.00  0.00    +0.000 NA
ATOM     10  N   UNL     1       0.945  11.021  21.817  0.00  0.00    +0.000 NA
ATOM     11  C   UNL     1       0.352  11.280  20.676  0.00  0.00    +0.000 A 
ATOM     12  N   UNL     1       0.247  10.121  19.938  0.00  0.00    +0.000 N 
ATOM     13  C   UNL     1      -0.299   9.947  18.609  0.00  0.00    +0.000 C 
ATOM     14  C   UNL     1      -1.502  10.724  18.047  0.00  0.00    +0.000 C 
ATOM     15  C   UNL     1      -1.607  12.234  18.080  0.00  0.00    +0.000 C 
ATOM     16  C   UNL     1      -1.005  13.017  19.272  0.00  0.00    +0.000 C 
ATOM     17  C   UNL     1       0.033  12.682  20.349  0.00  0.00    +0.000 C 
ENDBRANCH   4   8
BRANCH   7  18
ATOM     18  C   UNL     1       3.704   5.469  18.583  0.00  0.00    +0.000 A 
ATOM     19  C   UNL     1       3.292   4.597  17.552  0.00  0.00    +0.000 A 
ATOM     20  C   UNL     1       4.232   3.905  16.774  0.00  0.00    +0.000 A 
ATOM     21  C   UNL     1       5.588   4.105  16.975  0.00  0.00    +0.000 A 
ATOM     22  C   UNL     1       6.035   4.985  17.959  0.00  0.00    +0.000 A 
ATOM     23  C   UNL     1       5.078   5.654  18.766  0.00  0.00    +0.000 A 
BRANCH  22  24
ATOM     24  C   UNL     1       7.508   5.234  18.149  0.00  0.00    +0.000 C 
ATOM     25  F   UNL     1       8.294   4.208  17.715  0.00  0.00    +0.000 F 
ATOM     26  F   UNL     1       7.946   6.340  17.491  0.00  0.00    +0.000 F 
ATOM     27  F   UNL     1       7.843   5.420  19.460  0.00  0.00    +0.000 F 
ENDBRANCH  22  24
ENDBRANCH   7  18
TORSDOF 3
ENDMDL
MODEL 2
REMARK VINA RESULT:      -8.7      4.435      8.320
REMARK  Name = 
REMARK  5 active torsions:
REMARK  status: ('A' for Active; 'I' for Inactive)
REMARK    1  A    between atoms: C_1  and  C_2
REMARK    2  A    between atoms: C_4  and  C_5
REMARK    3  A    between atoms: C_15  and  C_16
REMARK    4  A    between atoms: N_17  and  C_18
REMARK    5  A    between atoms: C_22  and  C_23
REMARK                            x       y       z     vdW  Elec       q    Type
REMARK                         _______ _______ _______ _____ _____    ______ ____
ROOT
ATOM      1  C   UNL     1      -0.007   9.541  22.136  0.00  0.00    +0.000 C 
ATOM      2  C   UNL     1       0.808   8.865  21.081  0.00  0.00    +0.000 A 
ATOM      3  C   UNL     1       1.533   7.681  21.225  0.00  0.00    +0.000 A 
ATOM      4  C   UNL     1       2.077   7.337  19.974  0.00  0.00    +0.000 A 
ATOM      5  C   UNL     1       1.751   8.385  19.109  0.00  0.00    +0.000 A 
ATOM      6  C   UNL     1       2.311   8.661  17.738  0.00  0.00    +0.000 C 
ATOM      7  N   UNL     1       0.867   9.261  19.743  0.00  0.00    +0.000 N 
ENDROOT
BRANCH   4   8
ATOM      8  C   UNL     1       2.889   6.138  19.521  0.00  0.00    +0.000 A 
ATOM      9  N   UNL     1       4.169   6.344  19.274  0.00  0.00    +0.000 NA
ATOM     10  N   UNL     1       4.768   5.159  19.020  0.00  0.00    +0.000 NA
ATOM     11  C   UNL     1       3.855   4.219  19.081  0.00  0.00    +0.000 A 
ATOM     12  N   UNL     1       2.618   4.791  19.279  0.00  0.00    +0.000 N 
ATOM     13  C   UNL     1       1.339   4.134  19.446  0.00  0.00    +0.000 C 
ATOM     14  C   UNL     1       0.917   2.842  18.725  0.00  0.00    +0.000 C 
ATOM     15  C   UNL     1       1.757   1.583  18.712  0.00  0.00    +0.000 C 
ATOM     16  C   UNL     1       3.301   1.694  18.699  0.00  0.00    +0.000 C 
ATOM     17  C   UNL     1       4.290   2.811  19.051  0.00  0.00    +0.000 C 
ENDBRANCH   4   8
BRANCH   7  18
ATOM     18  C   UNL     1       0.167  10.362  19.111  0.00  0.00    +0.000 A 
ATOM     19  C   UNL     1       0.626  11.682  19.308  0.00  0.00    +0.000 A 
ATOM     20  C   UNL     1      -0.070  12.774  18.767  0.00  0.00    +0.000 A 
ATOM     21  C   UNL     1      -1.197  12.569  17.988  0.00  0.00    +0.000 A 
ATOM     22  C   UNL     1      -1.660  11.277  17.741  0.00  0.00    +0.000 A 
ATOM     23  C   UNL     1      -0.971  10.180  18.321  0.00  0.00    +0.000 A 
BRANCH  22  24
ATOM     24  C   UNL     1      -2.860  11.052  16.860  0.00  0.00    +0.000 C 
ATOM     25  F   UNL     1      -3.379   9.794  16.958  0.00  0.00    +0.000 F 
ATOM     26  F   UNL     1      -3.886  11.899  17.139  0.00  0.00    +0.000 F 
ATOM     27  F   UNL     1      -2.578  11.227  15.536  0.00  0.00    +0.000 F 
ENDBRANCH  22  24
ENDBRANCH   7  18
TORSDOF 3
ENDMDL
MODEL 3
REMARK VINA RESULT:      -8.4      1.218      1.830
REMARK  Name = 
REMARK  5 active torsions:
REMARK  status: ('A' for Active; 'I' for Inactive)
REMARK    1  A    between atoms: C_1  and  C_2
REMARK    2  A    between atoms: C_4  and  C_5
REMARK    3  A    between atoms: C_15  and  C_16
REMARK    4  A    between atoms: N_17  and  C_18
REMARK    5  A    between atoms: C_22  and  C_23
REMARK                            x       y       z     vdW  Elec       q    Type
REMARK                         _______ _______ _______ _____ _____    ______ ____
ROOT
ATOM      1  C   UNL     1       2.217   4.684  21.104  0.00  0.00    +0.000 C 
ATOM      2  C   UNL     1       2.039   6.003  20.425  0.00  0.00    +0.000 A 
ATOM      3  C   UNL     1       1.295   7.085  20.896  0.00  0.00    +0.000 A 
ATOM      4  C   UNL     1       1.465   8.164  20.008  0.00  0.00    +0.000 A 
ATOM      5  C   UNL     1       2.238   7.676  18.951  0.00  0.00    +0.000 A 
ATOM      6  C   UNL     1       2.484   8.319  17.611  0.00  0.00    +0.000 C 
ATOM      7  N   UNL     1       2.701   6.395  19.259  0.00  0.00    +0.000 N 
ENDROOT
BRANCH   4   8
ATOM      8  C   UNL     1       0.956   9.592  20.045  0.00  0.00    +0.000 A 
ATOM      9  N   UNL     1       1.377  10.400  19.090  0.00  0.00    +0.000 NA
ATOM     10  N   UNL     1       0.728  11.581  19.188  0.00  0.00    +0.000 NA
ATOM     11  C   UNL     1      -0.077  11.519  20.222  0.00  0.00    +0.000 A 
ATOM     12  N   UNL     1       0.109  10.322  20.879  0.00  0.00    +0.000 N 
ATOM     13  C   UNL     1      -0.590   9.815  22.041  0.00  0.00    +0.000 C 
ATOM     14  C   UNL     1      -1.086  10.682  23.212  0.00  0.00    +0.000 C 
ATOM     15  C   UNL     1      -1.933  11.922  23.029  0.00  0.00    +0.000 C 
ATOM     16  C   UNL     1      -1.718  12.820  21.786  0.00  0.00    +0.000 C 
ATOM     17  C   UNL     1      -1.056  12.604  20.420  0.00  0.00    +0.000 C 
ENDBRANCH   4   8
BRANCH   7  18
ATOM     18  C   UNL     1       3.673   5.640  18.494  0.00  0.00    +0.000 A 
ATOM     19  C   UNL     1       3.231   4.675  17.564  0.00  0.00    +0.000 A 
ATOM     20  C   UNL     1       4.148   3.880  16.859  0.00  0.00    +0.000 A 
ATOM     21  C   UNL     1       5.509   4.064  17.031  0.00  0.00    +0.000 A 
ATOM     22  C   UNL     1       5.987   5.032  17.914  0.00  0.00    +0.000 A 
ATOM     23  C   UNL     1       5.052   5.808  18.650  0.00  0.00    +0.000 A 
BRANCH  22  24
ATOM     24  C   UNL     1       7.467   5.261  18.070  0.00  0.00    +0.000 C 
ATOM     25  F   UNL     1       8.229   4.234  17.596  0.00  0.00    +0.000 F 
ATOM     26  F   UNL     1       7.899   6.375  17.422  0.00  0.00    +0.000 F 
ATOM     27  F   UNL     1       7.838   5.417  19.375  0.00  0.00    +0.000 F 
ENDBRANCH  22  24
ENDBRANCH   7  18
TORSDOF 3
ENDMDL
MODEL 4
REMARK VINA RESULT:      -8.3      4.337      8.347
REMARK  Name = 
REMARK  5 active torsions:
REMARK  status: ('A' for Active; 'I' for Inactive)
REMARK    1  A    between atoms: C_1  and  C_2
REMARK    2  A    between atoms: C_4  and  C_5
REMARK    3  A    between atoms: C_15  and  C_16
REMARK    4  A    between atoms: N_17  and  C_18
REMARK    5  A    between atoms: C_22  and  C_23
REMARK                            x       y       z     vdW  Elec       q    Type
REMARK                         _______ _______ _______ _____ _____    ______ ____
ROOT
ATOM      1  C   UNL     1       0.514   9.010  22.142  0.00  0.00    +0.000 C 
ATOM      2  C   UNL     1       1.190   8.455  20.930  0.00  0.00    +0.000 A 
ATOM      3  C   UNL     1       1.900   7.256  20.852  0.00  0.00    +0.000 A 
ATOM      4  C   UNL     1       2.293   7.056  19.516  0.00  0.00    +0.000 A 
ATOM      5  C   UNL     1       1.894   8.201  18.821  0.00  0.00    +0.000 A 
ATOM      6  C   UNL     1       2.302   8.631  17.435  0.00  0.00    +0.000 C 
ATOM      7  N   UNL     1       1.107   9.004  19.649  0.00  0.00    +0.000 N 
ENDROOT
BRANCH   4   8
ATOM      8  C   UNL     1       3.021   5.911  18.838  0.00  0.00    +0.000 A 
ATOM      9  N   UNL     1       2.462   4.718  18.921  0.00  0.00    +0.000 NA
ATOM     10  N   UNL     1       3.158   3.848  18.154  0.00  0.00    +0.000 NA
ATOM     11  C   UNL     1       4.166   4.493  17.617  0.00  0.00    +0.000 A 
ATOM     12  N   UNL     1       4.201   5.780  18.107  0.00  0.00    +0.000 N 
ATOM     13  C   UNL     1       5.115   6.850  17.762  0.00  0.00    +0.000 C 
ATOM     14  C   UNL     1       6.603   6.656  17.426  0.00  0.00    +0.000 C 
ATOM     15  C   UNL     1       7.103   5.663  16.398  0.00  0.00    +0.000 C 
ATOM     16  C   UNL     1       6.358   4.320  16.205  0.00  0.00    +0.000 C 
ATOM     17  C   UNL     1       4.955   3.821  16.569  0.00  0.00    +0.000 C 
ENDBRANCH   4   8
BRANCH   7  18
ATOM     18  C   UNL     1       0.365  10.178  19.233  0.00  0.00    +0.000 A 
ATOM     19  C   UNL     1       0.835  11.460  19.588  0.00  0.00    +0.000 A 
ATOM     20  C   UNL     1       0.103  12.612  19.260  0.00  0.00    +0.000 A 
ATOM     21  C   UNL     1      -1.074  12.510  18.537  0.00  0.00    +0.000 A 
ATOM     22  C   UNL     1      -1.552  11.263  18.137  0.00  0.00    +0.000 A 
ATOM     23  C   UNL     1      -0.825  10.100  18.503  0.00  0.00    +0.000 A 
BRANCH  22  24
ATOM     24  C   UNL     1      -2.810  11.155  17.315  0.00  0.00    +0.000 C 
ATOM     25  F   UNL     1      -3.783  12.033  17.691  0.00  0.00    +0.000 F 
ATOM     26  F   UNL     1      -2.596  11.383  15.991  0.00  0.00    +0.000 F 
ATOM     27  F   UNL     1      -3.383   9.919  17.395  0.00  0.00    +0.000 F 
ENDBRANCH  22  24
ENDBRANCH   7  18
TORSDOF 3
ENDMDL
MODEL 5
REMARK VINA RESULT:      -8.2      2.071      3.004
REMARK  Name = 
REMARK  5 active torsions:
REMARK  status: ('A' for Active; 'I' for Inactive)
REMARK    1  A    between atoms: C_1  and  C_2
REMARK    2  A    between atoms: C_4  and  C_5
REMARK    3  A    between atoms: C_15  and  C_16
REMARK    4  A    between atoms: N_17  and  C_18
REMARK    5  A    between atoms: C_22  and  C_23
REMARK                            x       y       z     vdW  Elec       q    Type
REMARK                         _______ _______ _______ _____ _____    ______ ____
ROOT
ATOM      1  C   UNL     1       3.167   3.886  20.110  0.00  0.00    +0.000 C 
ATOM      2  C   UNL     1       2.919   5.278  19.627  0.00  0.00    +0.000 A 
ATOM      3  C   UNL     1       1.952   6.162  20.108  0.00  0.00    +0.000 A 
ATOM      4  C   UNL     1       2.114   7.398  19.455  0.00  0.00    +0.000 A 
ATOM      5  C   UNL     1       3.123   7.205  18.508  0.00  0.00    +0.000 A 
ATOM      6  C   UNL     1       3.503   8.109  17.363  0.00  0.00    +0.000 C 
ATOM      7  N   UNL     1       3.710   5.951  18.693  0.00  0.00    +0.000 N 
ENDROOT
BRANCH   4   8
ATOM      8  C   UNL     1       1.401   8.727  19.617  0.00  0.00    +0.000 A 
ATOM      9  N   UNL     1       1.459   9.563  18.597  0.00  0.00    +0.000 NA
ATOM     10  N   UNL     1       0.665  10.627  18.850  0.00  0.00    +0.000 NA
ATOM     11  C   UNL     1       0.135  10.468  20.039  0.00  0.00    +0.000 A 
ATOM     12  N   UNL     1       0.656   9.336  20.627  0.00  0.00    +0.000 N 
ATOM     13  C   UNL     1       0.330   8.759  21.914  0.00  0.00    +0.000 C 
ATOM     14  C   UNL     1      -0.023   9.569  23.173  0.00  0.00    +0.000 C 
ATOM     15  C   UNL     1      -1.080  10.652  23.197  0.00  0.00    +0.000 C 
ATOM     16  C   UNL     1      -1.300  11.535  21.945  0.00  0.00    +0.000 C 
ATOM     17  C   UNL     1      -0.936  11.387  20.463  0.00  0.00    +0.000 C 
ENDBRANCH   4   8
BRANCH   7  18
ATOM     18  C   UNL     1       4.902   5.468  18.026  0.00  0.00    +0.000 A 
ATOM     19  C   UNL     1       6.092   5.296  18.766  0.00  0.00    +0.000 A 
ATOM     20  C   UNL     1       7.280   4.896  18.135  0.00  0.00    +0.000 A 
ATOM     21  C   UNL     1       7.292   4.616  16.779  0.00  0.00    +0.000 A 
ATOM     22  C   UNL     1       6.128   4.739  16.021  0.00  0.00    +0.000 A 
ATOM     23  C   UNL     1       4.938   5.178  16.659  0.00  0.00    +0.000 A 
BRANCH  22  24
ATOM     24  C   UNL     1       6.131   4.394  14.555  0.00  0.00    +0.000 C 
ATOM     25  F   UNL     1       4.923   4.580  13.950  0.00  0.00    +0.000 F 
ATOM     26  F   UNL     1       7.022   5.132  13.841  0.00  0.00    +0.000 F 
ATOM     27  F   UNL     1       6.456   3.088  14.325  0.00  0.00    +0.000 F 
ENDBRANCH  22  24
ENDBRANCH   7  18
TORSDOF 3
ENDMDL
MODEL 6
REMARK VINA RESULT:      -8.1      4.050      8.125
REMARK  Name = 
REMARK  5 active torsions:
REMARK  status: ('A' for Active; 'I' for Inactive)
REMARK    1  A    between atoms: C_1  and  C_2
REMARK    2  A    between atoms: C_4  and  C_5
REMARK    3  A    between atoms: C_15  and  C_16
REMARK    4  A    between atoms: N_17  and  C_18
REMARK    5  A    between atoms: C_22  and  C_23
REMARK                            x       y       z     vdW  Elec       q    Type
REMARK                         _______ _______ _______ _____ _____    ______ ____
ROOT
ATOM      1  C   UNL     1       0.059   9.499  22.235  0.00  0.00    +0.000 C 
ATOM      2  C   UNL     1       0.833   8.871  21.121  0.00  0.00    +0.000 A 
ATOM      3  C   UNL     1       1.526   7.661  21.172  0.00  0.00    +0.000 A 
ATOM      4  C   UNL     1       2.035   7.384  19.890  0.00  0.00    +0.000 A 
ATOM      5  C   UNL     1       1.722   8.495  19.102  0.00  0.00    +0.000 A 
ATOM      6  C   UNL     1       2.262   8.844  17.739  0.00  0.00    +0.000 C 
ATOM      7  N   UNL     1       0.877   9.352  19.810  0.00  0.00    +0.000 N 
ENDROOT
BRANCH   4   8
ATOM      8  C   UNL     1       2.802   6.195  19.343  0.00  0.00    +0.000 A 
ATOM      9  N   UNL     1       4.019   6.429  18.886  0.00  0.00    +0.000 NA
ATOM     10  N   UNL     1       4.608   5.255  18.569  0.00  0.00    +0.000 NA
ATOM     11  C   UNL     1       3.747   4.292  18.802  0.00  0.00    +0.000 A 
ATOM     12  N   UNL     1       2.540   4.835  19.183  0.00  0.00    +0.000 N 
ATOM     13  C   UNL     1       1.326   4.147  19.571  0.00  0.00    +0.000 C 
ATOM     14  C   UNL     1       0.837   2.822  18.961  0.00  0.00    +0.000 C 
ATOM     15  C   UNL     1       1.705   1.588  18.845  0.00  0.00    +0.000 C 
ATOM     16  C   UNL     1       3.222   1.741  18.580  0.00  0.00    +0.000 C 
ATOM     17  C   UNL     1       4.218   2.896  18.738  0.00  0.00    +0.000 C 
ENDBRANCH   4   8
BRANCH   7  18
ATOM     18  C   UNL     1       0.197  10.510  19.266  0.00  0.00    +0.000 A 
ATOM     19  C   UNL     1      -1.040  10.346  18.607  0.00  0.00    +0.000 A 
ATOM     20  C   UNL     1      -1.688  11.437  18.009  0.00  0.00    +0.000 A 
ATOM     21  C   UNL     1      -1.145  12.708  18.099  0.00  0.00    +0.000 A 
ATOM     22  C   UNL     1       0.056  12.917  18.774  0.00  0.00    +0.000 A 
ATOM     23  C   UNL     1       0.724  11.802  19.345  0.00  0.00    +0.000 A 
BRANCH  22  24
ATOM     24  C   UNL     1       0.626  14.305  18.908  0.00  0.00    +0.000 C 
ATOM     25  F   UNL     1       0.878  14.667  20.198  0.00  0.00    +0.000 F 
ATOM     26  F   UNL     1       1.801  14.460  18.242  0.00  0.00    +0.000 F 
ATOM     27  F   UNL     1      -0.213  15.265  18.419  0.00  0.00    +0.000 F 
ENDBRANCH  22  24
ENDBRANCH   7  18
TORSDOF 3
ENDMDL
MODEL 7
REMARK VINA RESULT:      -8.1      1.781      2.313
REMARK  Name = 
REMARK  5 active torsions:
REMARK  status: ('A' for Active; 'I' for Inactive)
REMARK    1  A    between atoms: C_1  and  C_2
REMARK    2  A    between atoms: C_4  and  C_5
REMARK    3  A    between atoms: C_15  and  C_16
REMARK    4  A    between atoms: N_17  and  C_18
REMARK    5  A    between atoms: C_22  and  C_23
REMARK                            x       y       z     vdW  Elec       q    Type
REMARK                         _______ _______ _______ _____ _____    ______ ____
ROOT
ATOM      1  C   UNL     1       3.001   3.510  19.964  0.00  0.00    +0.000 C 
ATOM      2  C   UNL     1       2.794   4.976  19.756  0.00  0.00    +0.000 A 
ATOM      3  C   UNL     1       1.845   5.777  20.391  0.00  0.00    +0.000 A 
ATOM      4  C   UNL     1       2.045   7.110  19.988  0.00  0.00    +0.000 A 
ATOM      5  C   UNL     1       3.060   7.075  19.029  0.00  0.00    +0.000 A 
ATOM      6  C   UNL     1       3.475   8.171  18.081  0.00  0.00    +0.000 C 
ATOM      7  N   UNL     1       3.612   5.794  18.973  0.00  0.00    +0.000 N 
ENDROOT
BRANCH   4   8
ATOM      8  C   UNL     1       1.364   8.402  20.399  0.00  0.00    +0.000 A 
ATOM      9  N   UNL     1       1.497   8.771  21.660  0.00  0.00    +0.000 NA
ATOM     10  N   UNL     1       0.954   9.999  21.823  0.00  0.00    +0.000 NA
ATOM     11  C   UNL     1       0.459  10.382  20.670  0.00  0.00    +0.000 A 
ATOM     12  N   UNL     1       0.583   9.361  19.753  0.00  0.00    +0.000 N 
ATOM     13  C   UNL     1       0.210   9.357  18.354  0.00  0.00    +0.000 C 
ATOM     14  C   UNL     1      -1.015  10.083  17.773  0.00  0.00    +0.000 C 
ATOM     15  C   UNL     1      -1.316  11.545  18.027  0.00  0.00    +0.000 C 
ATOM     16  C   UNL     1      -0.950  12.175  19.393  0.00  0.00    +0.000 C 
ATOM     17  C   UNL     1      -0.000  11.776  20.528  0.00  0.00    +0.000 C 
ENDBRANCH   4   8
BRANCH   7  18
ATOM     18  C   UNL     1       4.799   5.415  18.234  0.00  0.00    +0.000 A 
ATOM     19  C   UNL     1       6.041   5.341  18.901  0.00  0.00    +0.000 A 
ATOM     20  C   UNL     1       7.219   5.045  18.198  0.00  0.00    +0.000 A 
ATOM     21  C   UNL     1       7.174   4.772  16.842  0.00  0.00    +0.000 A 
ATOM     22  C   UNL     1       5.962   4.800  16.154  0.00  0.00    +0.000 A 
ATOM     23  C   UNL     1       4.779   5.135  16.864  0.00  0.00    +0.000 A 
BRANCH  22  24
ATOM     24  C   UNL     1       5.907   4.463  14.687  0.00  0.00    +0.000 C 
ATOM     25  F   UNL     1       6.761   5.204  13.926  0.00  0.00    +0.000 F 
ATOM     26  F   UNL     1       6.215   3.163  14.433  0.00  0.00    +0.000 F 
ATOM     27  F   UNL     1       4.669   4.667  14.149  0.00  0.00    +0.000 F 
ENDBRANCH  22  24
ENDBRANCH   7  18
TORSDOF 3
ENDMDL
MODEL 8
REMARK VINA RESULT:      -8.0      3.819      8.027
REMARK  Name = 
REMARK  5 active torsions:
REMARK  status: ('A' for Active; 'I' for Inactive)
REMARK    1  A    between atoms: C_1  and  C_2
REMARK    2  A    between atoms: C_4  and  C_5
REMARK    3  A    between atoms: C_15  and  C_16
REMARK    4  A    between atoms: N_17  and  C_18
REMARK    5  A    between atoms: C_22  and  C_23
REMARK                            x       y       z     vdW  Elec       q    Type
REMARK                         _______ _______ _______ _____ _____    ______ ____
ROOT
ATOM      1  C   UNL     1       0.571   9.152  22.201  0.00  0.00    +0.000 C 
ATOM      2  C   UNL     1       1.192   8.592  20.962  0.00  0.00    +0.000 A 
ATOM      3  C   UNL     1       1.819   7.352  20.837  0.00  0.00    +0.000 A 
ATOM      4  C   UNL     1       2.179   7.169  19.489  0.00  0.00    +0.000 A 
ATOM      5  C   UNL     1       1.849   8.358  18.836  0.00  0.00    +0.000 A 
ATOM      6  C   UNL     1       2.266   8.804  17.458  0.00  0.00    +0.000 C 
ATOM      7  N   UNL     1       1.128   9.186  19.700  0.00  0.00    +0.000 N 
ENDROOT
BRANCH   4   8
ATOM      8  C   UNL     1       2.820   6.000  18.765  0.00  0.00    +0.000 A 
ATOM      9  N   UNL     1       2.141   4.867  18.743  0.00  0.00    +0.000 NA
ATOM     10  N   UNL     1       2.781   3.981  17.949  0.00  0.00    +0.000 NA
ATOM     11  C   UNL     1       3.873   4.551  17.499  0.00  0.00    +0.000 A 
ATOM     12  N   UNL     1       4.015   5.794  18.076  0.00  0.00    +0.000 N 
ATOM     13  C   UNL     1       5.047   6.782  17.842  0.00  0.00    +0.000 C 
ATOM     14  C   UNL     1       6.523   6.456  17.555  0.00  0.00    +0.000 C 
ATOM     15  C   UNL     1       6.968   5.485  16.484  0.00  0.00    +0.000 C 
ATOM     16  C   UNL     1       6.102   4.242  16.169  0.00  0.00    +0.000 C 
ATOM     17  C   UNL     1       4.640   3.868  16.441  0.00  0.00    +0.000 C 
ENDBRANCH   4   8
BRANCH   7  18
ATOM     18  C   UNL     1       0.462  10.419  19.331  0.00  0.00    +0.000 A 
ATOM     19  C   UNL     1      -0.893  10.386  18.937  0.00  0.00    +0.000 A 
ATOM     20  C   UNL     1      -1.547  11.551  18.508  0.00  0.00    +0.000 A 
ATOM     21  C   UNL     1      -0.883  12.766  18.510  0.00  0.00    +0.000 A 
ATOM     22  C   UNL     1       0.445  12.846  18.927  0.00  0.00    +0.000 A 
ATOM     23  C   UNL     1       1.110  11.657  19.326  0.00  0.00    +0.000 A 
BRANCH  22  24
ATOM     24  C   UNL     1       1.155  14.174  18.969  0.00  0.00    +0.000 C 
ATOM     25  F   UNL     1       2.231  14.242  18.135  0.00  0.00    +0.000 F 
ATOM     26  F   UNL     1       0.350  15.213  18.623  0.00  0.00    +0.000 F 
ATOM     27  F   UNL     1       1.637  14.470  20.212  0.00  0.00    +0.000 F 
ENDBRANCH  22  24
ENDBRANCH   7  18
TORSDOF 3
ENDMDL
MODEL 9
REMARK VINA RESULT:      -8.0      2.959      3.916
REMARK  Name = 
REMARK  5 active torsions:
REMARK  status: ('A' for Active; 'I' for Inactive)
REMARK    1  A    between atoms: C_1  and  C_2
REMARK    2  A    between atoms: C_4  and  C_5
REMARK    3  A    between atoms: C_15  and  C_16
REMARK    4  A    between atoms: N_17  and  C_18
REMARK    5  A    between atoms: C_22  and  C_23
REMARK                            x       y       z     vdW  Elec       q    Type
REMARK                         _______ _______ _______ _____ _____    ______ ____
ROOT
ATOM      1  C   UNL     1       3.945   7.593  16.705  0.00  0.00    +0.000 C 
ATOM      2  C   UNL     1       2.996   8.015  17.779  0.00  0.00    +0.000 A 
ATOM      3  C   UNL     1       2.258   9.199  17.816  0.00  0.00    +0.000 A 
ATOM      4  C   UNL     1       1.417   9.166  18.943  0.00  0.00    +0.000 A 
ATOM      5  C   UNL     1       1.739   7.993  19.630  0.00  0.00    +0.000 A 
ATOM      6  C   UNL     1       1.343   7.604  21.032  0.00  0.00    +0.000 C 
ATOM      7  N   UNL     1       2.611   7.220  18.861  0.00  0.00    +0.000 N 
ENDROOT
BRANCH   4   8
ATOM      8  C   UNL     1       0.364  10.135  19.446  0.00  0.00    +0.000 A 
ATOM      9  N   UNL     1       0.677  10.859  20.505  0.00  0.00    +0.000 NA
ATOM     10  N   UNL     1      -0.305  11.759  20.734  0.00  0.00    +0.000 NA
ATOM     11  C   UNL     1      -1.243  11.576  19.835  0.00  0.00    +0.000 A 
ATOM     12  N   UNL     1      -0.931  10.481  19.060  0.00  0.00    +0.000 N 
ATOM     13  C   UNL     1      -1.658   9.941  17.930  0.00  0.00    +0.000 C 
ATOM     14  C   UNL     1      -3.191   9.924  17.802  0.00  0.00    +0.000 C 
ATOM     15  C   UNL     1      -4.056  11.151  17.994  0.00  0.00    +0.000 C 
ATOM     16  C   UNL     1      -3.643  12.225  19.030  0.00  0.00    +0.000 C 
ATOM     17  C   UNL     1      -2.327  12.571  19.736  0.00  0.00    +0.000 C 
ENDBRANCH   4   8
BRANCH   7  18
ATOM     18  C   UNL     1       3.023   5.862  19.156  0.00  0.00    +0.000 A 
ATOM     19  C   UNL     1       4.398   5.547  19.205  0.00  0.00    +0.000 A 
ATOM     20  C   UNL     1       4.827   4.229  19.419  0.00  0.00    +0.000 A 
ATOM     21  C   UNL     1       3.905   3.219  19.634  0.00  0.00    +0.000 A 
ATOM     22  C   UNL     1       2.538   3.497  19.630  0.00  0.00    +0.000 A 
ATOM     23  C   UNL     1       2.111   4.827  19.377  0.00  0.00    +0.000 A 
BRANCH  22  24
ATOM     24  C   UNL     1       1.536   2.407  19.906  0.00  0.00    +0.000 C 
ATOM     25  F   UNL     1       0.292   2.675  19.416  0.00  0.00    +0.000 F 
ATOM     26  F   UNL     1       1.897   1.211  19.370  0.00  0.00    +0.000 F 
ATOM     27  F   UNL     1       1.361   2.183  21.241  0.00  0.00    +0.000 F 
ENDBRANCH  22  24
ENDBRANCH   7  18
TORSDOF 3
ENDMDL
