MODEL 1
REMARK VINA RESULT:      -7.3      0.000      0.000
REMARK  Name = 
REMARK  6 active torsions:
REMARK  status: ('A' for Active; 'I' for Inactive)
REMARK    1  A    between atoms: C_1  and  C_2
REMARK    2  A    between atoms: C_8  and  O_9
REMARK    3  A    between atoms: O_9  and  C_10
REMARK    4  A    between atoms: C_10  and  C_11
REMARK    5  A    between atoms: N_13  and  N_14
REMARK    6  A    between atoms: C_15  and  C_17
REMARK                            x       y       z     vdW  Elec       q    Type
REMARK                         _______ _______ _______ _____ _____    ______ ____
ROOT
ATOM      1  C   UNL     1       2.289   4.954  20.136  0.00  0.00    +0.000 C 
ATOM      2  O   UNL     1       1.150   4.633  20.478  0.00  0.00    +0.000 OA
ATOM      3  N   UNL     1       2.781   6.232  20.318  0.00  0.00    +0.000 N 
ATOM      4  H   UNL     1       3.717   6.534  20.051  0.00  0.00    +0.000 HD
ENDROOT
BRANCH   3   5
ATOM      5  N   UNL     1       1.970   7.159  20.973  0.00  0.00    +0.000 N 
ATOM      6  C   UNL     1       1.521   8.288  20.313  0.00  0.00    +0.000 C 
ATOM      7  O   UNL     1       1.811   8.488  19.132  0.00  0.00    +0.000 OA
ATOM      8  H   UNL     1       1.757   6.980  21.953  0.00  0.00    +0.000 HD
BRANCH   6   9
ATOM      9  C   UNL     1       0.701   9.196  21.107  0.00  0.00    +0.000 A 
ATOM     10  C   UNL     1       0.476   9.138  22.470  0.00  0.00    +0.000 A 
ATOM     11  C   UNL     1      -0.378  10.180  22.931  0.00  0.00    +0.000 A 
ATOM     12  C   UNL     1      -0.786  11.004  21.905  0.00  0.00    +0.000 A 
ATOM     13  S   UNL     1      -0.137  10.520  20.403  0.00  0.00    +0.000 S 
ENDBRANCH   6   9
ENDBRANCH   3   5
BRANCH   1  14
ATOM     14  C   UNL     1       3.281   3.974  19.525  0.00  0.00    +0.000 C 
BRANCH  14  15
ATOM     15  O   UNL     1       4.587   4.512  19.552  0.00  0.00    +0.000 OA
BRANCH  15  23
ATOM     16  C   UNL     1       7.491   5.764  19.246  0.00  0.00    +0.000 C 
ATOM     17  C   UNL     1       6.594   5.184  18.189  0.00  0.00    +0.000 A 
ATOM     18  C   UNL     1       7.105   5.213  16.869  0.00  0.00    +0.000 A 
ATOM     19  C   UNL     1       6.374   4.715  15.792  0.00  0.00    +0.000 A 
ATOM     20 CL   UNL     1       7.034   4.786  14.205  0.00  0.00    +0.000 Cl
ATOM     21  C   UNL     1       5.119   4.169  15.999  0.00  0.00    +0.000 A 
ATOM     22  C   UNL     1       4.600   4.132  17.295  0.00  0.00    +0.000 A 
ATOM     23  C   UNL     1       5.315   4.636  18.399  0.00  0.00    +0.000 A 
ENDBRANCH  15  23
ENDBRANCH  14  15
ENDBRANCH   1  14
TORSDOF 5
ENDMDL
MODEL 2
REMARK VINA RESULT:      -7.1      4.440      5.639
REMARK  Name = 
REMARK  6 active torsions:
REMARK  status: ('A' for Active; 'I' for Inactive)
REMARK    1  A    between atoms: C_1  and  C_2
REMARK    2  A    between atoms: C_8  and  O_9
REMARK    3  A    between atoms: O_9  and  C_10
REMARK    4  A    between atoms: C_10  and  C_11
REMARK    5  A    between atoms: N_13  and  N_14
REMARK    6  A    between atoms: C_15  and  C_17
REMARK                            x       y       z     vdW  Elec       q    Type
REMARK                         _______ _______ _______ _____ _____    ______ ____
ROOT
ATOM      1  C   UNL     1       6.468   5.127  17.765  0.00  0.00    +0.000 C 
ATOM      2  O   UNL     1       5.737   6.095  17.981  0.00  0.00    +0.000 OA
ATOM      3  N   UNL     1       6.250   3.893  18.348  0.00  0.00    +0.000 N 
ATOM      4  H   UNL     1       6.830   3.070  18.192  0.00  0.00    +0.000 HD
ENDROOT
BRANCH   3   5
ATOM      5  N   UNL     1       5.121   3.739  19.153  0.00  0.00    +0.000 N 
ATOM      6  C   UNL     1       3.953   3.215  18.628  0.00  0.00    +0.000 C 
ATOM      7  O   UNL     1       3.894   2.857  17.451  0.00  0.00    +0.000 OA
ATOM      8  H   UNL     1       5.191   4.056  20.117  0.00  0.00    +0.000 HD
BRANCH   6   9
ATOM      9  C   UNL     1       2.833   3.125  19.557  0.00  0.00    +0.000 A 
ATOM     10  C   UNL     1       1.515   3.464  19.307  0.00  0.00    +0.000 A 
ATOM     11  C   UNL     1       0.670   3.254  20.435  0.00  0.00    +0.000 A 
ATOM     12  C   UNL     1       1.368   2.765  21.517  0.00  0.00    +0.000 A 
ATOM     13  S   UNL     1       3.026   2.559  21.167  0.00  0.00    +0.000 S 
ENDBRANCH   6   9
ENDBRANCH   3   5
BRANCH   1  14
ATOM     14  C   UNL     1       7.651   5.174  16.807  0.00  0.00    +0.000 C 
BRANCH  14  15
ATOM     15  O   UNL     1       7.284   5.807  15.599  0.00  0.00    +0.000 OA
BRANCH  15  23
ATOM     16  C   UNL     1       8.730   5.863  12.771  0.00  0.00    +0.000 C 
ATOM     17  C   UNL     1       7.549   5.045  13.215  0.00  0.00    +0.000 A 
ATOM     18  C   UNL     1       6.992   4.192  12.232  0.00  0.00    +0.000 A 
ATOM     19  C   UNL     1       5.891   3.383  12.507  0.00  0.00    +0.000 A 
ATOM     20 CL   UNL     1       5.242   2.374  11.274  0.00  0.00    +0.000 Cl
ATOM     21  C   UNL     1       5.318   3.398  13.767  0.00  0.00    +0.000 A 
ATOM     22  C   UNL     1       5.855   4.233  14.748  0.00  0.00    +0.000 A 
ATOM     23  C   UNL     1       6.963   5.066  14.493  0.00  0.00    +0.000 A 
ENDBRANCH  15  23
ENDBRANCH  14  15
ENDBRANCH   1  14
TORSDOF 5
ENDMDL
MODEL 3
REMARK VINA RESULT:      -7.1      5.122      7.202
REMARK  Name = 
REMARK  6 active torsions:
REMARK  status: ('A' for Active; 'I' for Inactive)
REMARK    1  A    between atoms: C_1  and  C_2
REMARK    2  A    between atoms: C_8  and  O_9
REMARK    3  A    between atoms: O_9  and  C_10
REMARK    4  A    between atoms: C_10  and  C_11
REMARK    5  A    between atoms: N_13  and  N_14
REMARK    6  A    between atoms: C_15  and  C_17
REMARK                            x       y       z     vdW  Elec       q    Type
REMARK                         _______ _______ _______ _____ _____    ______ ____
ROOT
ATOM      1  C   UNL     1       7.532   6.990  17.796  0.00  0.00    +0.000 C 
ATOM      2  O   UNL     1       8.003   6.471  18.809  0.00  0.00    +0.000 OA
ATOM      3  N   UNL     1       7.797   8.301  17.448  0.00  0.00    +0.000 N 
ATOM      4  H   UNL     1       7.429   8.765  16.619  0.00  0.00    +0.000 HD
ENDROOT
BRANCH   3   5
ATOM      5  N   UNL     1       8.685   9.024  18.246  0.00  0.00    +0.000 N 
ATOM      6  C   UNL     1       8.724  10.405  18.177  0.00  0.00    +0.000 C 
ATOM      7  O   UNL     1       7.967  11.022  17.427  0.00  0.00    +0.000 OA
ATOM      8  H   UNL     1       9.310   8.490  18.846  0.00  0.00    +0.000 HD
BRANCH   6   9
ATOM      9  C   UNL     1       9.708  11.049  19.040  0.00  0.00    +0.000 A 
ATOM     10  C   UNL     1      10.991  11.434  18.696  0.00  0.00    +0.000 A 
ATOM     11  C   UNL     1      11.692  12.038  19.779  0.00  0.00    +0.000 A 
ATOM     12  C   UNL     1      10.925  12.093  20.923  0.00  0.00    +0.000 A 
ATOM     13  S   UNL     1       9.374  11.424  20.682  0.00  0.00    +0.000 S 
ENDBRANCH   6   9
ENDBRANCH   3   5
BRANCH   1  14
ATOM     14  C   UNL     1       6.653   6.238  16.807  0.00  0.00    +0.000 C 
BRANCH  14  15
ATOM     15  O   UNL     1       5.339   6.756  16.820  0.00  0.00    +0.000 OA
BRANCH  15  23
ATOM     16  C   UNL     1       2.674   7.727  18.252  0.00  0.00    +0.000 C 
ATOM     17  C   UNL     1       3.087   6.335  17.865  0.00  0.00    +0.000 A 
ATOM     18  C   UNL     1       2.171   5.309  18.198  0.00  0.00    +0.000 A 
ATOM     19  C   UNL     1       2.431   3.972  17.903  0.00  0.00    +0.000 A 
ATOM     20 CL   UNL     1       1.290   2.761  18.342  0.00  0.00    +0.000 Cl
ATOM     21  C   UNL     1       3.607   3.620  17.264  0.00  0.00    +0.000 A 
ATOM     22  C   UNL     1       4.523   4.619  16.928  0.00  0.00    +0.000 A 
ATOM     23  C   UNL     1       4.286   5.977  17.222  0.00  0.00    +0.000 A 
ENDBRANCH  15  23
ENDBRANCH  14  15
ENDBRANCH   1  14
TORSDOF 5
ENDMDL
MODEL 4
REMARK VINA RESULT:      -7.1      1.349      1.434
REMARK  Name = 
REMARK  6 active torsions:
REMARK  status: ('A' for Active; 'I' for Inactive)
REMARK    1  A    between atoms: C_1  and  C_2
REMARK    2  A    between atoms: C_8  and  O_9
REMARK    3  A    between atoms: O_9  and  C_10
REMARK    4  A    between atoms: C_10  and  C_11
REMARK    5  A    between atoms: N_13  and  N_14
REMARK    6  A    between atoms: C_15  and  C_17
REMARK                            x       y       z     vdW  Elec       q    Type
REMARK                         _______ _______ _______ _____ _____    ______ ____
ROOT
ATOM      1  C   UNL     1       2.181   5.413  20.274  0.00  0.00    +0.000 C 
ATOM      2  O   UNL     1       1.141   4.966  20.760  0.00  0.00    +0.000 OA
ATOM      3  N   UNL     1       2.517   6.752  20.354  0.00  0.00    +0.000 N 
ATOM      4  H   UNL     1       3.368   7.158  19.968  0.00  0.00    +0.000 HD
ENDROOT
BRANCH   3   5
ATOM      5  N   UNL     1       1.671   7.597  21.073  0.00  0.00    +0.000 N 
ATOM      6  C   UNL     1       1.171   8.748  20.491  0.00  0.00    +0.000 C 
ATOM      7  O   UNL     1       1.445   9.037  19.325  0.00  0.00    +0.000 OA
ATOM      8  H   UNL     1       1.473   7.344  22.039  0.00  0.00    +0.000 HD
BRANCH   6   9
ATOM      9  C   UNL     1       0.318   9.565  21.346  0.00  0.00    +0.000 A 
ATOM     10  C   UNL     1      -0.010   9.324  22.668  0.00  0.00    +0.000 A 
ATOM     11  C   UNL     1      -0.868  10.323  23.212  0.00  0.00    +0.000 A 
ATOM     12  C   UNL     1      -1.177  11.296  22.287  0.00  0.00    +0.000 A 
ATOM     13  S   UNL     1      -0.430  11.004  20.780  0.00  0.00    +0.000 S 
ENDBRANCH   6   9
ENDBRANCH   3   5
BRANCH   1  14
ATOM     14  C   UNL     1       3.217   4.541  19.579  0.00  0.00    +0.000 C 
BRANCH  14  15
ATOM     15  O   UNL     1       2.985   4.513  18.186  0.00  0.00    +0.000 OA
BRANCH  15  23
ATOM     16  C   UNL     1       3.949   7.420  17.342  0.00  0.00    +0.000 C 
ATOM     17  C   UNL     1       4.458   6.083  16.881  0.00  0.00    +0.000 A 
ATOM     18  C   UNL     1       5.501   6.121  15.925  0.00  0.00    +0.000 A 
ATOM     19  C   UNL     1       6.060   4.954  15.407  0.00  0.00    +0.000 A 
ATOM     20 CL   UNL     1       7.317   5.055  14.236  0.00  0.00    +0.000 Cl
ATOM     21  C   UNL     1       5.601   3.719  15.830  0.00  0.00    +0.000 A 
ATOM     22  C   UNL     1       4.573   3.662  16.773  0.00  0.00    +0.000 A 
ATOM     23  C   UNL     1       3.986   4.827  17.306  0.00  0.00    +0.000 A 
ENDBRANCH  15  23
ENDBRANCH  14  15
ENDBRANCH   1  14
TORSDOF 5
ENDMDL
MODEL 5
REMARK VINA RESULT:      -7.0      5.584      7.293
REMARK  Name = 
REMARK  6 active torsions:
REMARK  status: ('A' for Active; 'I' for Inactive)
REMARK    1  A    between atoms: C_1  and  C_2
REMARK    2  A    between atoms: C_8  and  O_9
REMARK    3  A    between atoms: O_9  and  C_10
REMARK    4  A    between atoms: C_10  and  C_11
REMARK    5  A    between atoms: N_13  and  N_14
REMARK    6  A    between atoms: C_15  and  C_17
REMARK                            x       y       z     vdW  Elec       q    Type
REMARK                         _______ _______ _______ _____ _____    ______ ____
ROOT
ATOM      1  C   UNL     1       7.967   7.365  18.154  0.00  0.00    +0.000 C 
ATOM      2  O   UNL     1       7.684   7.597  16.977  0.00  0.00    +0.000 OA
ATOM      3  N   UNL     1       8.643   8.276  18.943  0.00  0.00    +0.000 N 
ATOM      4  H   UNL     1       8.892   8.121  19.919  0.00  0.00    +0.000 HD
ENDROOT
BRANCH   3   5
ATOM      5  N   UNL     1       8.947   9.521  18.392  0.00  0.00    +0.000 N 
ATOM      6  C   UNL     1       9.367  10.561  19.201  0.00  0.00    +0.000 C 
ATOM      7  O   UNL     1       9.499  10.404  20.416  0.00  0.00    +0.000 OA
ATOM      8  H   UNL     1       8.815   9.630  17.389  0.00  0.00    +0.000 HD
BRANCH   6   9
ATOM      9  C   UNL     1       9.632  11.821  18.517  0.00  0.00    +0.000 A 
ATOM     10  C   UNL     1       8.728  12.836  18.260  0.00  0.00    +0.000 A 
ATOM     11  C   UNL     1       9.315  13.934  17.569  0.00  0.00    +0.000 A 
ATOM     12  C   UNL     1      10.653  13.726  17.313  0.00  0.00    +0.000 A 
ATOM     13  S   UNL     1      11.188  12.218  17.907  0.00  0.00    +0.000 S 
ENDBRANCH   6   9
ENDBRANCH   3   5
BRANCH   1  14
ATOM     14  C   UNL     1       7.566   6.082  18.869  0.00  0.00    +0.000 C 
BRANCH  14  15
ATOM     15  O   UNL     1       7.184   5.094  17.934  0.00  0.00    +0.000 OA
BRANCH  15  23
ATOM     16  C   UNL     1       5.824   3.780  15.382  0.00  0.00    +0.000 C 
ATOM     17  C   UNL     1       5.199   4.170  16.692  0.00  0.00    +0.000 A 
ATOM     18  C   UNL     1       3.808   3.935  16.801  0.00  0.00    +0.000 A 
ATOM     19  C   UNL     1       3.101   4.256  17.958  0.00  0.00    +0.000 A 
ATOM     20 CL   UNL     1       1.407   3.963  18.035  0.00  0.00    +0.000 Cl
ATOM     21  C   UNL     1       3.760   4.813  19.040  0.00  0.00    +0.000 A 
ATOM     22  C   UNL     1       5.133   5.052  18.951  0.00  0.00    +0.000 A 
ATOM     23  C   UNL     1       5.868   4.743  17.789  0.00  0.00    +0.000 A 
ENDBRANCH  15  23
ENDBRANCH  14  15
ENDBRANCH   1  14
TORSDOF 5
ENDMDL
MODEL 6
REMARK VINA RESULT:      -6.8      1.491      2.420
REMARK  Name = 
REMARK  6 active torsions:
REMARK  status: ('A' for Active; 'I' for Inactive)
REMARK    1  A    between atoms: C_1  and  C_2
REMARK    2  A    between atoms: C_8  and  O_9
REMARK    3  A    between atoms: O_9  and  C_10
REMARK    4  A    between atoms: C_10  and  C_11
REMARK    5  A    between atoms: N_13  and  N_14
REMARK    6  A    between atoms: C_15  and  C_17
REMARK                            x       y       z     vdW  Elec       q    Type
REMARK                         _______ _______ _______ _____ _____    ______ ____
ROOT
ATOM      1  C   UNL     1       2.151   7.167  19.906  0.00  0.00    +0.000 C 
ATOM      2  O   UNL     1       2.199   8.016  19.014  0.00  0.00    +0.000 OA
ATOM      3  N   UNL     1       1.753   7.472  21.194  0.00  0.00    +0.000 N 
ATOM      4  H   UNL     1       1.699   6.798  21.956  0.00  0.00    +0.000 HD
ENDROOT
BRANCH   3   5
ATOM      5  N   UNL     1       1.331   8.775  21.458  0.00  0.00    +0.000 N 
ATOM      6  C   UNL     1       0.014   9.029  21.797  0.00  0.00    +0.000 C 
ATOM      7  O   UNL     1      -0.803   8.112  21.893  0.00  0.00    +0.000 OA
ATOM      8  H   UNL     1       2.021   9.517  21.357  0.00  0.00    +0.000 HD
BRANCH   6   9
ATOM      9  C   UNL     1      -0.316  10.431  22.026  0.00  0.00    +0.000 A 
ATOM     10  C   UNL     1      -1.152  10.941  23.003  0.00  0.00    +0.000 A 
ATOM     11  C   UNL     1      -1.259  12.360  22.950  0.00  0.00    +0.000 A 
ATOM     12  C   UNL     1      -0.503  12.896  21.930  0.00  0.00    +0.000 A 
ATOM     13  S   UNL     1       0.327  11.691  21.051  0.00  0.00    +0.000 S 
ENDBRANCH   6   9
ENDBRANCH   3   5
BRANCH   1  14
ATOM     14  C   UNL     1       2.479   5.698  19.675  0.00  0.00    +0.000 C 
BRANCH  14  15
ATOM     15  O   UNL     1       3.866   5.527  19.474  0.00  0.00    +0.000 OA
BRANCH  15  23
ATOM     16  C   UNL     1       3.675   2.684  18.070  0.00  0.00    +0.000 C 
ATOM     17  C   UNL     1       4.315   3.947  17.566  0.00  0.00    +0.000 A 
ATOM     18  C   UNL     1       4.933   3.856  16.296  0.00  0.00    +0.000 A 
ATOM     19  C   UNL     1       5.570   4.951  15.713  0.00  0.00    +0.000 A 
ATOM     20 CL   UNL     1       6.318   4.784  14.173  0.00  0.00    +0.000 Cl
ATOM     21  C   UNL     1       5.603   6.166  16.375  0.00  0.00    +0.000 A 
ATOM     22  C   UNL     1       4.998   6.274  17.629  0.00  0.00    +0.000 A 
ATOM     23  C   UNL     1       4.355   5.180  18.242  0.00  0.00    +0.000 A 
ENDBRANCH  15  23
ENDBRANCH  14  15
ENDBRANCH   1  14
TORSDOF 5
ENDMDL
MODEL 7
REMARK VINA RESULT:      -6.8      4.540      7.708
REMARK  Name = 
REMARK  6 active torsions:
REMARK  status: ('A' for Active; 'I' for Inactive)
REMARK    1  A    between atoms: C_1  and  C_2
REMARK    2  A    between atoms: C_8  and  O_9
REMARK    3  A    between atoms: O_9  and  C_10
REMARK    4  A    between atoms: C_10  and  C_11
REMARK    5  A    between atoms: N_13  and  N_14
REMARK    6  A    between atoms: C_15  and  C_17
REMARK                            x       y       z     vdW  Elec       q    Type
REMARK                         _______ _______ _______ _____ _____    ______ ____
ROOT
ATOM      1  C   UNL     1       0.445   8.797  21.702  0.00  0.00    +0.000 C 
ATOM      2  O   UNL     1      -0.644   8.238  21.843  0.00  0.00    +0.000 OA
ATOM      3  N   UNL     1       1.587   8.108  21.338  0.00  0.00    +0.000 N 
ATOM      4  H   UNL     1       2.503   8.535  21.210  0.00  0.00    +0.000 HD
ENDROOT
BRANCH   3   5
ATOM      5  N   UNL     1       1.468   6.746  21.059  0.00  0.00    +0.000 N 
ATOM      6  C   UNL     1       2.121   6.194  19.972  0.00  0.00    +0.000 C 
ATOM      7  O   UNL     1       2.834   6.887  19.244  0.00  0.00    +0.000 OA
ATOM      8  H   UNL     1       0.862   6.198  21.667  0.00  0.00    +0.000 HD
BRANCH   6   9
ATOM      9  C   UNL     1       1.904   4.767  19.767  0.00  0.00    +0.000 A 
ATOM     10  C   UNL     1       1.637   3.817  20.737  0.00  0.00    +0.000 A 
ATOM     11  C   UNL     1       1.477   2.509  20.196  0.00  0.00    +0.000 A 
ATOM     12  C   UNL     1       1.631   2.495  18.827  0.00  0.00    +0.000 A 
ATOM     13  S   UNL     1       1.962   4.051  18.207  0.00  0.00    +0.000 S 
ENDBRANCH   6   9
ENDBRANCH   3   5
BRANCH   1  14
ATOM     14  C   UNL     1       0.638  10.298  21.869  0.00  0.00    +0.000 C 
BRANCH  14  15
ATOM     15  O   UNL     1       0.826  10.914  20.612  0.00  0.00    +0.000 OA
BRANCH  15  23
ATOM     16  C   UNL     1       0.832   9.332  17.857  0.00  0.00    +0.000 C 
ATOM     17  C   UNL     1      -0.229  10.228  18.432  0.00  0.00    +0.000 A 
ATOM     18  C   UNL     1      -1.381  10.407  17.629  0.00  0.00    +0.000 A 
ATOM     19  C   UNL     1      -2.438  11.218  18.037  0.00  0.00    +0.000 A 
ATOM     20 CL   UNL     1      -3.810  11.413  17.018  0.00  0.00    +0.000 Cl
ATOM     21  C   UNL     1      -2.381  11.867  19.258  0.00  0.00    +0.000 A 
ATOM     22  C   UNL     1      -1.253  11.702  20.064  0.00  0.00    +0.000 A 
ATOM     23  C   UNL     1      -0.168  10.894  19.670  0.00  0.00    +0.000 A 
ENDBRANCH  15  23
ENDBRANCH  14  15
ENDBRANCH   1  14
TORSDOF 5
ENDMDL
MODEL 8
REMARK VINA RESULT:      -6.7      5.665      7.585
REMARK  Name = 
REMARK  6 active torsions:
REMARK  status: ('A' for Active; 'I' for Inactive)
REMARK    1  A    between atoms: C_1  and  C_2
REMARK    2  A    between atoms: C_8  and  O_9
REMARK    3  A    between atoms: O_9  and  C_10
REMARK    4  A    between atoms: C_10  and  C_11
REMARK    5  A    between atoms: N_13  and  N_14
REMARK    6  A    between atoms: C_15  and  C_17
REMARK                            x       y       z     vdW  Elec       q    Type
REMARK                         _______ _______ _______ _____ _____    ______ ____
ROOT
ATOM      1  C   UNL     1       7.846   7.985  18.023  0.00  0.00    +0.000 C 
ATOM      2  O   UNL     1       8.602   7.448  18.834  0.00  0.00    +0.000 OA
ATOM      3  N   UNL     1       7.937   9.327  17.705  0.00  0.00    +0.000 N 
ATOM      4  H   UNL     1       7.333   9.806  17.039  0.00  0.00    +0.000 HD
ENDROOT
BRANCH   3   5
ATOM      5  N   UNL     1       8.970  10.067  18.281  0.00  0.00    +0.000 N 
ATOM      6  C   UNL     1       9.043  11.435  18.090  0.00  0.00    +0.000 C 
ATOM      7  O   UNL     1       8.190  12.028  17.427  0.00  0.00    +0.000 OA
ATOM      8  H   UNL     1       9.671   9.553  18.812  0.00  0.00    +0.000 HD
BRANCH   6   9
ATOM      9  C   UNL     1      10.179  12.098  18.720  0.00  0.00    +0.000 A 
ATOM     10  C   UNL     1      11.330  11.500  19.201  0.00  0.00    +0.000 A 
ATOM     11  C   UNL     1      12.245  12.438  19.759  0.00  0.00    +0.000 A 
ATOM     12  C   UNL     1      11.765  13.728  19.693  0.00  0.00    +0.000 A 
ATOM     13  S   UNL     1      10.225  13.798  18.959  0.00  0.00    +0.000 S 
ENDBRANCH   6   9
ENDBRANCH   3   5
BRANCH   1  14
ATOM     14  C   UNL     1       6.769   7.226  17.259  0.00  0.00    +0.000 C 
BRANCH  14  15
ATOM     15  O   UNL     1       7.010   5.835  17.317  0.00  0.00    +0.000 OA
BRANCH  15  23
ATOM     16  C   UNL     1       5.391   4.396  14.993  0.00  0.00    +0.000 C 
ATOM     17  C   UNL     1       5.208   4.288  16.482  0.00  0.00    +0.000 A 
ATOM     18  C   UNL     1       4.159   3.441  16.910  0.00  0.00    +0.000 A 
ATOM     19  C   UNL     1       3.875   3.256  18.262  0.00  0.00    +0.000 A 
ATOM     20 CL   UNL     1       2.579   2.226  18.731  0.00  0.00    +0.000 Cl
ATOM     21  C   UNL     1       4.631   3.904  19.223  0.00  0.00    +0.000 A 
ATOM     22  C   UNL     1       5.671   4.744  18.819  0.00  0.00    +0.000 A 
ATOM     23  C   UNL     1       5.972   4.953  17.458  0.00  0.00    +0.000 A 
ENDBRANCH  15  23
ENDBRANCH  14  15
ENDBRANCH   1  14
TORSDOF 5
ENDMDL
MODEL 9
REMARK VINA RESULT:      -6.7      1.393      1.709
REMARK  Name = 
REMARK  6 active torsions:
REMARK  status: ('A' for Active; 'I' for Inactive)
REMARK    1  A    between atoms: C_1  and  C_2
REMARK    2  A    between atoms: C_8  and  O_9
REMARK    3  A    between atoms: O_9  and  C_10
REMARK    4  A    between atoms: C_10  and  C_11
REMARK    5  A    between atoms: N_13  and  N_14
REMARK    6  A    between atoms: C_15  and  C_17
REMARK                            x       y       z     vdW  Elec       q    Type
REMARK                         _______ _______ _______ _____ _____    ______ ____
ROOT
ATOM      1  C   UNL     1       2.919   4.756  19.380  0.00  0.00    +0.000 C 
ATOM      2  O   UNL     1       1.836   4.624  18.808  0.00  0.00    +0.000 OA
ATOM      3  N   UNL     1       3.282   5.932  20.010  0.00  0.00    +0.000 N 
ATOM      4  H   UNL     1       4.166   6.079  20.494  0.00  0.00    +0.000 HD
ENDROOT
BRANCH   3   5
ATOM      5  N   UNL     1       2.350   6.970  20.047  0.00  0.00    +0.000 N 
ATOM      6  C   UNL     1       2.311   7.913  19.037  0.00  0.00    +0.000 C 
ATOM      7  O   UNL     1       3.081   7.845  18.078  0.00  0.00    +0.000 OA
ATOM      8  H   UNL     1       1.735   7.012  20.857  0.00  0.00    +0.000 HD
BRANCH   6   9
ATOM      9  C   UNL     1       1.311   8.963  19.196  0.00  0.00    +0.000 A 
ATOM     10  C   UNL     1       0.720   9.709  18.192  0.00  0.00    +0.000 A 
ATOM     11  C   UNL     1      -0.219  10.656  18.692  0.00  0.00    +0.000 A 
ATOM     12  C   UNL     1      -0.315  10.611  20.066  0.00  0.00    +0.000 A 
ATOM     13  S   UNL     1       0.718   9.431  20.739  0.00  0.00    +0.000 S 
ENDBRANCH   6   9
ENDBRANCH   3   5
BRANCH   1  14
ATOM     14  C   UNL     1       3.944   3.636  19.491  0.00  0.00    +0.000 C 
BRANCH  14  15
ATOM     15  O   UNL     1       5.255   4.156  19.407  0.00  0.00    +0.000 OA
BRANCH  15  23
ATOM     16  C   UNL     1       7.709   6.088  18.825  0.00  0.00    +0.000 C 
ATOM     17  C   UNL     1       6.895   5.275  17.858  0.00  0.00    +0.000 A 
ATOM     18  C   UNL     1       7.260   5.397  16.496  0.00  0.00    +0.000 A 
ATOM     19  C   UNL     1       6.583   4.704  15.494  0.00  0.00    +0.000 A 
ATOM     20 CL   UNL     1       7.057   4.898  13.851  0.00  0.00    +0.000 Cl
ATOM     21  C   UNL     1       5.531   3.867  15.820  0.00  0.00    +0.000 A 
ATOM     22  C   UNL     1       5.158   3.733  17.159  0.00  0.00    +0.000 A 
ATOM     23  C   UNL     1       5.820   4.429  18.189  0.00  0.00    +0.000 A 
ENDBRANCH  15  23
ENDBRANCH  14  15
ENDBRANCH   1  14
TORSDOF 5
ENDMDL
