MODEL 1
REMARK VINA RESULT:      -7.3      0.000      0.000
REMARK  Name = 
REMARK  4 active torsions:
REMARK  status: ('A' for Active; 'I' for Inactive)
REMARK    1  A    between atoms: C_1  and  C_2
REMARK    2  A    between atoms: C_2  and  N_3
REMARK    3  A    between atoms: C_4  and  C_5
REMARK    4  A    between atoms: C_10  and  C_11
REMARK                            x       y       z     vdW  Elec       q    Type
REMARK                         _______ _______ _______ _____ _____    ______ ____
ROOT
ATOM      1  C   UNL     1      -0.230  12.580  21.547  0.00  0.00    +0.000 C 
ATOM      2  O   UNL     1       0.610  13.436  21.893  0.00  0.00    +0.000 OA
ATOM      3  N   UNL     1       0.111  11.587  20.618  0.00  0.00    +0.000 N 
ATOM      4  C   UNL     1       1.516  11.514  20.245  0.00  0.00    +0.000 C 
ATOM      5  C   UNL     1       1.665  11.022  18.816  0.00  0.00    +0.000 C 
ATOM      6  C   UNL     1       1.001   9.649  18.604  0.00  0.00    +0.000 C 
ATOM      7  C   UNL     1      -0.480   9.808  18.998  0.00  0.00    +0.000 C 
ATOM      8  C   UNL     1      -0.641  10.350  20.426  0.00  0.00    +0.000 C 
ENDROOT
BRANCH   6   9
ATOM      9  C   UNL     1       1.582   8.456  19.385  0.00  0.00    +0.000 C 
ATOM     10  O   UNL     1       1.200   8.243  20.543  0.00  0.00    +0.000 OA
ATOM     11  N   UNL     1       2.488   7.590  18.800  0.00  0.00    +0.000 N 
ATOM     12  C   UNL     1       2.749   6.340  19.539  0.00  0.00    +0.000 C 
ATOM     13  C   UNL     1       4.175   5.831  19.318  0.00  0.00    +0.000 C 
ATOM     14  C   UNL     1       4.331   5.602  17.815  0.00  0.00    +0.000 C 
ATOM     15  C   UNL     1       4.211   6.971  17.148  0.00  0.00    +0.000 C 
ATOM     16  C   UNL     1       2.832   7.567  17.374  0.00  0.00    +0.000 C 
ATOM     17  O   UNL     1       3.293   4.663  17.451  0.00  0.00    +0.000 OA
ATOM     18  C   UNL     1       3.991   3.411  17.488  0.00  0.00    +0.000 C 
ATOM     19  C   UNL     1       5.196   3.825  16.704  0.00  0.00    +0.000 C 
ATOM     20  O   UNL     1       5.588   5.014  17.426  0.00  0.00    +0.000 OA
ENDBRANCH   6   9
BRANCH   1  22
ATOM     21  N   UNL     1      -2.703  12.916  21.480  0.00  0.00    +0.000 N 
ATOM     22  C   UNL     1      -1.548  12.548  22.153  0.00  0.00    +0.000 A 
ATOM     23  C   UNL     1      -1.929  12.135  23.423  0.00  0.00    +0.000 A 
ATOM     24  C   UNL     1      -3.307  12.441  23.561  0.00  0.00    +0.000 A 
ATOM     25  S   UNL     1      -4.542  12.390  24.772  0.00  0.00    +0.000 S 
ATOM     26  C   UNL     1      -5.668  13.022  23.637  0.00  0.00    +0.000 A 
ATOM     27  C   UNL     1      -5.137  13.258  22.385  0.00  0.00    +0.000 A 
ATOM     28  C   UNL     1      -3.760  12.912  22.371  0.00  0.00    +0.000 A 
BRANCH  21  30
ATOM     29  C   UNL     1      -3.477  12.224  19.242  0.00  0.00    +0.000 C 
ATOM     30  C   UNL     1      -2.828  13.310  20.086  0.00  0.00    +0.000 C 
ENDBRANCH  21  30
ENDBRANCH   1  22
TORSDOF 3
ENDMDL
MODEL 2
REMARK VINA RESULT:      -7.3      4.283      9.401
REMARK  Name = 
REMARK  4 active torsions:
REMARK  status: ('A' for Active; 'I' for Inactive)
REMARK    1  A    between atoms: C_1  and  C_2
REMARK    2  A    between atoms: C_2  and  N_3
REMARK    3  A    between atoms: C_4  and  C_5
REMARK    4  A    between atoms: C_10  and  C_11
REMARK                            x       y       z     vdW  Elec       q    Type
REMARK                         _______ _______ _______ _____ _____    ______ ____
ROOT
ATOM      1  C   UNL     1       2.245   6.301  20.142  0.00  0.00    +0.000 C 
ATOM      2  O   UNL     1       2.049   5.585  21.147  0.00  0.00    +0.000 OA
ATOM      3  N   UNL     1       1.596   7.537  20.015  0.00  0.00    +0.000 N 
ATOM      4  C   UNL     1       0.855   7.995  21.181  0.00  0.00    +0.000 C 
ATOM      5  C   UNL     1      -0.337   8.836  20.760  0.00  0.00    +0.000 C 
ATOM      6  C   UNL     1       0.081  10.045  19.904  0.00  0.00    +0.000 C 
ATOM      7  C   UNL     1       0.838   9.485  18.685  0.00  0.00    +0.000 C 
ATOM      8  C   UNL     1       2.019   8.594  19.101  0.00  0.00    +0.000 C 
ENDROOT
BRANCH   6   9
ATOM      9  C   UNL     1       0.967  11.111  20.575  0.00  0.00    +0.000 C 
ATOM     10  O   UNL     1       1.615  10.815  21.587  0.00  0.00    +0.000 OA
ATOM     11  N   UNL     1       1.091  12.381  20.039  0.00  0.00    +0.000 N 
ATOM     12  C   UNL     1       2.175  13.210  20.598  0.00  0.00    +0.000 C 
ATOM     13  C   UNL     1       1.828  14.700  20.573  0.00  0.00    +0.000 C 
ATOM     14  C   UNL     1       1.578  15.067  19.110  0.00  0.00    +0.000 C 
ATOM     15  C   UNL     1       0.341  14.288  18.667  0.00  0.00    +0.000 C 
ATOM     16  C   UNL     1       0.593  12.791  18.721  0.00  0.00    +0.000 C 
ATOM     17  O   UNL     1       2.792  14.719  18.405  0.00  0.00    +0.000 OA
ATOM     18  C   UNL     1       3.490  15.971  18.368  0.00  0.00    +0.000 C 
ATOM     19  C   UNL     1       2.352  16.827  17.907  0.00  0.00    +0.000 C 
ATOM     20  O   UNL     1       1.341  16.470  18.876  0.00  0.00    +0.000 OA
ENDBRANCH   6   9
BRANCH   1  22
ATOM     21  N   UNL     1       2.885   5.065  18.069  0.00  0.00    +0.000 N 
ATOM     22  C   UNL     1       3.202   5.905  19.126  0.00  0.00    +0.000 A 
ATOM     23  C   UNL     1       4.531   6.279  18.966  0.00  0.00    +0.000 A 
ATOM     24  C   UNL     1       5.054   5.500  17.903  0.00  0.00    +0.000 A 
ATOM     25  S   UNL     1       6.567   5.216  17.113  0.00  0.00    +0.000 S 
ATOM     26  C   UNL     1       5.798   4.095  16.061  0.00  0.00    +0.000 A 
ATOM     27  C   UNL     1       4.445   3.941  16.290  0.00  0.00    +0.000 A 
ATOM     28  C   UNL     1       4.040   4.771  17.370  0.00  0.00    +0.000 A 
BRANCH  21  30
ATOM     29  C   UNL     1       1.370   3.143  18.378  0.00  0.00    +0.000 C 
ATOM     30  C   UNL     1       1.582   4.508  17.741  0.00  0.00    +0.000 C 
ENDBRANCH  21  30
ENDBRANCH   1  22
TORSDOF 3
ENDMDL
MODEL 3
REMARK VINA RESULT:      -7.2      1.813      2.479
REMARK  Name = 
REMARK  4 active torsions:
REMARK  status: ('A' for Active; 'I' for Inactive)
REMARK    1  A    between atoms: C_1  and  C_2
REMARK    2  A    between atoms: C_2  and  N_3
REMARK    3  A    between atoms: C_4  and  C_5
REMARK    4  A    between atoms: C_10  and  C_11
REMARK                            x       y       z     vdW  Elec       q    Type
REMARK                         _______ _______ _______ _____ _____    ______ ____
ROOT
ATOM      1  C   UNL     1      -1.678  12.703  20.089  0.00  0.00    +0.000 C 
ATOM      2  O   UNL     1      -1.257  13.655  20.778  0.00  0.00    +0.000 OA
ATOM      3  N   UNL     1      -0.780  11.789  19.519  0.00  0.00    +0.000 N 
ATOM      4  C   UNL     1       0.610  11.914  19.931  0.00  0.00    +0.000 C 
ATOM      5  C   UNL     1       1.541  11.483  18.811  0.00  0.00    +0.000 C 
ATOM      6  C   UNL     1       1.266  10.040  18.352  0.00  0.00    +0.000 C 
ATOM      7  C   UNL     1      -0.211   9.989  17.915  0.00  0.00    +0.000 C 
ATOM      8  C   UNL     1      -1.157  10.468  19.026  0.00  0.00    +0.000 C 
ENDROOT
BRANCH   6   9
ATOM      9  C   UNL     1       1.504   8.916  19.377  0.00  0.00    +0.000 C 
ATOM     10  O   UNL     1       1.054   9.034  20.525  0.00  0.00    +0.000 OA
ATOM     11  N   UNL     1       2.170   7.755  19.026  0.00  0.00    +0.000 N 
ATOM     12  C   UNL     1       2.085   6.649  19.998  0.00  0.00    +0.000 C 
ATOM     13  C   UNL     1       3.337   5.770  19.975  0.00  0.00    +0.000 C 
ATOM     14  C   UNL     1       3.462   5.221  18.554  0.00  0.00    +0.000 C 
ATOM     15  C   UNL     1       3.712   6.420  17.642  0.00  0.00    +0.000 C 
ATOM     16  C   UNL     1       2.528   7.371  17.656  0.00  0.00    +0.000 C 
ATOM     17  O   UNL     1       2.226   4.516  18.295  0.00  0.00    +0.000 OA
ATOM     18  C   UNL     1       2.578   3.162  18.610  0.00  0.00    +0.000 C 
ATOM     19  C   UNL     1       3.866   3.103  17.851  0.00  0.00    +0.000 C 
ATOM     20  O   UNL     1       4.534   4.276  18.369  0.00  0.00    +0.000 OA
ENDBRANCH   6   9
BRANCH   1  22
ATOM     21  N   UNL     1      -4.032  12.743  20.919  0.00  0.00    +0.000 N 
ATOM     22  C   UNL     1      -3.101  12.479  19.925  0.00  0.00    +0.000 A 
ATOM     23  C   UNL     1      -3.806  12.030  18.815  0.00  0.00    +0.000 A 
ATOM     24  C   UNL     1      -5.152  11.850  19.225  0.00  0.00    +0.000 A 
ATOM     25  S   UNL     1      -6.644  11.249  18.586  0.00  0.00    +0.000 S 
ATOM     26  C   UNL     1      -7.415  11.601  20.081  0.00  0.00    +0.000 A 
ATOM     27  C   UNL     1      -6.583  12.159  21.031  0.00  0.00    +0.000 A 
ATOM     28  C   UNL     1      -5.270  12.291  20.505  0.00  0.00    +0.000 A 
BRANCH  21  30
ATOM     29  C   UNL     1      -3.369  12.301  23.254  0.00  0.00    +0.000 C 
ATOM     30  C   UNL     1      -3.789  13.338  22.223  0.00  0.00    +0.000 C 
ENDBRANCH  21  30
ENDBRANCH   1  22
TORSDOF 3
ENDMDL
MODEL 4
REMARK VINA RESULT:      -7.1      0.832      1.041
REMARK  Name = 
REMARK  4 active torsions:
REMARK  status: ('A' for Active; 'I' for Inactive)
REMARK    1  A    between atoms: C_1  and  C_2
REMARK    2  A    between atoms: C_2  and  N_3
REMARK    3  A    between atoms: C_4  and  C_5
REMARK    4  A    between atoms: C_10  and  C_11
REMARK                            x       y       z     vdW  Elec       q    Type
REMARK                         _______ _______ _______ _____ _____    ______ ____
ROOT
ATOM      1  C   UNL     1      -0.021  12.922  21.534  0.00  0.00    +0.000 C 
ATOM      2  O   UNL     1       0.878  13.708  21.901  0.00  0.00    +0.000 OA
ATOM      3  N   UNL     1       0.258  11.909  20.606  0.00  0.00    +0.000 N 
ATOM      4  C   UNL     1       1.660  11.726  20.259  0.00  0.00    +0.000 C 
ATOM      5  C   UNL     1       1.797  11.230  18.830  0.00  0.00    +0.000 C 
ATOM      6  C   UNL     1       1.030   9.916  18.598  0.00  0.00    +0.000 C 
ATOM      7  C   UNL     1      -0.441  10.190  18.965  0.00  0.00    +0.000 C 
ATOM      8  C   UNL     1      -0.585  10.737  20.393  0.00  0.00    +0.000 C 
ENDROOT
BRANCH   6   9
ATOM      9  C   UNL     1       1.499   8.677  19.383  0.00  0.00    +0.000 C 
ATOM     10  O   UNL     1       1.047   8.467  20.516  0.00  0.00    +0.000 OA
ATOM     11  N   UNL     1       2.381   7.767  18.826  0.00  0.00    +0.000 N 
ATOM     12  C   UNL     1       2.530   6.492  19.552  0.00  0.00    +0.000 C 
ATOM     13  C   UNL     1       3.933   5.902  19.392  0.00  0.00    +0.000 C 
ATOM     14  C   UNL     1       4.151   5.690  17.893  0.00  0.00    +0.000 C 
ATOM     15  C   UNL     1       4.146   7.074  17.249  0.00  0.00    +0.000 C 
ATOM     16  C   UNL     1       2.795   7.749  17.418  0.00  0.00    +0.000 C 
ATOM     17  O   UNL     1       3.079   4.821  17.460  0.00  0.00    +0.000 OA
ATOM     18  C   UNL     1       3.699   3.529  17.507  0.00  0.00    +0.000 C 
ATOM     19  C   UNL     1       4.964   3.883  16.792  0.00  0.00    +0.000 C 
ATOM     20  O   UNL     1       5.389   5.034  17.555  0.00  0.00    +0.000 OA
ENDBRANCH   6   9
BRANCH   1  22
ATOM     21  N   UNL     1      -2.312  13.899  21.701  0.00  0.00    +0.000 N 
ATOM     22  C   UNL     1      -1.348  12.993  22.115  0.00  0.00    +0.000 A 
ATOM     23  C   UNL     1      -1.926  12.206  23.104  0.00  0.00    +0.000 A 
ATOM     24  C   UNL     1      -3.186  12.780  23.406  0.00  0.00    +0.000 A 
ATOM     25  S   UNL     1      -4.489  12.560  24.523  0.00  0.00    +0.000 S 
ATOM     26  C   UNL     1      -5.319  13.882  23.802  0.00  0.00    +0.000 A 
ATOM     27  C   UNL     1      -4.644  14.468  22.749  0.00  0.00    +0.000 A 
ATOM     28  C   UNL     1      -3.404  13.806  22.542  0.00  0.00    +0.000 A 
BRANCH  21  30
ATOM     29  C   UNL     1      -1.755  16.223  21.089  0.00  0.00    +0.000 C 
ATOM     30  C   UNL     1      -2.217  14.856  20.610  0.00  0.00    +0.000 C 
ENDBRANCH  21  30
ENDBRANCH   1  22
TORSDOF 3
ENDMDL
MODEL 5
REMARK VINA RESULT:      -7.0      1.168      1.744
REMARK  Name = 
REMARK  4 active torsions:
REMARK  status: ('A' for Active; 'I' for Inactive)
REMARK    1  A    between atoms: C_1  and  C_2
REMARK    2  A    between atoms: C_2  and  N_3
REMARK    3  A    between atoms: C_4  and  C_5
REMARK    4  A    between atoms: C_10  and  C_11
REMARK                            x       y       z     vdW  Elec       q    Type
REMARK                         _______ _______ _______ _____ _____    ______ ____
ROOT
ATOM      1  C   UNL     1      -0.386  13.289  20.801  0.00  0.00    +0.000 C 
ATOM      2  O   UNL     1       0.439  14.090  21.287  0.00  0.00    +0.000 OA
ATOM      3  N   UNL     1       0.046  12.229  19.992  0.00  0.00    +0.000 N 
ATOM      4  C   UNL     1       1.485  12.024  19.918  0.00  0.00    +0.000 C 
ATOM      5  C   UNL     1       1.876  11.455  18.565  0.00  0.00    +0.000 C 
ATOM      6  C   UNL     1       1.150  10.132  18.262  0.00  0.00    +0.000 C 
ATOM      7  C   UNL     1      -0.360  10.429  18.339  0.00  0.00    +0.000 C 
ATOM      8  C   UNL     1      -0.758  11.049  19.686  0.00  0.00    +0.000 C 
ENDROOT
BRANCH   6   9
ATOM      9  C   UNL     1       1.453   8.934  19.182  0.00  0.00    +0.000 C 
ATOM     10  O   UNL     1       0.912   8.869  20.294  0.00  0.00    +0.000 OA
ATOM     11  N   UNL     1       2.280   7.906  18.768  0.00  0.00    +0.000 N 
ATOM     12  C   UNL     1       2.265   6.694  19.609  0.00  0.00    +0.000 C 
ATOM     13  C   UNL     1       3.614   5.973  19.600  0.00  0.00    +0.000 C 
ATOM     14  C   UNL     1       3.906   5.607  18.145  0.00  0.00    +0.000 C 
ATOM     15  C   UNL     1       4.070   6.922  17.386  0.00  0.00    +0.000 C 
ATOM     16  C   UNL     1       2.779   7.723  17.401  0.00  0.00    +0.000 C 
ATOM     17  O   UNL     1       2.788   4.798  17.712  0.00  0.00    +0.000 OA
ATOM     18  C   UNL     1       3.282   3.467  17.913  0.00  0.00    +0.000 C 
ATOM     19  C   UNL     1       4.618   3.644  17.261  0.00  0.00    +0.000 C 
ATOM     20  O   UNL     1       5.098   4.819  17.953  0.00  0.00    +0.000 OA
ENDBRANCH   6   9
BRANCH   1  22
ATOM     21  N   UNL     1      -2.344  12.917  22.305  0.00  0.00    +0.000 N 
ATOM     22  C   UNL     1      -1.797  13.392  21.123  0.00  0.00    +0.000 A 
ATOM     23  C   UNL     1      -2.829  13.982  20.404  0.00  0.00    +0.000 A 
ATOM     24  C   UNL     1      -4.034  13.683  21.089  0.00  0.00    +0.000 A 
ATOM     25  S   UNL     1      -5.740  13.895  20.887  0.00  0.00    +0.000 S 
ATOM     26  C   UNL     1      -6.007  13.091  22.382  0.00  0.00    +0.000 A 
ATOM     27  C   UNL     1      -4.853  12.680  23.019  0.00  0.00    +0.000 A 
ATOM     28  C   UNL     1      -3.719  13.037  22.242  0.00  0.00    +0.000 A 
BRANCH  21  30
ATOM     29  C   UNL     1      -1.278  10.868  23.171  0.00  0.00    +0.000 C 
ATOM     30  C   UNL     1      -1.640  12.322  23.429  0.00  0.00    +0.000 C 
ENDBRANCH  21  30
ENDBRANCH   1  22
TORSDOF 3
ENDMDL
MODEL 6
REMARK VINA RESULT:      -7.0      3.722      9.817
REMARK  Name = 
REMARK  4 active torsions:
REMARK  status: ('A' for Active; 'I' for Inactive)
REMARK    1  A    between atoms: C_1  and  C_2
REMARK    2  A    between atoms: C_2  and  N_3
REMARK    3  A    between atoms: C_4  and  C_5
REMARK    4  A    between atoms: C_10  and  C_11
REMARK                            x       y       z     vdW  Elec       q    Type
REMARK                         _______ _______ _______ _____ _____    ______ ____
ROOT
ATOM      1  C   UNL     1       2.225   7.003  19.780  0.00  0.00    +0.000 C 
ATOM      2  O   UNL     1       2.167   6.523  20.932  0.00  0.00    +0.000 OA
ATOM      3  N   UNL     1       1.557   8.197  19.475  0.00  0.00    +0.000 N 
ATOM      4  C   UNL     1       0.973   8.910  20.601  0.00  0.00    +0.000 C 
ATOM      5  C   UNL     1      -0.270   9.668  20.168  0.00  0.00    +0.000 C 
ATOM      6  C   UNL     1       0.024  10.657  19.026  0.00  0.00    +0.000 C 
ATOM      7  C   UNL     1       0.619   9.832  17.868  0.00  0.00    +0.000 C 
ATOM      8  C   UNL     1       1.849   9.025  18.309  0.00  0.00    +0.000 C 
ENDROOT
BRANCH   6   9
ATOM      9  C   UNL     1       0.984  11.822  19.330  0.00  0.00    +0.000 C 
ATOM     10  O   UNL     1       2.026  11.940  18.671  0.00  0.00    +0.000 OA
ATOM     11  N   UNL     1       0.681  12.767  20.294  0.00  0.00    +0.000 N 
ATOM     12  C   UNL     1       1.527  13.975  20.295  0.00  0.00    +0.000 C 
ATOM     13  C   UNL     1       1.683  14.564  21.698  0.00  0.00    +0.000 C 
ATOM     14  C   UNL     1       0.275  14.900  22.192  0.00  0.00    +0.000 C 
ATOM     15  C   UNL     1      -0.472  13.574  22.319  0.00  0.00    +0.000 C 
ATOM     16  C   UNL     1      -0.617  12.900  20.965  0.00  0.00    +0.000 C 
ATOM     17  O   UNL     1      -0.277  15.811  21.215  0.00  0.00    +0.000 OA
ATOM     18  C   UNL     1      -0.007  17.089  21.805  0.00  0.00    +0.000 C 
ATOM     19  C   UNL     1      -0.499  16.785  23.185  0.00  0.00    +0.000 C 
ATOM     20  O   UNL     1       0.232  15.571  23.467  0.00  0.00    +0.000 OA
ENDBRANCH   6   9
BRANCH   1  22
ATOM     21  N   UNL     1       2.765   5.130  18.219  0.00  0.00    +0.000 N 
ATOM     22  C   UNL     1       3.042   6.378  18.758  0.00  0.00    +0.000 A 
ATOM     23  C   UNL     1       4.170   6.862  18.106  0.00  0.00    +0.000 A 
ATOM     24  C   UNL     1       4.670   5.805  17.305  0.00  0.00    +0.000 A 
ATOM     25  S   UNL     1       6.027   5.466  16.285  0.00  0.00    +0.000 S 
ATOM     26  C   UNL     1       5.396   3.896  15.982  0.00  0.00    +0.000 A 
ATOM     27  C   UNL     1       4.201   3.633  16.621  0.00  0.00    +0.000 A 
ATOM     28  C   UNL     1       3.802   4.762  17.385  0.00  0.00    +0.000 A 
BRANCH  21  30
ATOM     29  C   UNL     1       1.926   3.241  19.566  0.00  0.00    +0.000 C 
ATOM     30  C   UNL     1       1.618   4.281  18.500  0.00  0.00    +0.000 C 
ENDBRANCH  21  30
ENDBRANCH   1  22
TORSDOF 3
ENDMDL
MODEL 7
REMARK VINA RESULT:      -6.9      1.538      2.167
REMARK  Name = 
REMARK  4 active torsions:
REMARK  status: ('A' for Active; 'I' for Inactive)
REMARK    1  A    between atoms: C_1  and  C_2
REMARK    2  A    between atoms: C_2  and  N_3
REMARK    3  A    between atoms: C_4  and  C_5
REMARK    4  A    between atoms: C_10  and  C_11
REMARK                            x       y       z     vdW  Elec       q    Type
REMARK                         _______ _______ _______ _____ _____    ______ ____
ROOT
ATOM      1  C   UNL     1      -0.072  12.734  19.986  0.00  0.00    +0.000 C 
ATOM      2  O   UNL     1       0.761  13.634  20.223  0.00  0.00    +0.000 OA
ATOM      3  N   UNL     1       0.336  11.527  19.401  0.00  0.00    +0.000 N 
ATOM      4  C   UNL     1       1.772  11.330  19.271  0.00  0.00    +0.000 C 
ATOM      5  C   UNL     1       2.088  10.481  18.052  0.00  0.00    +0.000 C 
ATOM      6  C   UNL     1       1.382   9.114  18.101  0.00  0.00    +0.000 C 
ATOM      7  C   UNL     1      -0.128   9.400  18.218  0.00  0.00    +0.000 C 
ATOM      8  C   UNL     1      -0.452  10.298  19.422  0.00  0.00    +0.000 C 
ENDROOT
BRANCH   6   9
ATOM      9  C   UNL     1       1.780   8.154  19.237  0.00  0.00    +0.000 C 
ATOM     10  O   UNL     1       1.588   8.490  20.413  0.00  0.00    +0.000 OA
ATOM     11  N   UNL     1       2.304   6.902  18.967  0.00  0.00    +0.000 N 
ATOM     12  C   UNL     1       2.376   5.977  20.113  0.00  0.00    +0.000 C 
ATOM     13  C   UNL     1       3.554   5.008  19.994  0.00  0.00    +0.000 C 
ATOM     14  C   UNL     1       3.352   4.229  18.693  0.00  0.00    +0.000 C 
ATOM     15  C   UNL     1       3.458   5.242  17.555  0.00  0.00    +0.000 C 
ATOM     16  C   UNL     1       2.347   6.275  17.641  0.00  0.00    +0.000 C 
ATOM     17  O   UNL     1       2.059   3.593  18.814  0.00  0.00    +0.000 OA
ATOM     18  C   UNL     1       2.408   2.284  19.282  0.00  0.00    +0.000 C 
ATOM     19  C   UNL     1       3.503   2.001  18.303  0.00  0.00    +0.000 C 
ATOM     20  O   UNL     1       4.317   3.184  18.465  0.00  0.00    +0.000 OA
ENDBRANCH   6   9
BRANCH   1  22
ATOM     21  N   UNL     1      -1.913  12.676  21.671  0.00  0.00    +0.000 N 
ATOM     22  C   UNL     1      -1.459  12.887  20.377  0.00  0.00    +0.000 A 
ATOM     23  C   UNL     1      -2.554  13.292  19.622  0.00  0.00    +0.000 A 
ATOM     24  C   UNL     1      -3.701  13.135  20.441  0.00  0.00    +0.000 A 
ATOM     25  S   UNL     1      -5.422  13.275  20.320  0.00  0.00    +0.000 S 
ATOM     26  C   UNL     1      -5.566  12.815  21.970  0.00  0.00    +0.000 A 
ATOM     27  C   UNL     1      -4.361  12.569  22.597  0.00  0.00    +0.000 A 
ATOM     28  C   UNL     1      -3.292  12.762  21.681  0.00  0.00    +0.000 A 
BRANCH  21  30
ATOM     29  C   UNL     1      -1.015  10.850  23.066  0.00  0.00    +0.000 C 
ATOM     30  C   UNL     1      -1.119  12.351  22.845  0.00  0.00    +0.000 C 
ENDBRANCH  21  30
ENDBRANCH   1  22
TORSDOF 3
ENDMDL
MODEL 8
REMARK VINA RESULT:      -6.9      5.302      7.566
REMARK  Name = 
REMARK  4 active torsions:
REMARK  status: ('A' for Active; 'I' for Inactive)
REMARK    1  A    between atoms: C_1  and  C_2
REMARK    2  A    between atoms: C_2  and  N_3
REMARK    3  A    between atoms: C_4  and  C_5
REMARK    4  A    between atoms: C_10  and  C_11
REMARK                            x       y       z     vdW  Elec       q    Type
REMARK                         _______ _______ _______ _____ _____    ______ ____
ROOT
ATOM      1  C   UNL     1       0.920  12.245  20.531  0.00  0.00    +0.000 C 
ATOM      2  O   UNL     1       1.320  11.619  21.535  0.00  0.00    +0.000 OA
ATOM      3  N   UNL     1       1.598  13.392  20.094  0.00  0.00    +0.000 N 
ATOM      4  C   UNL     1       2.863  13.680  20.755  0.00  0.00    +0.000 C 
ATOM      5  C   UNL     1       3.114  15.177  20.800  0.00  0.00    +0.000 C 
ATOM      6  C   UNL     1       3.108  15.808  19.396  0.00  0.00    +0.000 C 
ATOM      7  C   UNL     1       1.739  15.481  18.770  0.00  0.00    +0.000 C 
ATOM      8  C   UNL     1       1.455  13.971  18.762  0.00  0.00    +0.000 C 
ENDROOT
BRANCH   6   9
ATOM      9  C   UNL     1       4.207  15.358  18.416  0.00  0.00    +0.000 C 
ATOM     10  O   UNL     1       3.927  15.196  17.221  0.00  0.00    +0.000 OA
ATOM     11  N   UNL     1       5.512  15.176  18.837  0.00  0.00    +0.000 N 
ATOM     12  C   UNL     1       6.515  15.027  17.766  0.00  0.00    +0.000 C 
ATOM     13  C   UNL     1       7.680  14.131  18.194  0.00  0.00    +0.000 C 
ATOM     14  C   UNL     1       8.309  14.786  19.424  0.00  0.00    +0.000 C 
ATOM     15  C   UNL     1       7.254  14.746  20.528  0.00  0.00    +0.000 C 
ATOM     16  C   UNL     1       6.037  15.573  20.148  0.00  0.00    +0.000 C 
ATOM     17  O   UNL     1       8.694  16.116  19.007  0.00  0.00    +0.000 OA
ATOM     18  C   UNL     1      10.076  15.939  18.671  0.00  0.00    +0.000 C 
ATOM     19  C   UNL     1      10.490  15.185  19.895  0.00  0.00    +0.000 C 
ATOM     20  O   UNL     1       9.500  14.133  19.907  0.00  0.00    +0.000 OA
ENDBRANCH   6   9
BRANCH   1  22
ATOM     21  N   UNL     1      -0.084  10.800  18.760  0.00  0.00    +0.000 N 
ATOM     22  C   UNL     1      -0.204  11.759  19.755  0.00  0.00    +0.000 A 
ATOM     23  C   UNL     1      -1.553  12.080  19.850  0.00  0.00    +0.000 A 
ATOM     24  C   UNL     1      -2.209  11.439  18.770  0.00  0.00    +0.000 A 
ATOM     25  S   UNL     1      -3.784  11.359  18.058  0.00  0.00    +0.000 S 
ATOM     26  C   UNL     1      -3.184  10.269  16.872  0.00  0.00    +0.000 A 
ATOM     27  C   UNL     1      -1.843   9.968  17.007  0.00  0.00    +0.000 A 
ATOM     28  C   UNL     1      -1.301  10.664  18.120  0.00  0.00    +0.000 A 
BRANCH  21  30
ATOM     29  C   UNL     1       1.357   8.860  19.255  0.00  0.00    +0.000 C 
ATOM     30  C   UNL     1       1.114  10.074  18.372  0.00  0.00    +0.000 C 
ENDBRANCH  21  30
ENDBRANCH   1  22
TORSDOF 3
ENDMDL
MODEL 9
REMARK VINA RESULT:      -6.8      2.440      3.106
REMARK  Name = 
REMARK  4 active torsions:
REMARK  status: ('A' for Active; 'I' for Inactive)
REMARK    1  A    between atoms: C_1  and  C_2
REMARK    2  A    between atoms: C_2  and  N_3
REMARK    3  A    between atoms: C_4  and  C_5
REMARK    4  A    between atoms: C_10  and  C_11
REMARK                            x       y       z     vdW  Elec       q    Type
REMARK                         _______ _______ _______ _____ _____    ______ ____
ROOT
ATOM      1  C   UNL     1      -1.051  12.220  19.145  0.00  0.00    +0.000 C 
ATOM      2  O   UNL     1      -0.575  13.259  19.649  0.00  0.00    +0.000 OA
ATOM      3  N   UNL     1      -0.208  11.165  18.766  0.00  0.00    +0.000 N 
ATOM      4  C   UNL     1       1.187  11.285  19.163  0.00  0.00    +0.000 C 
ATOM      5  C   UNL     1       2.091  10.600  18.153  0.00  0.00    +0.000 C 
ATOM      6  C   UNL     1       1.732   9.115  17.969  0.00  0.00    +0.000 C 
ATOM      7  C   UNL     1       0.255   9.068  17.532  0.00  0.00    +0.000 C 
ATOM      8  C   UNL     1      -0.662   9.799  18.524  0.00  0.00    +0.000 C 
ENDROOT
BRANCH   6   9
ATOM      9  C   UNL     1       1.903   8.190  19.189  0.00  0.00    +0.000 C 
ATOM     10  O   UNL     1       1.632   8.618  20.319  0.00  0.00    +0.000 OA
ATOM     11  N   UNL     1       2.309   6.876  19.040  0.00  0.00    +0.000 N 
ATOM     12  C   UNL     1       2.161   6.021  20.233  0.00  0.00    +0.000 C 
ATOM     13  C   UNL     1       3.230   4.928  20.290  0.00  0.00    +0.000 C 
ATOM     14  C   UNL     1       3.075   4.096  19.017  0.00  0.00    +0.000 C 
ATOM     15  C   UNL     1       3.408   5.019  17.847  0.00  0.00    +0.000 C 
ATOM     16  C   UNL     1       2.417   6.167  17.760  0.00  0.00    +0.000 C 
ATOM     17  O   UNL     1       1.713   3.608  19.030  0.00  0.00    +0.000 OA
ATOM     18  C   UNL     1       1.865   2.301  19.599  0.00  0.00    +0.000 C 
ATOM     19  C   UNL     1       3.015   1.844  18.758  0.00  0.00    +0.000 C 
ATOM     20  O   UNL     1       3.936   2.942  18.946  0.00  0.00    +0.000 OA
ENDBRANCH   6   9
BRANCH   1  22
ATOM     21  N   UNL     1      -3.109  11.773  17.803  0.00  0.00    +0.000 N 
ATOM     22  C   UNL     1      -2.485  12.052  19.010  0.00  0.00    +0.000 A 
ATOM     23  C   UNL     1      -3.477  12.084  19.984  0.00  0.00    +0.000 A 
ATOM     24  C   UNL     1      -4.721  12.008  19.309  0.00  0.00    +0.000 A 
ATOM     25  S   UNL     1      -6.412  12.087  19.671  0.00  0.00    +0.000 S 
ATOM     26  C   UNL     1      -6.770  11.864  18.005  0.00  0.00    +0.000 A 
ATOM     27  C   UNL     1      -5.657  11.728  17.200  0.00  0.00    +0.000 A 
ATOM     28  C   UNL     1      -4.478  11.817  17.986  0.00  0.00    +0.000 A 
BRANCH  21  30
ATOM     29  C   UNL     1      -2.920  10.209  15.905  0.00  0.00    +0.000 C 
ATOM     30  C   UNL     1      -2.477  11.529  16.517  0.00  0.00    +0.000 C 
ENDBRANCH  21  30
ENDBRANCH   1  22
TORSDOF 3
ENDMDL
