MODEL 1
REMARK VINA RESULT:      -8.4      0.000      0.000
REMARK  Name = 
REMARK  8 active torsions:
REMARK  status: ('A' for Active; 'I' for Inactive)
REMARK    1  A    between atoms: C_1  and  C_2
REMARK    2  A    between atoms: C_2  and  C_3
REMARK    3  A    between atoms: C_2  and  C_4
REMARK    4  A    between atoms: N_8  and  C_9
REMARK    5  A    between atoms: C_9  and  C_10
REMARK    6  A    between atoms: C_12  and  C_13
REMARK    7  A    between atoms: N_15  and  C_16
REMARK    8  A    between atoms: C_16  and  C_17
REMARK                            x       y       z     vdW  Elec       q    Type
REMARK                         _______ _______ _______ _____ _____    ______ ____
ROOT
ATOM      1  C   UNL     1       5.638   4.134  18.070  0.00  0.00    +0.000 A 
ATOM      2  C   UNL     1       5.377   4.280  16.723  0.00  0.00    +0.000 A 
ATOM      3  C   UNL     1       6.637   4.499  16.108  0.00  0.00    +0.000 A 
ATOM      4  N   UNL     1       7.613   4.590  17.037  0.00  0.00    +0.000 NA
ATOM      5  N   UNL     1       6.971   4.410  18.207  0.00  0.00    +0.000 N 
ATOM      6  H   UNL     1       7.522   4.432  19.060  0.00  0.00    +0.000 HD
ENDROOT
BRANCH   3   7
ATOM      7  C   UNL     1       6.920   4.549  14.659  0.00  0.00    +0.000 C 
ATOM      8  O   UNL     1       7.713   5.337  14.157  0.00  0.00    +0.000 OA
ATOM      9  N   UNL     1       6.169   3.663  13.921  0.00  0.00    +0.000 N 
ATOM     10  H   UNL     1       5.623   2.990  14.453  0.00  0.00    +0.000 HD
BRANCH   9  11
ATOM     11  C   UNL     1       6.278   3.580  12.468  0.00  0.00    +0.000 C 
BRANCH  11  12
ATOM     12  C   UNL     1       5.016   3.136  11.716  0.00  0.00    +0.000 C 
ATOM     13  F   UNL     1       4.735   3.930  10.658  0.00  0.00    +0.000 F 
ATOM     14  F   UNL     1       5.176   1.878  11.238  0.00  0.00    +0.000 F 
ATOM     15  F   UNL     1       3.933   3.120  12.525  0.00  0.00    +0.000 F 
ENDBRANCH  11  12
ENDBRANCH   9  11
ENDBRANCH   3   7
BRANCH   1  16
ATOM     16  C   UNL     1       4.786   3.682  19.210  0.00  0.00    +0.000 C 
BRANCH  16  21
ATOM     17  C   UNL     1       2.404   4.208  19.920  0.00  0.00    +0.000 A 
ATOM     18  N   UNL     1       1.646   5.277  20.080  0.00  0.00    +0.000 NA
ATOM     19  C   UNL     1       2.433   6.353  19.777  0.00  0.00    +0.000 A 
ATOM     20  C   UNL     1       3.698   5.948  19.440  0.00  0.00    +0.000 A 
ATOM     21  N   UNL     1       3.689   4.581  19.552  0.00  0.00    +0.000 N 
BRANCH  17  23
ATOM     22  C   UNL     1       1.472   2.607  21.577  0.00  0.00    +0.000 C 
ATOM     23  C   UNL     1       1.941   2.791  20.134  0.00  0.00    +0.000 C 
ATOM     24  C   UNL     1       0.809   2.416  19.171  0.00  0.00    +0.000 C 
ENDBRANCH  17  23
ENDBRANCH  16  21
ENDBRANCH   1  16
TORSDOF 6
ENDMDL
MODEL 2
REMARK VINA RESULT:      -8.3      1.005      2.291
REMARK  Name = 
REMARK  8 active torsions:
REMARK  status: ('A' for Active; 'I' for Inactive)
REMARK    1  A    between atoms: C_1  and  C_2
REMARK    2  A    between atoms: C_2  and  C_3
REMARK    3  A    between atoms: C_2  and  C_4
REMARK    4  A    between atoms: N_8  and  C_9
REMARK    5  A    between atoms: C_9  and  C_10
REMARK    6  A    between atoms: C_12  and  C_13
REMARK    7  A    between atoms: N_15  and  C_16
REMARK    8  A    between atoms: C_16  and  C_17
REMARK                            x       y       z     vdW  Elec       q    Type
REMARK                         _______ _______ _______ _____ _____    ______ ____
ROOT
ATOM      1  C   UNL     1       6.090   4.715  18.046  0.00  0.00    +0.000 A 
ATOM      2  C   UNL     1       5.810   5.052  16.738  0.00  0.00    +0.000 A 
ATOM      3  C   UNL     1       6.968   4.703  15.995  0.00  0.00    +0.000 A 
ATOM      4  N   UNL     1       7.951   4.273  16.814  0.00  0.00    +0.000 NA
ATOM      5  N   UNL     1       7.404   4.334  18.044  0.00  0.00    +0.000 N 
ATOM      6  H   UNL     1       7.974   4.044  18.833  0.00  0.00    +0.000 HD
ENDROOT
BRANCH   3   7
ATOM      7  C   UNL     1       7.114   4.710  14.525  0.00  0.00    +0.000 C 
ATOM      8  O   UNL     1       7.786   5.538  13.921  0.00  0.00    +0.000 OA
ATOM      9  N   UNL     1       6.380   3.731  13.895  0.00  0.00    +0.000 N 
ATOM     10  H   UNL     1       5.945   3.041  14.500  0.00  0.00    +0.000 HD
BRANCH   9  11
ATOM     11  C   UNL     1       6.364   3.591  12.442  0.00  0.00    +0.000 C 
BRANCH  11  12
ATOM     12  C   UNL     1       5.030   3.164  11.815  0.00  0.00    +0.000 C 
ATOM     13  F   UNL     1       5.075   1.915  11.299  0.00  0.00    +0.000 F 
ATOM     14  F   UNL     1       4.051   3.172  12.752  0.00  0.00    +0.000 F 
ATOM     15  F   UNL     1       4.648   4.009  10.832  0.00  0.00    +0.000 F 
ENDBRANCH  11  12
ENDBRANCH   9  11
ENDBRANCH   3   7
BRANCH   1  16
ATOM     16  C   UNL     1       5.229   4.635  19.264  0.00  0.00    +0.000 C 
BRANCH  16  21
ATOM     17  C   UNL     1       2.724   5.038  19.130  0.00  0.00    +0.000 A 
ATOM     18  N   UNL     1       1.631   4.331  18.913  0.00  0.00    +0.000 NA
ATOM     19  C   UNL     1       2.044   3.047  18.692  0.00  0.00    +0.000 A 
ATOM     20  C   UNL     1       3.410   2.960  18.758  0.00  0.00    +0.000 A 
ATOM     21  N   UNL     1       3.849   4.234  19.016  0.00  0.00    +0.000 N 
BRANCH  17  23
ATOM     22  C   UNL     1       2.455   7.312  18.161  0.00  0.00    +0.000 C 
ATOM     23  C   UNL     1       2.742   6.514  19.433  0.00  0.00    +0.000 C 
ATOM     24  C   UNL     1       1.720   6.881  20.515  0.00  0.00    +0.000 C 
ENDBRANCH  17  23
ENDBRANCH  16  21
ENDBRANCH   1  16
TORSDOF 6
ENDMDL
MODEL 3
REMARK VINA RESULT:      -8.0      0.978      2.065
REMARK  Name = 
REMARK  8 active torsions:
REMARK  status: ('A' for Active; 'I' for Inactive)
REMARK    1  A    between atoms: C_1  and  C_2
REMARK    2  A    between atoms: C_2  and  C_3
REMARK    3  A    between atoms: C_2  and  C_4
REMARK    4  A    between atoms: N_8  and  C_9
REMARK    5  A    between atoms: C_9  and  C_10
REMARK    6  A    between atoms: C_12  and  C_13
REMARK    7  A    between atoms: N_15  and  C_16
REMARK    8  A    between atoms: C_16  and  C_17
REMARK                            x       y       z     vdW  Elec       q    Type
REMARK                         _______ _______ _______ _____ _____    ______ ____
ROOT
ATOM      1  C   UNL     1       5.783   4.108  18.089  0.00  0.00    +0.000 A 
ATOM      2  C   UNL     1       5.426   4.201  16.760  0.00  0.00    +0.000 A 
ATOM      3  C   UNL     1       6.627   4.488  16.059  0.00  0.00    +0.000 A 
ATOM      4  N   UNL     1       7.652   4.668  16.919  0.00  0.00    +0.000 NA
ATOM      5  N   UNL     1       7.100   4.476  18.133  0.00  0.00    +0.000 N 
ATOM      6  H   UNL     1       7.701   4.557  18.947  0.00  0.00    +0.000 HD
ENDROOT
BRANCH   3   7
ATOM      7  C   UNL     1       6.813   4.519  14.594  0.00  0.00    +0.000 C 
ATOM      8  O   UNL     1       7.296   5.475  13.998  0.00  0.00    +0.000 OA
ATOM      9  N   UNL     1       6.343   3.394  13.956  0.00  0.00    +0.000 N 
ATOM     10  H   UNL     1       6.059   2.626  14.558  0.00  0.00    +0.000 HD
BRANCH   9  11
ATOM     11  C   UNL     1       6.405   3.245  12.505  0.00  0.00    +0.000 C 
BRANCH  11  12
ATOM     12  C   UNL     1       5.058   3.172  11.771  0.00  0.00    +0.000 C 
ATOM     13  F   UNL     1       4.976   4.052  10.748  0.00  0.00    +0.000 F 
ATOM     14  F   UNL     1       4.880   1.935  11.247  0.00  0.00    +0.000 F 
ATOM     15  F   UNL     1       4.022   3.404  12.607  0.00  0.00    +0.000 F 
ENDBRANCH  11  12
ENDBRANCH   9  11
ENDBRANCH   3   7
BRANCH   1  16
ATOM     16  C   UNL     1       5.038   3.630  19.292  0.00  0.00    +0.000 C 
BRANCH  16  21
ATOM     17  C   UNL     1       2.557   4.172  19.206  0.00  0.00    +0.000 A 
ATOM     18  N   UNL     1       1.425   3.529  18.994  0.00  0.00    +0.000 NA
ATOM     19  C   UNL     1       1.763   2.228  18.744  0.00  0.00    +0.000 A 
ATOM     20  C   UNL     1       3.123   2.066  18.787  0.00  0.00    +0.000 A 
ATOM     21  N   UNL     1       3.635   3.309  19.059  0.00  0.00    +0.000 N 
BRANCH  17  23
ATOM     22  C   UNL     1       2.510   6.471  18.261  0.00  0.00    +0.000 C 
ATOM     23  C   UNL     1       2.661   5.639  19.534  0.00  0.00    +0.000 C 
ATOM     24  C   UNL     1       1.602   6.064  20.557  0.00  0.00    +0.000 C 
ENDBRANCH  17  23
ENDBRANCH  16  21
ENDBRANCH   1  16
TORSDOF 6
ENDMDL
MODEL 4
REMARK VINA RESULT:      -7.8      1.215      2.117
REMARK  Name = 
REMARK  8 active torsions:
REMARK  status: ('A' for Active; 'I' for Inactive)
REMARK    1  A    between atoms: C_1  and  C_2
REMARK    2  A    between atoms: C_2  and  C_3
REMARK    3  A    between atoms: C_2  and  C_4
REMARK    4  A    between atoms: N_8  and  C_9
REMARK    5  A    between atoms: C_9  and  C_10
REMARK    6  A    between atoms: C_12  and  C_13
REMARK    7  A    between atoms: N_15  and  C_16
REMARK    8  A    between atoms: C_16  and  C_17
REMARK                            x       y       z     vdW  Elec       q    Type
REMARK                         _______ _______ _______ _____ _____    ______ ____
ROOT
ATOM      1  C   UNL     1       5.883   4.676  18.018  0.00  0.00    +0.000 A 
ATOM      2  C   UNL     1       5.650   5.002  16.698  0.00  0.00    +0.000 A 
ATOM      3  C   UNL     1       6.852   4.695  16.008  0.00  0.00    +0.000 A 
ATOM      4  N   UNL     1       7.812   4.300  16.872  0.00  0.00    +0.000 NA
ATOM      5  N   UNL     1       7.208   4.343  18.075  0.00  0.00    +0.000 N 
ATOM      6  H   UNL     1       7.753   4.075  18.890  0.00  0.00    +0.000 HD
ENDROOT
BRANCH   3   7
ATOM      7  C   UNL     1       7.063   4.705  14.546  0.00  0.00    +0.000 C 
ATOM      8  O   UNL     1       7.752   5.542  13.973  0.00  0.00    +0.000 OA
ATOM      9  N   UNL     1       6.370   3.719  13.883  0.00  0.00    +0.000 N 
ATOM     10  H   UNL     1       5.917   3.022  14.468  0.00  0.00    +0.000 HD
BRANCH   9  11
ATOM     11  C   UNL     1       6.421   3.581  12.431  0.00  0.00    +0.000 C 
BRANCH  11  12
ATOM     12  C   UNL     1       5.131   3.106  11.748  0.00  0.00    +0.000 C 
ATOM     13  F   UNL     1       5.231   1.845  11.269  0.00  0.00    +0.000 F 
ATOM     14  F   UNL     1       4.105   3.115  12.633  0.00  0.00    +0.000 F 
ATOM     15  F   UNL     1       4.782   3.915  10.723  0.00  0.00    +0.000 F 
ENDBRANCH  11  12
ENDBRANCH   9  11
ENDBRANCH   3   7
BRANCH   1  16
ATOM     16  C   UNL     1       4.972   4.567  19.196  0.00  0.00    +0.000 C 
BRANCH  16  21
ATOM     17  C   UNL     1       2.551   3.798  19.124  0.00  0.00    +0.000 A 
ATOM     18  N   UNL     1       1.890   2.657  19.053  0.00  0.00    +0.000 NA
ATOM     19  C   UNL     1       2.834   1.671  18.989  0.00  0.00    +0.000 A 
ATOM     20  C   UNL     1       4.095   2.207  19.004  0.00  0.00    +0.000 A 
ATOM     21  N   UNL     1       3.918   3.566  19.067  0.00  0.00    +0.000 N 
BRANCH  17  23
ATOM     22  C   UNL     1       2.080   5.713  20.637  0.00  0.00    +0.000 C 
ATOM     23  C   UNL     1       1.906   5.156  19.224  0.00  0.00    +0.000 C 
ATOM     24  C   UNL     1       2.497   6.137  18.205  0.00  0.00    +0.000 C 
ENDBRANCH  17  23
ENDBRANCH  16  21
ENDBRANCH   1  16
TORSDOF 6
ENDMDL
MODEL 5
REMARK VINA RESULT:      -7.8      1.059      1.371
REMARK  Name = 
REMARK  8 active torsions:
REMARK  status: ('A' for Active; 'I' for Inactive)
REMARK    1  A    between atoms: C_1  and  C_2
REMARK    2  A    between atoms: C_2  and  C_3
REMARK    3  A    between atoms: C_2  and  C_4
REMARK    4  A    between atoms: N_8  and  C_9
REMARK    5  A    between atoms: C_9  and  C_10
REMARK    6  A    between atoms: C_12  and  C_13
REMARK    7  A    between atoms: N_15  and  C_16
REMARK    8  A    between atoms: C_16  and  C_17
REMARK                            x       y       z     vdW  Elec       q    Type
REMARK                         _______ _______ _______ _____ _____    ______ ____
ROOT
ATOM      1  C   UNL     1       6.281   5.133  17.972  0.00  0.00    +0.000 A 
ATOM      2  C   UNL     1       6.053   5.496  16.660  0.00  0.00    +0.000 A 
ATOM      3  C   UNL     1       7.058   4.842  15.900  0.00  0.00    +0.000 A 
ATOM      4  N   UNL     1       7.925   4.196  16.709  0.00  0.00    +0.000 NA
ATOM      5  N   UNL     1       7.453   4.429  17.949  0.00  0.00    +0.000 N 
ATOM      6  H   UNL     1       7.957   4.024  18.733  0.00  0.00    +0.000 HD
ENDROOT
BRANCH   3   7
ATOM      7  C   UNL     1       7.151   4.771  14.428  0.00  0.00    +0.000 C 
ATOM      8  O   UNL     1       7.757   5.596  13.753  0.00  0.00    +0.000 OA
ATOM      9  N   UNL     1       6.448   3.722  13.881  0.00  0.00    +0.000 N 
ATOM     10  H   UNL     1       6.072   3.047  14.541  0.00  0.00    +0.000 HD
BRANCH   9  11
ATOM     11  C   UNL     1       6.388   3.498  12.441  0.00  0.00    +0.000 C 
BRANCH  11  12
ATOM     12  C   UNL     1       5.003   3.188  11.858  0.00  0.00    +0.000 C 
ATOM     13  F   UNL     1       4.024   3.241  12.789  0.00  0.00    +0.000 F 
ATOM     14  F   UNL     1       4.688   4.092  10.898  0.00  0.00    +0.000 F 
ATOM     15  F   UNL     1       4.966   1.966  11.282  0.00  0.00    +0.000 F 
ENDBRANCH  11  12
ENDBRANCH   9  11
ENDBRANCH   3   7
BRANCH   1  16
ATOM     16  C   UNL     1       5.470   5.310  19.213  0.00  0.00    +0.000 C 
BRANCH  16  21
ATOM     17  C   UNL     1       3.128   4.323  19.219  0.00  0.00    +0.000 A 
ATOM     18  N   UNL     1       1.915   4.687  18.849  0.00  0.00    +0.000 NA
ATOM     19  C   UNL     1       2.029   5.954  18.351  0.00  0.00    +0.000 A 
ATOM     20  C   UNL     1       3.327   6.389  18.428  0.00  0.00    +0.000 A 
ATOM     21  N   UNL     1       4.027   5.358  19.003  0.00  0.00    +0.000 N 
BRANCH  17  23
ATOM     22  C   UNL     1       2.570   2.695  21.013  0.00  0.00    +0.000 C 
ATOM     23  C   UNL     1       3.477   2.985  19.817  0.00  0.00    +0.000 C 
ATOM     24  C   UNL     1       3.348   1.857  18.786  0.00  0.00    +0.000 C 
ENDBRANCH  17  23
ENDBRANCH  16  21
ENDBRANCH   1  16
TORSDOF 6
ENDMDL
MODEL 6
REMARK VINA RESULT:      -7.6      0.706      1.068
REMARK  Name = 
REMARK  8 active torsions:
REMARK  status: ('A' for Active; 'I' for Inactive)
REMARK    1  A    between atoms: C_1  and  C_2
REMARK    2  A    between atoms: C_2  and  C_3
REMARK    3  A    between atoms: C_2  and  C_4
REMARK    4  A    between atoms: N_8  and  C_9
REMARK    5  A    between atoms: C_9  and  C_10
REMARK    6  A    between atoms: C_12  and  C_13
REMARK    7  A    between atoms: N_15  and  C_16
REMARK    8  A    between atoms: C_16  and  C_17
REMARK                            x       y       z     vdW  Elec       q    Type
REMARK                         _______ _______ _______ _____ _____    ______ ____
ROOT
ATOM      1  C   UNL     1       5.881   4.922  17.850  0.00  0.00    +0.000 A 
ATOM      2  C   UNL     1       5.653   4.500  16.556  0.00  0.00    +0.000 A 
ATOM      3  C   UNL     1       6.675   5.096  15.772  0.00  0.00    +0.000 A 
ATOM      4  N   UNL     1       7.431   5.926  16.522  0.00  0.00    +0.000 NA
ATOM      5  N   UNL     1       6.898   5.831  17.755  0.00  0.00    +0.000 N 
ATOM      6  H   UNL     1       7.322   6.377  18.500  0.00  0.00    +0.000 HD
ENDROOT
BRANCH   3   7
ATOM      7  C   UNL     1       6.975   4.826  14.351  0.00  0.00    +0.000 C 
ATOM      8  O   UNL     1       7.807   5.455  13.708  0.00  0.00    +0.000 OA
ATOM      9  N   UNL     1       6.190   3.837  13.802  0.00  0.00    +0.000 N 
ATOM     10  H   UNL     1       5.609   3.316  14.453  0.00  0.00    +0.000 HD
BRANCH   9  11
ATOM     11  C   UNL     1       6.309   3.444  12.401  0.00  0.00    +0.000 C 
BRANCH  11  12
ATOM     12  C   UNL     1       4.999   3.101  11.678  0.00  0.00    +0.000 C 
ATOM     13  F   UNL     1       5.011   1.859  11.143  0.00  0.00    +0.000 F 
ATOM     14  F   UNL     1       3.961   3.149  12.548  0.00  0.00    +0.000 F 
ATOM     15  F   UNL     1       4.731   3.980  10.688  0.00  0.00    +0.000 F 
ENDBRANCH  11  12
ENDBRANCH   9  11
ENDBRANCH   3   7
BRANCH   1  16
ATOM     16  C   UNL     1       5.300   4.494  19.157  0.00  0.00    +0.000 C 
BRANCH  16  21
ATOM     17  C   UNL     1       2.871   4.365  19.893  0.00  0.00    +0.000 A 
ATOM     18  N   UNL     1       1.838   5.180  19.997  0.00  0.00    +0.000 NA
ATOM     19  C   UNL     1       2.278   6.410  19.598  0.00  0.00    +0.000 A 
ATOM     20  C   UNL     1       3.605   6.361  19.256  0.00  0.00    +0.000 A 
ATOM     21  N   UNL     1       3.992   5.062  19.465  0.00  0.00    +0.000 N 
BRANCH  17  23
ATOM     22  C   UNL     1       2.317   2.686  21.641  0.00  0.00    +0.000 C 
ATOM     23  C   UNL     1       2.838   2.894  20.219  0.00  0.00    +0.000 C 
ATOM     24  C   UNL     1       1.964   2.116  19.230  0.00  0.00    +0.000 C 
ENDBRANCH  17  23
ENDBRANCH  16  21
ENDBRANCH   1  16
TORSDOF 6
ENDMDL
MODEL 7
REMARK VINA RESULT:      -7.6      1.883      2.300
REMARK  Name = 
REMARK  8 active torsions:
REMARK  status: ('A' for Active; 'I' for Inactive)
REMARK    1  A    between atoms: C_1  and  C_2
REMARK    2  A    between atoms: C_2  and  C_3
REMARK    3  A    between atoms: C_2  and  C_4
REMARK    4  A    between atoms: N_8  and  C_9
REMARK    5  A    between atoms: C_9  and  C_10
REMARK    6  A    between atoms: C_12  and  C_13
REMARK    7  A    between atoms: N_15  and  C_16
REMARK    8  A    between atoms: C_16  and  C_17
REMARK                            x       y       z     vdW  Elec       q    Type
REMARK                         _______ _______ _______ _____ _____    ______ ____
ROOT
ATOM      1  C   UNL     1       6.266   4.970  16.181  0.00  0.00    +0.000 A 
ATOM      2  C   UNL     1       5.627   4.331  15.139  0.00  0.00    +0.000 A 
ATOM      3  C   UNL     1       6.489   4.465  14.019  0.00  0.00    +0.000 A 
ATOM      4  N   UNL     1       7.554   5.237  14.325  0.00  0.00    +0.000 NA
ATOM      5  N   UNL     1       7.365   5.560  15.619  0.00  0.00    +0.000 N 
ATOM      6  H   UNL     1       8.063   6.143  16.070  0.00  0.00    +0.000 HD
ENDROOT
BRANCH   3   7
ATOM      7  C   UNL     1       6.342   3.812  12.703  0.00  0.00    +0.000 C 
ATOM      8  O   UNL     1       7.274   3.655  11.923  0.00  0.00    +0.000 OA
ATOM      9  N   UNL     1       5.047   3.445  12.412  0.00  0.00    +0.000 N 
ATOM     10  H   UNL     1       4.379   3.531  13.173  0.00  0.00    +0.000 HD
BRANCH   9  11
ATOM     11  C   UNL     1       4.687   2.815  11.147  0.00  0.00    +0.000 C 
BRANCH  11  12
ATOM     12  C   UNL     1       3.404   3.323  10.475  0.00  0.00    +0.000 C 
ATOM     13  F   UNL     1       3.342   3.001   9.163  0.00  0.00    +0.000 F 
ATOM     14  F   UNL     1       2.317   2.773  11.070  0.00  0.00    +0.000 F 
ATOM     15  F   UNL     1       3.282   4.664  10.582  0.00  0.00    +0.000 F 
ENDBRANCH  11  12
ENDBRANCH   9  11
ENDBRANCH   3   7
BRANCH   1  16
ATOM     16  C   UNL     1       5.993   5.007  17.649  0.00  0.00    +0.000 C 
BRANCH  16  21
ATOM     17  C   UNL     1       3.626   4.371  18.319  0.00  0.00    +0.000 A 
ATOM     18  N   UNL     1       2.471   4.977  18.517  0.00  0.00    +0.000 NA
ATOM     19  C   UNL     1       2.694   6.308  18.298  0.00  0.00    +0.000 A 
ATOM     20  C   UNL     1       4.007   6.531  17.976  0.00  0.00    +0.000 A 
ATOM     21  N   UNL     1       4.610   5.299  18.010  0.00  0.00    +0.000 N 
BRANCH  17  23
ATOM     22  C   UNL     1       4.077   2.507  19.902  0.00  0.00    +0.000 C 
ATOM     23  C   UNL     1       3.845   2.884  18.439  0.00  0.00    +0.000 C 
ATOM     24  C   UNL     1       2.655   2.093  17.884  0.00  0.00    +0.000 C 
ENDBRANCH  17  23
ENDBRANCH  16  21
ENDBRANCH   1  16
TORSDOF 6
ENDMDL
MODEL 8
REMARK VINA RESULT:      -7.5      1.266      1.975
REMARK  Name = 
REMARK  8 active torsions:
REMARK  status: ('A' for Active; 'I' for Inactive)
REMARK    1  A    between atoms: C_1  and  C_2
REMARK    2  A    between atoms: C_2  and  C_3
REMARK    3  A    between atoms: C_2  and  C_4
REMARK    4  A    between atoms: N_8  and  C_9
REMARK    5  A    between atoms: C_9  and  C_10
REMARK    6  A    between atoms: C_12  and  C_13
REMARK    7  A    between atoms: N_15  and  C_16
REMARK    8  A    between atoms: C_16  and  C_17
REMARK                            x       y       z     vdW  Elec       q    Type
REMARK                         _______ _______ _______ _____ _____    ______ ____
ROOT
ATOM      1  C   UNL     1       5.860   4.406  18.126  0.00  0.00    +0.000 A 
ATOM      2  C   UNL     1       5.640   4.747  16.807  0.00  0.00    +0.000 A 
ATOM      3  C   UNL     1       6.913   4.702  16.181  0.00  0.00    +0.000 A 
ATOM      4  N   UNL     1       7.883   4.451  17.086  0.00  0.00    +0.000 NA
ATOM      5  N   UNL     1       7.219   4.322  18.251  0.00  0.00    +0.000 N 
ATOM      6  H   UNL     1       7.761   4.119  19.087  0.00  0.00    +0.000 HD
ENDROOT
BRANCH   3   7
ATOM      7  C   UNL     1       7.196   4.824  14.736  0.00  0.00    +0.000 C 
ATOM      8  O   UNL     1       8.032   5.594  14.278  0.00  0.00    +0.000 OA
ATOM      9  N   UNL     1       6.394   4.029  13.950  0.00  0.00    +0.000 N 
ATOM     10  H   UNL     1       5.811   3.358  14.443  0.00  0.00    +0.000 HD
BRANCH   9  11
ATOM     11  C   UNL     1       6.495   4.028  12.494  0.00  0.00    +0.000 C 
BRANCH  11  12
ATOM     12  C   UNL     1       5.953   2.785  11.775  0.00  0.00    +0.000 C 
ATOM     13  F   UNL     1       6.919   2.099  11.123  0.00  0.00    +0.000 F 
ATOM     14  F   UNL     1       5.398   1.934  12.672  0.00  0.00    +0.000 F 
ATOM     15  F   UNL     1       4.992   3.105  10.881  0.00  0.00    +0.000 F 
ENDBRANCH  11  12
ENDBRANCH   9  11
ENDBRANCH   3   7
BRANCH   1  16
ATOM     16  C   UNL     1       4.925   4.071  19.240  0.00  0.00    +0.000 C 
BRANCH  16  21
ATOM     17  C   UNL     1       2.600   3.110  19.595  0.00  0.00    +0.000 A 
ATOM     18  N   UNL     1       1.782   2.278  18.976  0.00  0.00    +0.000 NA
ATOM     19  C   UNL     1       2.427   1.883  17.838  0.00  0.00    +0.000 A 
ATOM     20  C   UNL     1       3.653   2.488  17.741  0.00  0.00    +0.000 A 
ATOM     21  N   UNL     1       3.757   3.289  18.850  0.00  0.00    +0.000 N 
BRANCH  17  23
ATOM     22  C   UNL     1       1.485   5.054  20.670  0.00  0.00    +0.000 C 
ATOM     23  C   UNL     1       2.302   3.785  20.909  0.00  0.00    +0.000 C 
ATOM     24  C   UNL     1       1.544   2.854  21.862  0.00  0.00    +0.000 C 
ENDBRANCH  17  23
ENDBRANCH  16  21
ENDBRANCH   1  16
TORSDOF 6
ENDMDL
MODEL 9
REMARK VINA RESULT:      -7.5      1.113      1.420
REMARK  Name = 
REMARK  8 active torsions:
REMARK  status: ('A' for Active; 'I' for Inactive)
REMARK    1  A    between atoms: C_1  and  C_2
REMARK    2  A    between atoms: C_2  and  C_3
REMARK    3  A    between atoms: C_2  and  C_4
REMARK    4  A    between atoms: N_8  and  C_9
REMARK    5  A    between atoms: C_9  and  C_10
REMARK    6  A    between atoms: C_12  and  C_13
REMARK    7  A    between atoms: N_15  and  C_16
REMARK    8  A    between atoms: C_16  and  C_17
REMARK                            x       y       z     vdW  Elec       q    Type
REMARK                         _______ _______ _______ _____ _____    ______ ____
ROOT
ATOM      1  C   UNL     1       6.148   4.809  18.036  0.00  0.00    +0.000 A 
ATOM      2  C   UNL     1       5.876   5.149  16.727  0.00  0.00    +0.000 A 
ATOM      3  C   UNL     1       7.005   4.728  15.978  0.00  0.00    +0.000 A 
ATOM      4  N   UNL     1       7.969   4.251  16.794  0.00  0.00    +0.000 NA
ATOM      5  N   UNL     1       7.437   4.355  18.027  0.00  0.00    +0.000 N 
ATOM      6  H   UNL     1       7.997   4.041  18.814  0.00  0.00    +0.000 HD
ENDROOT
BRANCH   3   7
ATOM      7  C   UNL     1       7.139   4.713  14.507  0.00  0.00    +0.000 C 
ATOM      8  O   UNL     1       7.803   5.534  13.884  0.00  0.00    +0.000 OA
ATOM      9  N   UNL     1       6.403   3.722  13.898  0.00  0.00    +0.000 N 
ATOM     10  H   UNL     1       5.976   3.039  14.518  0.00  0.00    +0.000 HD
BRANCH   9  11
ATOM     11  C   UNL     1       6.375   3.559  12.448  0.00  0.00    +0.000 C 
BRANCH  11  12
ATOM     12  C   UNL     1       5.017   3.200  11.830  0.00  0.00    +0.000 C 
ATOM     13  F   UNL     1       4.658   4.045  10.837  0.00  0.00    +0.000 F 
ATOM     14  F   UNL     1       5.062   1.955  11.296  0.00  0.00    +0.000 F 
ATOM     15  F   UNL     1       4.032   3.201  12.756  0.00  0.00    +0.000 F 
ENDBRANCH  11  12
ENDBRANCH   9  11
ENDBRANCH   3   7
BRANCH   1  16
ATOM     16  C   UNL     1       5.294   4.790  19.261  0.00  0.00    +0.000 C 
BRANCH  16  21
ATOM     17  C   UNL     1       2.881   4.069  18.924  0.00  0.00    +0.000 A 
ATOM     18  N   UNL     1       1.726   4.633  18.627  0.00  0.00    +0.000 NA
ATOM     19  C   UNL     1       1.974   5.971  18.498  0.00  0.00    +0.000 A 
ATOM     20  C   UNL     1       3.298   6.241  18.732  0.00  0.00    +0.000 A 
ATOM     21  N   UNL     1       3.875   5.032  19.026  0.00  0.00    +0.000 N 
BRANCH  17  23
ATOM     22  C   UNL     1       3.599   1.938  17.863  0.00  0.00    +0.000 C 
ATOM     23  C   UNL     1       3.081   2.592  19.144  0.00  0.00    +0.000 C 
ATOM     24  C   UNL     1       4.057   2.320  20.294  0.00  0.00    +0.000 C 
ENDBRANCH  17  23
ENDBRANCH  16  21
ENDBRANCH   1  16
TORSDOF 6
ENDMDL
