MODEL 1
REMARK VINA RESULT:      -8.0      0.000      0.000
REMARK  Name = 
REMARK  9 active torsions:
REMARK  status: ('A' for Active; 'I' for Inactive)
REMARK    1  A    between atoms: C_1  and  C_2
REMARK    2  A    between atoms: C_6  and  C_7
REMARK    3  A    between atoms: C_8  and  O_9
REMARK    4  A    between atoms: O_9  and  C_10
REMARK    5  A    between atoms: C_10  and  C_12
REMARK    6  A    between atoms: C_12  and  S_13
REMARK    7  A    between atoms: S_13  and  C_14
REMARK    8  A    between atoms: C_17  and  C_18
REMARK    9  A    between atoms: C_23  and  O_24
REMARK                            x       y       z     vdW  Elec       q    Type
REMARK                         _______ _______ _______ _____ _____    ______ ____
ROOT
ATOM      1  S   UNL     1       6.030   7.337  17.219  0.00  0.00    +0.000 S 
ENDROOT
BRANCH   1   2
ATOM      2  C   UNL     1       4.429   6.969  17.742  0.00  0.00    +0.000 A 
ATOM      3  N   UNL     1       3.325   7.636  17.478  0.00  0.00    +0.000 NA
ATOM      4  N   UNL     1       2.289   6.923  18.074  0.00  0.00    +0.000 NA
ATOM      5  C   UNL     1       2.849   5.895  18.686  0.00  0.00    +0.000 A 
ATOM      6  O   UNL     1       4.198   5.858  18.498  0.00  0.00    +0.000 OA
BRANCH   5   7
ATOM      7  C   UNL     1       2.269   4.793  19.441  0.00  0.00    +0.000 A 
ATOM      8  C   UNL     1       2.562   4.658  20.808  0.00  0.00    +0.000 A 
ATOM      9  C   UNL     1       2.027   3.601  21.555  0.00  0.00    +0.000 A 
ATOM     10  C   UNL     1       1.194   2.664  20.947  0.00  0.00    +0.000 A 
ATOM     11  C   UNL     1       0.879   2.789  19.595  0.00  0.00    +0.000 A 
ATOM     12  C   UNL     1       1.415   3.843  18.852  0.00  0.00    +0.000 A 
BRANCH  12  13
ATOM     13  O   UNL     1       1.119   3.924  17.518  0.00  0.00    +0.000 OA
ATOM     14  H   UNL     1       1.919   4.154  17.019  0.00  0.00    +0.000 HD
ENDBRANCH  12  13
ENDBRANCH   5   7
ENDBRANCH   1   2
BRANCH   1  15
ATOM     15  C   UNL     1       7.063   6.076  18.017  0.00  0.00    +0.000 C 
BRANCH  15  16
ATOM     16  C   UNL     1       7.593   5.142  16.938  0.00  0.00    +0.000 C 
ATOM     17  O   UNL     1       8.211   4.111  17.150  0.00  0.00    +0.000 OA
BRANCH  16  18
ATOM     18  O   UNL     1       7.222   5.620  15.668  0.00  0.00    +0.000 OA
BRANCH  18  26
ATOM     19  C   UNL     1       8.920   5.808  13.064  0.00  0.00    +0.000 C 
ATOM     20  C   UNL     1       7.654   5.026  13.264  0.00  0.00    +0.000 A 
ATOM     21  C   UNL     1       7.148   4.378  12.118  0.00  0.00    +0.000 A 
ATOM     22  C   UNL     1       5.982   3.624  12.161  0.00  0.00    +0.000 A 
ATOM     23  C   UNL     1       5.303   3.476  13.361  0.00  0.00    +0.000 A 
ATOM     24  C   UNL     1       5.776   4.091  14.531  0.00  0.00    +0.000 A 
ATOM     25  C   UNL     1       4.979   3.897  15.793  0.00  0.00    +0.000 C 
ATOM     26  C   UNL     1       6.953   4.880  14.478  0.00  0.00    +0.000 A 
ENDBRANCH  18  26
ENDBRANCH  16  18
ENDBRANCH  15  16
ENDBRANCH   1  15
TORSDOF 7
ENDMDL
MODEL 2
REMARK VINA RESULT:      -8.0      0.153      1.758
REMARK  Name = 
REMARK  9 active torsions:
REMARK  status: ('A' for Active; 'I' for Inactive)
REMARK    1  A    between atoms: C_1  and  C_2
REMARK    2  A    between atoms: C_6  and  C_7
REMARK    3  A    between atoms: C_8  and  O_9
REMARK    4  A    between atoms: O_9  and  C_10
REMARK    5  A    between atoms: C_10  and  C_12
REMARK    6  A    between atoms: C_12  and  S_13
REMARK    7  A    between atoms: S_13  and  C_14
REMARK    8  A    between atoms: C_17  and  C_18
REMARK    9  A    between atoms: C_23  and  O_24
REMARK                            x       y       z     vdW  Elec       q    Type
REMARK                         _______ _______ _______ _____ _____    ______ ____
ROOT
ATOM      1  S   UNL     1       6.126   7.372  17.165  0.00  0.00    +0.000 S 
ENDROOT
BRANCH   1   2
ATOM      2  C   UNL     1       4.520   7.023  17.680  0.00  0.00    +0.000 A 
ATOM      3  N   UNL     1       3.425   7.707  17.419  0.00  0.00    +0.000 NA
ATOM      4  N   UNL     1       2.378   7.004  18.007  0.00  0.00    +0.000 NA
ATOM      5  C   UNL     1       2.922   5.963  18.612  0.00  0.00    +0.000 A 
ATOM      6  O   UNL     1       4.271   5.909  18.427  0.00  0.00    +0.000 OA
BRANCH   5   7
ATOM      7  C   UNL     1       2.325   4.863  19.357  0.00  0.00    +0.000 A 
ATOM      8  C   UNL     1       2.612   4.713  20.723  0.00  0.00    +0.000 A 
ATOM      9  C   UNL     1       2.062   3.658  21.461  0.00  0.00    +0.000 A 
ATOM     10  C   UNL     1       1.217   2.738  20.844  0.00  0.00    +0.000 A 
ATOM     11  C   UNL     1       0.906   2.878  19.492  0.00  0.00    +0.000 A 
ATOM     12  C   UNL     1       1.459   3.931  18.759  0.00  0.00    +0.000 A 
BRANCH  12  13
ATOM     13  O   UNL     1       1.167   4.027  17.425  0.00  0.00    +0.000 OA
ATOM     14  H   UNL     1       1.902   4.458  16.960  0.00  0.00    +0.000 HD
ENDBRANCH  12  13
ENDBRANCH   5   7
ENDBRANCH   1   2
BRANCH   1  15
ATOM     15  C   UNL     1       7.139   6.087  17.950  0.00  0.00    +0.000 C 
BRANCH  15  16
ATOM     16  C   UNL     1       7.626   5.135  16.866  0.00  0.00    +0.000 C 
ATOM     17  O   UNL     1       8.162   4.058  17.072  0.00  0.00    +0.000 OA
BRANCH  16  18
ATOM     18  O   UNL     1       7.321   5.661  15.597  0.00  0.00    +0.000 OA
BRANCH  18  26
ATOM     19  C   UNL     1       4.669   4.029  15.654  0.00  0.00    +0.000 C 
ATOM     20  C   UNL     1       5.616   4.176  14.498  0.00  0.00    +0.000 A 
ATOM     21  C   UNL     1       5.301   3.423  13.348  0.00  0.00    +0.000 A 
ATOM     22  C   UNL     1       6.094   3.461  12.208  0.00  0.00    +0.000 A 
ATOM     23  C   UNL     1       7.215   4.278  12.179  0.00  0.00    +0.000 A 
ATOM     24  C   UNL     1       7.562   5.057  13.294  0.00  0.00    +0.000 A 
ATOM     25  C   UNL     1       8.800   5.908  13.194  0.00  0.00    +0.000 C 
ATOM     26  C   UNL     1       6.763   4.996  14.464  0.00  0.00    +0.000 A 
ENDBRANCH  18  26
ENDBRANCH  16  18
ENDBRANCH  15  16
ENDBRANCH   1  15
TORSDOF 7
ENDMDL
MODEL 3
REMARK VINA RESULT:      -7.9      4.269      8.207
REMARK  Name = 
REMARK  9 active torsions:
REMARK  status: ('A' for Active; 'I' for Inactive)
REMARK    1  A    between atoms: C_1  and  C_2
REMARK    2  A    between atoms: C_6  and  C_7
REMARK    3  A    between atoms: C_8  and  O_9
REMARK    4  A    between atoms: O_9  and  C_10
REMARK    5  A    between atoms: C_10  and  C_12
REMARK    6  A    between atoms: C_12  and  S_13
REMARK    7  A    between atoms: S_13  and  C_14
REMARK    8  A    between atoms: C_17  and  C_18
REMARK    9  A    between atoms: C_23  and  O_24
REMARK                            x       y       z     vdW  Elec       q    Type
REMARK                         _______ _______ _______ _____ _____    ______ ____
ROOT
ATOM      1  S   UNL     1       7.619   6.198  18.104  0.00  0.00    +0.000 S 
ENDROOT
BRANCH   1   2
ATOM      2  C   UNL     1       7.894   7.896  17.990  0.00  0.00    +0.000 A 
ATOM      3  N   UNL     1       7.308   8.752  17.179  0.00  0.00    +0.000 NA
ATOM      4  N   UNL     1       7.825  10.004  17.496  0.00  0.00    +0.000 NA
ATOM      5  C   UNL     1       8.714   9.808  18.454  0.00  0.00    +0.000 A 
ATOM      6  O   UNL     1       8.791   8.498  18.823  0.00  0.00    +0.000 OA
BRANCH   5   7
ATOM      7  C   UNL     1       9.542  10.742  19.203  0.00  0.00    +0.000 A 
ATOM      8  C   UNL     1       9.272  10.975  20.562  0.00  0.00    +0.000 A 
ATOM      9  C   UNL     1      10.045  11.876  21.303  0.00  0.00    +0.000 A 
ATOM     10  C   UNL     1      11.098  12.559  20.699  0.00  0.00    +0.000 A 
ATOM     11  C   UNL     1      11.393  12.330  19.355  0.00  0.00    +0.000 A 
ATOM     12  C   UNL     1      10.618  11.432  18.618  0.00  0.00    +0.000 A 
BRANCH  12  13
ATOM     13  O   UNL     1      10.906  11.251  17.292  0.00  0.00    +0.000 OA
ATOM     14  H   UNL     1      10.920  12.110  16.841  0.00  0.00    +0.000 HD
ENDBRANCH  12  13
ENDBRANCH   5   7
ENDBRANCH   1   2
BRANCH   1  15
ATOM     15  C   UNL     1       5.826   6.019  17.894  0.00  0.00    +0.000 C 
BRANCH  15  16
ATOM     16  C   UNL     1       5.401   4.700  18.524  0.00  0.00    +0.000 C 
ATOM     17  O   UNL     1       6.075   4.052  19.308  0.00  0.00    +0.000 OA
BRANCH  16  18
ATOM     18  O   UNL     1       4.100   4.367  18.103  0.00  0.00    +0.000 OA
BRANCH  18  26
ATOM     19  C   UNL     1       2.472   6.582  19.567  0.00  0.00    +0.000 C 
ATOM     20  C   UNL     1       2.251   5.099  19.641  0.00  0.00    +0.000 A 
ATOM     21  C   UNL     1       1.249   4.673  20.538  0.00  0.00    +0.000 A 
ATOM     22  C   UNL     1       0.944   3.328  20.709  0.00  0.00    +0.000 A 
ATOM     23  C   UNL     1       1.619   2.372  19.965  0.00  0.00    +0.000 A 
ATOM     24  C   UNL     1       2.615   2.747  19.051  0.00  0.00    +0.000 A 
ATOM     25  C   UNL     1       3.315   1.653  18.290  0.00  0.00    +0.000 C 
ATOM     26  C   UNL     1       2.940   4.119  18.897  0.00  0.00    +0.000 A 
ENDBRANCH  18  26
ENDBRANCH  16  18
ENDBRANCH  15  16
ENDBRANCH   1  15
TORSDOF 7
ENDMDL
MODEL 4
REMARK VINA RESULT:      -7.8      3.978      7.871
REMARK  Name = 
REMARK  9 active torsions:
REMARK  status: ('A' for Active; 'I' for Inactive)
REMARK    1  A    between atoms: C_1  and  C_2
REMARK    2  A    between atoms: C_6  and  C_7
REMARK    3  A    between atoms: C_8  and  O_9
REMARK    4  A    between atoms: O_9  and  C_10
REMARK    5  A    between atoms: C_10  and  C_12
REMARK    6  A    between atoms: C_12  and  S_13
REMARK    7  A    between atoms: S_13  and  C_14
REMARK    8  A    between atoms: C_17  and  C_18
REMARK    9  A    between atoms: C_23  and  O_24
REMARK                            x       y       z     vdW  Elec       q    Type
REMARK                         _______ _______ _______ _____ _____    ______ ____
ROOT
ATOM      1  S   UNL     1       7.711   5.602  18.784  0.00  0.00    +0.000 S 
ENDROOT
BRANCH   1   2
ATOM      2  C   UNL     1       7.786   7.230  18.224  0.00  0.00    +0.000 A 
ATOM      3  N   UNL     1       7.137   7.762  17.209  0.00  0.00    +0.000 NA
ATOM      4  N   UNL     1       7.487   9.108  17.187  0.00  0.00    +0.000 NA
ATOM      5  C   UNL     1       8.350   9.285  18.171  0.00  0.00    +0.000 A 
ATOM      6  O   UNL     1       8.567   8.139  18.876  0.00  0.00    +0.000 OA
BRANCH   5   7
ATOM      7  C   UNL     1       9.027  10.481  18.653  0.00  0.00    +0.000 A 
ATOM      8  C   UNL     1       9.944  10.380  19.712  0.00  0.00    +0.000 A 
ATOM      9  C   UNL     1      10.602  11.514  20.203  0.00  0.00    +0.000 A 
ATOM     10  C   UNL     1      10.352  12.766  19.644  0.00  0.00    +0.000 A 
ATOM     11  C   UNL     1       9.457  12.885  18.581  0.00  0.00    +0.000 A 
ATOM     12  C   UNL     1       8.802  11.751  18.096  0.00  0.00    +0.000 A 
BRANCH  12  13
ATOM     13  O   UNL     1       7.901  11.900  17.075  0.00  0.00    +0.000 OA
ATOM     14  H   UNL     1       8.174  11.358  16.317  0.00  0.00    +0.000 HD
ENDBRANCH  12  13
ENDBRANCH   5   7
ENDBRANCH   1   2
BRANCH   1  15
ATOM     15  C   UNL     1       5.942   5.304  19.061  0.00  0.00    +0.000 C 
BRANCH  15  16
ATOM     16  C   UNL     1       5.348   4.736  17.779  0.00  0.00    +0.000 C 
ATOM     17  O   UNL     1       5.997   4.297  16.844  0.00  0.00    +0.000 OA
BRANCH  16  18
ATOM     18  O   UNL     1       3.943   4.753  17.857  0.00  0.00    +0.000 OA
BRANCH  18  26
ATOM     19  C   UNL     1       3.546   1.687  18.234  0.00  0.00    +0.000 C 
ATOM     20  C   UNL     1       2.834   2.787  18.966  0.00  0.00    +0.000 A 
ATOM     21  C   UNL     1       1.822   2.375  19.857  0.00  0.00    +0.000 A 
ATOM     22  C   UNL     1       1.081   3.290  20.595  0.00  0.00    +0.000 A 
ATOM     23  C   UNL     1       1.351   4.645  20.479  0.00  0.00    +0.000 A 
ATOM     24  C   UNL     1       2.358   5.103  19.616  0.00  0.00    +0.000 A 
ATOM     25  C   UNL     1       2.586   6.589  19.532  0.00  0.00    +0.000 C 
ATOM     26  C   UNL     1       3.096   4.168  18.846  0.00  0.00    +0.000 A 
ENDBRANCH  18  26
ENDBRANCH  16  18
ENDBRANCH  15  16
ENDBRANCH   1  15
TORSDOF 7
ENDMDL
MODEL 5
REMARK VINA RESULT:      -7.7      4.164      8.027
REMARK  Name = 
REMARK  9 active torsions:
REMARK  status: ('A' for Active; 'I' for Inactive)
REMARK    1  A    between atoms: C_1  and  C_2
REMARK    2  A    between atoms: C_6  and  C_7
REMARK    3  A    between atoms: C_8  and  O_9
REMARK    4  A    between atoms: O_9  and  C_10
REMARK    5  A    between atoms: C_10  and  C_12
REMARK    6  A    between atoms: C_12  and  S_13
REMARK    7  A    between atoms: S_13  and  C_14
REMARK    8  A    between atoms: C_17  and  C_18
REMARK    9  A    between atoms: C_23  and  O_24
REMARK                            x       y       z     vdW  Elec       q    Type
REMARK                         _______ _______ _______ _____ _____    ______ ____
ROOT
ATOM      1  S   UNL     1       7.615   5.814  18.924  0.00  0.00    +0.000 S 
ENDROOT
BRANCH   1   2
ATOM      2  C   UNL     1       7.880   7.422  18.363  0.00  0.00    +0.000 A 
ATOM      3  N   UNL     1       7.281   8.032  17.362  0.00  0.00    +0.000 NA
ATOM      4  N   UNL     1       7.794   9.325  17.333  0.00  0.00    +0.000 NA
ATOM      5  C   UNL     1       8.692   9.392  18.299  0.00  0.00    +0.000 A 
ATOM      6  O   UNL     1       8.780   8.225  18.999  0.00  0.00    +0.000 OA
BRANCH   5   7
ATOM      7  C   UNL     1       9.521  10.493  18.768  0.00  0.00    +0.000 A 
ATOM      8  C   UNL     1      10.231  11.272  17.839  0.00  0.00    +0.000 A 
ATOM      9  C   UNL     1      11.045  12.329  18.262  0.00  0.00    +0.000 A 
ATOM     10  C   UNL     1      11.162  12.623  19.619  0.00  0.00    +0.000 A 
ATOM     11  C   UNL     1      10.454  11.873  20.556  0.00  0.00    +0.000 A 
ATOM     12  C   UNL     1       9.644  10.817  20.130  0.00  0.00    +0.000 A 
BRANCH  12  13
ATOM     13  O   UNL     1       8.987  10.072  21.072  0.00  0.00    +0.000 OA
ATOM     14  H   UNL     1       9.163   9.129  20.924  0.00  0.00    +0.000 HD
ENDBRANCH  12  13
ENDBRANCH   5   7
ENDBRANCH   1   2
BRANCH   1  15
ATOM     15  C   UNL     1       7.201   4.878  17.425  0.00  0.00    +0.000 C 
BRANCH  15  16
ATOM     16  C   UNL     1       5.731   4.489  17.497  0.00  0.00    +0.000 C 
ATOM     17  O   UNL     1       5.047   4.167  16.539  0.00  0.00    +0.000 OA
BRANCH  16  18
ATOM     18  O   UNL     1       5.296   4.512  18.835  0.00  0.00    +0.000 OA
BRANCH  18  26
ATOM     19  C   UNL     1       3.191   6.797  18.611  0.00  0.00    +0.000 C 
ATOM     20  C   UNL     1       3.034   5.490  19.333  0.00  0.00    +0.000 A 
ATOM     21  C   UNL     1       1.831   5.328  20.051  0.00  0.00    +0.000 A 
ATOM     22  C   UNL     1       1.558   4.169  20.767  0.00  0.00    +0.000 A 
ATOM     23  C   UNL     1       2.473   3.128  20.764  0.00  0.00    +0.000 A 
ATOM     24  C   UNL     1       3.679   3.237  20.053  0.00  0.00    +0.000 A 
ATOM     25  C   UNL     1       4.630   2.072  20.107  0.00  0.00    +0.000 C 
ATOM     26  C   UNL     1       3.965   4.431  19.343  0.00  0.00    +0.000 A 
ENDBRANCH  18  26
ENDBRANCH  16  18
ENDBRANCH  15  16
ENDBRANCH   1  15
TORSDOF 7
ENDMDL
MODEL 6
REMARK VINA RESULT:      -7.7      3.134      7.184
REMARK  Name = 
REMARK  9 active torsions:
REMARK  status: ('A' for Active; 'I' for Inactive)
REMARK    1  A    between atoms: C_1  and  C_2
REMARK    2  A    between atoms: C_6  and  C_7
REMARK    3  A    between atoms: C_8  and  O_9
REMARK    4  A    between atoms: O_9  and  C_10
REMARK    5  A    between atoms: C_10  and  C_12
REMARK    6  A    between atoms: C_12  and  S_13
REMARK    7  A    between atoms: S_13  and  C_14
REMARK    8  A    between atoms: C_17  and  C_18
REMARK    9  A    between atoms: C_23  and  O_24
REMARK                            x       y       z     vdW  Elec       q    Type
REMARK                         _______ _______ _______ _____ _____    ______ ____
ROOT
ATOM      1  S   UNL     1       2.323   2.715  21.294  0.00  0.00    +0.000 S 
ENDROOT
BRANCH   1   2
ATOM      2  C   UNL     1       2.991   2.608  19.708  0.00  0.00    +0.000 A 
ATOM      3  N   UNL     1       2.694   1.736  18.768  0.00  0.00    +0.000 NA
ATOM      4  N   UNL     1       3.454   2.088  17.658  0.00  0.00    +0.000 NA
ATOM      5  C   UNL     1       4.182   3.129  18.019  0.00  0.00    +0.000 A 
ATOM      6  O   UNL     1       3.922   3.517  19.299  0.00  0.00    +0.000 OA
BRANCH   5   7
ATOM      7  C   UNL     1       5.131   3.944  17.275  0.00  0.00    +0.000 A 
ATOM      8  C   UNL     1       4.964   4.115  15.891  0.00  0.00    +0.000 A 
ATOM      9  C   UNL     1       5.868   4.884  15.148  0.00  0.00    +0.000 A 
ATOM     10  C   UNL     1       6.952   5.493  15.777  0.00  0.00    +0.000 A 
ATOM     11  C   UNL     1       7.127   5.349  17.153  0.00  0.00    +0.000 A 
ATOM     12  C   UNL     1       6.224   4.579  17.890  0.00  0.00    +0.000 A 
BRANCH  12  13
ATOM     13  O   UNL     1       6.437   4.424  19.233  0.00  0.00    +0.000 OA
ATOM     14  H   UNL     1       7.367   4.196  19.392  0.00  0.00    +0.000 HD
ENDBRANCH  12  13
ENDBRANCH   5   7
ENDBRANCH   1   2
BRANCH   1  15
ATOM     15  C   UNL     1       2.441   4.476  21.713  0.00  0.00    +0.000 C 
BRANCH  15  16
ATOM     16  C   UNL     1       1.752   5.275  20.614  0.00  0.00    +0.000 C 
ATOM     17  O   UNL     1       0.684   4.981  20.103  0.00  0.00    +0.000 OA
BRANCH  16  18
ATOM     18  O   UNL     1       2.509   6.423  20.313  0.00  0.00    +0.000 OA
BRANCH  18  26
ATOM     19  C   UNL     1       0.790   8.494  21.880  0.00  0.00    +0.000 C 
ATOM     20  C   UNL     1       1.210   8.571  20.440  0.00  0.00    +0.000 A 
ATOM     21  C   UNL     1       0.695   9.662  19.710  0.00  0.00    +0.000 A 
ATOM     22  C   UNL     1       0.999   9.852  18.368  0.00  0.00    +0.000 A 
ATOM     23  C   UNL     1       1.850   8.966  17.725  0.00  0.00    +0.000 A 
ATOM     24  C   UNL     1       2.399   7.873  18.413  0.00  0.00    +0.000 A 
ATOM     25  C   UNL     1       3.303   6.946  17.646  0.00  0.00    +0.000 C 
ATOM     26  C   UNL     1       2.066   7.669  19.777  0.00  0.00    +0.000 A 
ENDBRANCH  18  26
ENDBRANCH  16  18
ENDBRANCH  15  16
ENDBRANCH   1  15
TORSDOF 7
ENDMDL
MODEL 7
REMARK VINA RESULT:      -7.7      1.143      2.175
REMARK  Name = 
REMARK  9 active torsions:
REMARK  status: ('A' for Active; 'I' for Inactive)
REMARK    1  A    between atoms: C_1  and  C_2
REMARK    2  A    between atoms: C_6  and  C_7
REMARK    3  A    between atoms: C_8  and  O_9
REMARK    4  A    between atoms: O_9  and  C_10
REMARK    5  A    between atoms: C_10  and  C_12
REMARK    6  A    between atoms: C_12  and  S_13
REMARK    7  A    between atoms: S_13  and  C_14
REMARK    8  A    between atoms: C_17  and  C_18
REMARK    9  A    between atoms: C_23  and  O_24
REMARK                            x       y       z     vdW  Elec       q    Type
REMARK                         _______ _______ _______ _____ _____    ______ ____
ROOT
ATOM      1  S   UNL     1       6.377   7.538  17.205  0.00  0.00    +0.000 S 
ENDROOT
BRANCH   1   2
ATOM      2  C   UNL     1       4.874   6.868  17.715  0.00  0.00    +0.000 A 
ATOM      3  N   UNL     1       3.668   7.186  17.292  0.00  0.00    +0.000 NA
ATOM      4  N   UNL     1       2.787   6.341  17.959  0.00  0.00    +0.000 NA
ATOM      5  C   UNL     1       3.523   5.596  18.765  0.00  0.00    +0.000 A 
ATOM      6  O   UNL     1       4.853   5.869  18.643  0.00  0.00    +0.000 OA
BRANCH   5   7
ATOM      7  C   UNL     1       3.164   4.518  19.675  0.00  0.00    +0.000 A 
ATOM      8  C   UNL     1       2.005   4.631  20.460  0.00  0.00    +0.000 A 
ATOM      9  C   UNL     1       1.641   3.615  21.353  0.00  0.00    +0.000 A 
ATOM     10  C   UNL     1       2.431   2.473  21.475  0.00  0.00    +0.000 A 
ATOM     11  C   UNL     1       3.577   2.335  20.693  0.00  0.00    +0.000 A 
ATOM     12  C   UNL     1       3.937   3.352  19.805  0.00  0.00    +0.000 A 
BRANCH  12  13
ATOM     13  O   UNL     1       5.086   3.208  19.074  0.00  0.00    +0.000 OA
ATOM     14  H   UNL     1       5.729   3.886  19.340  0.00  0.00    +0.000 HD
ENDBRANCH  12  13
ENDBRANCH   5   7
ENDBRANCH   1   2
BRANCH   1  15
ATOM     15  C   UNL     1       7.619   6.349  17.786  0.00  0.00    +0.000 C 
BRANCH  15  16
ATOM     16  C   UNL     1       7.725   5.230  16.759  0.00  0.00    +0.000 C 
ATOM     17  O   UNL     1       8.034   4.077  17.012  0.00  0.00    +0.000 OA
BRANCH  16  18
ATOM     18  O   UNL     1       7.370   5.715  15.486  0.00  0.00    +0.000 OA
BRANCH  18  26
ATOM     19  C   UNL     1       4.746   4.046  15.646  0.00  0.00    +0.000 C 
ATOM     20  C   UNL     1       5.669   4.170  14.468  0.00  0.00    +0.000 A 
ATOM     21  C   UNL     1       5.344   3.375  13.349  0.00  0.00    +0.000 A 
ATOM     22  C   UNL     1       6.115   3.389  12.194  0.00  0.00    +0.000 A 
ATOM     23  C   UNL     1       7.222   4.222  12.117  0.00  0.00    +0.000 A 
ATOM     24  C   UNL     1       7.578   5.041  13.200  0.00  0.00    +0.000 A 
ATOM     25  C   UNL     1       8.800   5.907  13.050  0.00  0.00    +0.000 C 
ATOM     26  C   UNL     1       6.802   5.005  14.387  0.00  0.00    +0.000 A 
ENDBRANCH  18  26
ENDBRANCH  16  18
ENDBRANCH  15  16
ENDBRANCH   1  15
TORSDOF 7
ENDMDL
MODEL 8
REMARK VINA RESULT:      -7.6      5.198      6.925
REMARK  Name = 
REMARK  9 active torsions:
REMARK  status: ('A' for Active; 'I' for Inactive)
REMARK    1  A    between atoms: C_1  and  C_2
REMARK    2  A    between atoms: C_6  and  C_7
REMARK    3  A    between atoms: C_8  and  O_9
REMARK    4  A    between atoms: O_9  and  C_10
REMARK    5  A    between atoms: C_10  and  C_12
REMARK    6  A    between atoms: C_12  and  S_13
REMARK    7  A    between atoms: S_13  and  C_14
REMARK    8  A    between atoms: C_17  and  C_18
REMARK    9  A    between atoms: C_23  and  O_24
REMARK                            x       y       z     vdW  Elec       q    Type
REMARK                         _______ _______ _______ _____ _____    ______ ____
ROOT
ATOM      1  S   UNL     1       8.095   7.345  18.461  0.00  0.00    +0.000 S 
ENDROOT
BRANCH   1   2
ATOM      2  C   UNL     1       6.784   6.535  17.690  0.00  0.00    +0.000 A 
ATOM      3  N   UNL     1       6.555   6.426  16.398  0.00  0.00    +0.000 NA
ATOM      4  N   UNL     1       5.413   5.643  16.270  0.00  0.00    +0.000 NA
ATOM      5  C   UNL     1       5.013   5.363  17.497  0.00  0.00    +0.000 A 
ATOM      6  O   UNL     1       5.849   5.884  18.440  0.00  0.00    +0.000 OA
BRANCH   5   7
ATOM      7  C   UNL     1       3.905   4.557  17.989  0.00  0.00    +0.000 A 
ATOM      8  C   UNL     1       2.585   4.939  17.697  0.00  0.00    +0.000 A 
ATOM      9  C   UNL     1       1.501   4.189  18.166  0.00  0.00    +0.000 A 
ATOM     10  C   UNL     1       1.718   3.046  18.934  0.00  0.00    +0.000 A 
ATOM     11  C   UNL     1       3.021   2.640  19.221  0.00  0.00    +0.000 A 
ATOM     12  C   UNL     1       4.101   3.393  18.753  0.00  0.00    +0.000 A 
BRANCH  12  13
ATOM     13  O   UNL     1       5.369   2.994  19.078  0.00  0.00    +0.000 OA
ATOM     14  H   UNL     1       5.365   2.051  19.310  0.00  0.00    +0.000 HD
ENDBRANCH  12  13
ENDBRANCH   5   7
ENDBRANCH   1   2
BRANCH   1  15
ATOM     15  C   UNL     1       8.031   9.033  17.799  0.00  0.00    +0.000 C 
BRANCH  15  16
ATOM     16  C   UNL     1       8.950   9.910  18.639  0.00  0.00    +0.000 C 
ATOM     17  O   UNL     1       9.176   9.746  19.827  0.00  0.00    +0.000 OA
BRANCH  16  18
ATOM     18  O   UNL     1       9.531  10.904  17.831  0.00  0.00    +0.000 OA
BRANCH  18  26
ATOM     19  C   UNL     1      12.199  11.610  19.274  0.00  0.00    +0.000 C 
ATOM     20  C   UNL     1      11.083  12.552  18.925  0.00  0.00    +0.000 A 
ATOM     21  C   UNL     1      11.237  13.879  19.377  0.00  0.00    +0.000 A 
ATOM     22  C   UNL     1      10.277  14.852  19.128  0.00  0.00    +0.000 A 
ATOM     23  C   UNL     1       9.146  14.529  18.393  0.00  0.00    +0.000 A 
ATOM     24  C   UNL     1       8.955  13.225  17.910  0.00  0.00    +0.000 A 
ATOM     25  C   UNL     1       7.697  12.945  17.133  0.00  0.00    +0.000 C 
ATOM     26  C   UNL     1       9.925  12.228  18.188  0.00  0.00    +0.000 A 
ENDBRANCH  18  26
ENDBRANCH  16  18
ENDBRANCH  15  16
ENDBRANCH   1  15
TORSDOF 7
ENDMDL
MODEL 9
REMARK VINA RESULT:      -7.6      4.073      7.953
REMARK  Name = 
REMARK  9 active torsions:
REMARK  status: ('A' for Active; 'I' for Inactive)
REMARK    1  A    between atoms: C_1  and  C_2
REMARK    2  A    between atoms: C_6  and  C_7
REMARK    3  A    between atoms: C_8  and  O_9
REMARK    4  A    between atoms: O_9  and  C_10
REMARK    5  A    between atoms: C_10  and  C_12
REMARK    6  A    between atoms: C_12  and  S_13
REMARK    7  A    between atoms: S_13  and  C_14
REMARK    8  A    between atoms: C_17  and  C_18
REMARK    9  A    between atoms: C_23  and  O_24
REMARK                            x       y       z     vdW  Elec       q    Type
REMARK                         _______ _______ _______ _____ _____    ______ ____
ROOT
ATOM      1  S   UNL     1       7.967   5.700  18.535  0.00  0.00    +0.000 S 
ENDROOT
BRANCH   1   2
ATOM      2  C   UNL     1       7.936   7.371  18.115  0.00  0.00    +0.000 A 
ATOM      3  N   UNL     1       7.211   7.952  17.182  0.00  0.00    +0.000 NA
ATOM      4  N   UNL     1       7.495   9.311  17.260  0.00  0.00    +0.000 NA
ATOM      5  C   UNL     1       8.399   9.450  18.212  0.00  0.00    +0.000 A 
ATOM      6  O   UNL     1       8.706   8.261  18.804  0.00  0.00    +0.000 OA
BRANCH   5   7
ATOM      7  C   UNL     1       9.044  10.633  18.763  0.00  0.00    +0.000 A 
ATOM      8  C   UNL     1       9.905  10.506  19.865  0.00  0.00    +0.000 A 
ATOM      9  C   UNL     1      10.529  11.629  20.421  0.00  0.00    +0.000 A 
ATOM     10  C   UNL     1      10.302  12.895  19.885  0.00  0.00    +0.000 A 
ATOM     11  C   UNL     1       9.464  13.041  18.781  0.00  0.00    +0.000 A 
ATOM     12  C   UNL     1       8.841  11.918  18.230  0.00  0.00    +0.000 A 
BRANCH  12  13
ATOM     13  O   UNL     1       7.994  12.092  17.169  0.00  0.00    +0.000 OA
ATOM     14  H   UNL     1       8.091  12.992  16.817  0.00  0.00    +0.000 HD
ENDBRANCH  12  13
ENDBRANCH   5   7
ENDBRANCH   1   2
BRANCH   1  15
ATOM     15  C   UNL     1       6.492   5.009  17.735  0.00  0.00    +0.000 C 
BRANCH  15  16
ATOM     16  C   UNL     1       5.482   4.657  18.820  0.00  0.00    +0.000 C 
ATOM     17  O   UNL     1       5.737   4.574  20.010  0.00  0.00    +0.000 OA
BRANCH  16  18
ATOM     18  O   UNL     1       4.207   4.490  18.248  0.00  0.00    +0.000 OA
BRANCH  18  26
ATOM     19  C   UNL     1       2.378   6.490  19.784  0.00  0.00    +0.000 C 
ATOM     20  C   UNL     1       2.194   5.004  19.665  0.00  0.00    +0.000 A 
ATOM     21  C   UNL     1       1.121   4.459  20.400  0.00  0.00    +0.000 A 
ATOM     22  C   UNL     1       0.841   3.098  20.384  0.00  0.00    +0.000 A 
ATOM     23  C   UNL     1       1.614   2.247  19.608  0.00  0.00    +0.000 A 
ATOM     24  C   UNL     1       2.684   2.745  18.848  0.00  0.00    +0.000 A 
ATOM     25  C   UNL     1       3.487   1.759  18.042  0.00  0.00    +0.000 C 
ATOM     26  C   UNL     1       2.982   4.131  18.887  0.00  0.00    +0.000 A 
ENDBRANCH  18  26
ENDBRANCH  16  18
ENDBRANCH  15  16
ENDBRANCH   1  15
TORSDOF 7
ENDMDL
