MODEL 1
REMARK VINA RESULT:      -6.7      0.000      0.000
REMARK  Name = 
REMARK  8 active torsions:
REMARK  status: ('A' for Active; 'I' for Inactive)
REMARK    1  A    between atoms: C_1  and  O_2
REMARK    2  A    between atoms: O_2  and  C_3
REMARK    3  A    between atoms: C_3  and  C_5
REMARK    4  A    between atoms: C_6  and  C_7
REMARK    5  A    between atoms: C_10  and  C_11
REMARK    6  A    between atoms: N_19  and  C_20
REMARK    7  A    between atoms: C_20  and  C_21
REMARK    8  A    between atoms: C_21  and  C_22
REMARK                            x       y       z     vdW  Elec       q    Type
REMARK                         _______ _______ _______ _____ _____    ______ ____
ROOT
ATOM      1  C   UNL     1       4.996   3.975  17.661  0.00  0.00    +0.000 C 
ATOM      2  C   UNL     1       4.061   5.013  16.987  0.00  0.00    +0.000 C 
ATOM      3  C   UNL     1       4.966   5.637  15.862  0.00  0.00    +0.000 C 
ATOM      4  C   UNL     1       6.381   6.063  16.339  0.00  0.00    +0.000 C 
ATOM      5  C   UNL     1       7.551   5.071  16.205  0.00  0.00    +0.000 C 
ATOM      6  C   UNL     1       7.488   4.179  17.440  0.00  0.00    +0.000 C 
ATOM      7  C   UNL     1       6.286   4.725  18.220  0.00  0.00    +0.000 C 
ATOM      8  N   UNL     1       6.268   6.170  17.789  0.00  0.00    +0.000 NA
ENDROOT
BRANCH   2   9
ATOM      9  C   UNL     1       3.380   5.969  17.994  0.00  0.00    +0.000 A 
ATOM     10  C   UNL     1       2.958   5.541  19.272  0.00  0.00    +0.000 A 
ATOM     11  C   UNL     1       2.291   6.366  20.172  0.00  0.00    +0.000 A 
ATOM     12  C   UNL     1       2.021   7.682  19.832  0.00  0.00    +0.000 A 
ATOM     13  C   UNL     1       1.293   8.548  20.818  0.00  0.00    +0.000 C 
ATOM     14  C   UNL     1       2.419   8.142  18.569  0.00  0.00    +0.000 A 
ATOM     15  C   UNL     1       3.089   7.298  17.661  0.00  0.00    +0.000 A 
ENDBRANCH   2   9
BRANCH   1  16
ATOM     16  C   UNL     1       4.184   3.020  18.526  0.00  0.00    +0.000 C 
ATOM     17  O   UNL     1       4.446   2.801  19.705  0.00  0.00    +0.000 OA
BRANCH  16  19
ATOM     18  C   UNL     1       2.056   2.053  18.738  0.00  0.00    +0.000 C 
ATOM     19  O   UNL     1       3.134   2.457  17.880  0.00  0.00    +0.000 OA
ENDBRANCH  16  19
ENDBRANCH   1  16
BRANCH   8  20
ATOM     20  C   UNL     1       7.191   7.134  18.408  0.00  0.00    +0.000 C 
BRANCH  20  21
ATOM     21  C   UNL     1       7.455   8.340  17.467  0.00  0.00    +0.000 C 
BRANCH  21  22
ATOM     22  C   UNL     1       8.356   9.410  18.057  0.00  0.00    +0.000 C 
ATOM     23  F   UNL     1       9.050   8.879  19.100  0.00  0.00    +0.000 F 
ENDBRANCH  21  22
ENDBRANCH  20  21
ENDBRANCH   8  20
TORSDOF 6
ENDMDL
MODEL 2
REMARK VINA RESULT:      -6.5      2.469      4.907
REMARK  Name = 
REMARK  8 active torsions:
REMARK  status: ('A' for Active; 'I' for Inactive)
REMARK    1  A    between atoms: C_1  and  O_2
REMARK    2  A    between atoms: O_2  and  C_3
REMARK    3  A    between atoms: C_3  and  C_5
REMARK    4  A    between atoms: C_6  and  C_7
REMARK    5  A    between atoms: C_10  and  C_11
REMARK    6  A    between atoms: N_19  and  C_20
REMARK    7  A    between atoms: C_20  and  C_21
REMARK    8  A    between atoms: C_21  and  C_22
REMARK                            x       y       z     vdW  Elec       q    Type
REMARK                         _______ _______ _______ _____ _____    ______ ____
ROOT
ATOM      1  C   UNL     1       5.013   4.046  16.919  0.00  0.00    +0.000 C 
ATOM      2  C   UNL     1       6.032   4.252  18.071  0.00  0.00    +0.000 C 
ATOM      3  C   UNL     1       5.209   3.865  19.355  0.00  0.00    +0.000 C 
ATOM      4  C   UNL     1       3.804   4.520  19.437  0.00  0.00    +0.000 C 
ATOM      5  C   UNL     1       2.585   3.757  18.885  0.00  0.00    +0.000 C 
ATOM      6  C   UNL     1       2.548   4.049  17.390  0.00  0.00    +0.000 C 
ATOM      7  C   UNL     1       3.748   4.980  17.173  0.00  0.00    +0.000 C 
ATOM      8  N   UNL     1       3.866   5.651  18.518  0.00  0.00    +0.000 NA
ENDROOT
BRANCH   2   9
ATOM      9  C   UNL     1       6.727   5.633  18.035  0.00  0.00    +0.000 A 
ATOM     10  C   UNL     1       7.755   5.982  18.938  0.00  0.00    +0.000 A 
ATOM     11  C   UNL     1       8.356   7.237  18.964  0.00  0.00    +0.000 A 
ATOM     12  C   UNL     1       7.956   8.211  18.063  0.00  0.00    +0.000 A 
ATOM     13  C   UNL     1       8.614   9.559  18.117  0.00  0.00    +0.000 C 
ATOM     14  C   UNL     1       6.934   7.903  17.155  0.00  0.00    +0.000 A 
ATOM     15  C   UNL     1       6.327   6.632  17.139  0.00  0.00    +0.000 A 
ENDBRANCH   2   9
BRANCH   1  16
ATOM     16  C   UNL     1       5.735   4.016  15.579  0.00  0.00    +0.000 C 
ATOM     17  O   UNL     1       6.905   3.666  15.459  0.00  0.00    +0.000 OA
BRANCH  16  19
ATOM     18  C   UNL     1       5.441   3.955  13.251  0.00  0.00    +0.000 C 
ATOM     19  O   UNL     1       4.958   4.388  14.532  0.00  0.00    +0.000 OA
ENDBRANCH  16  19
ENDBRANCH   1  16
BRANCH   8  20
ATOM     20  C   UNL     1       2.977   6.772  18.862  0.00  0.00    +0.000 C 
BRANCH  20  21
ATOM     21  C   UNL     1       2.997   7.862  17.756  0.00  0.00    +0.000 C 
BRANCH  21  22
ATOM     22  C   UNL     1       1.760   8.740  17.719  0.00  0.00    +0.000 C 
ATOM     23  F   UNL     1       2.025   9.907  18.368  0.00  0.00    +0.000 F 
ENDBRANCH  21  22
ENDBRANCH  20  21
ENDBRANCH   8  20
TORSDOF 6
ENDMDL
MODEL 3
REMARK VINA RESULT:      -6.5      2.384      5.067
REMARK  Name = 
REMARK  8 active torsions:
REMARK  status: ('A' for Active; 'I' for Inactive)
REMARK    1  A    between atoms: C_1  and  O_2
REMARK    2  A    between atoms: O_2  and  C_3
REMARK    3  A    between atoms: C_3  and  C_5
REMARK    4  A    between atoms: C_6  and  C_7
REMARK    5  A    between atoms: C_10  and  C_11
REMARK    6  A    between atoms: N_19  and  C_20
REMARK    7  A    between atoms: C_20  and  C_21
REMARK    8  A    between atoms: C_21  and  C_22
REMARK                            x       y       z     vdW  Elec       q    Type
REMARK                         _______ _______ _______ _____ _____    ______ ____
ROOT
ATOM      1  C   UNL     1       4.660   4.167  16.927  0.00  0.00    +0.000 C 
ATOM      2  C   UNL     1       5.749   4.265  18.027  0.00  0.00    +0.000 C 
ATOM      3  C   UNL     1       5.000   3.780  19.322  0.00  0.00    +0.000 C 
ATOM      4  C   UNL     1       3.612   4.441  19.545  0.00  0.00    +0.000 C 
ATOM      5  C   UNL     1       2.351   3.739  19.008  0.00  0.00    +0.000 C 
ATOM      6  C   UNL     1       2.228   4.156  17.547  0.00  0.00    +0.000 C 
ATOM      7  C   UNL     1       3.427   5.089  17.334  0.00  0.00    +0.000 C 
ATOM      8  N   UNL     1       3.636   5.644  18.721  0.00  0.00    +0.000 NA
ENDROOT
BRANCH   2   9
ATOM      9  C   UNL     1       6.463   5.637  18.062  0.00  0.00    +0.000 A 
ATOM     10  C   UNL     1       6.041   6.725  17.268  0.00  0.00    +0.000 A 
ATOM     11  C   UNL     1       6.701   7.950  17.238  0.00  0.00    +0.000 A 
ATOM     12  C   UNL     1       7.824   8.148  18.024  0.00  0.00    +0.000 A 
ATOM     13  C   UNL     1       8.522   9.475  17.968  0.00  0.00    +0.000 C 
ATOM     14  C   UNL     1       8.276   7.088  18.822  0.00  0.00    +0.000 A 
ATOM     15  C   UNL     1       7.606   5.849  18.842  0.00  0.00    +0.000 A 
ENDBRANCH   2   9
BRANCH   1  16
ATOM     16  C   UNL     1       5.298   4.242  15.547  0.00  0.00    +0.000 C 
ATOM     17  O   UNL     1       4.676   4.569  14.540  0.00  0.00    +0.000 OA
BRANCH  16  19
ATOM     18  C   UNL     1       7.390   4.669  14.569  0.00  0.00    +0.000 C 
ATOM     19  O   UNL     1       6.620   3.941  15.538  0.00  0.00    +0.000 OA
ENDBRANCH  16  19
ENDBRANCH   1  16
BRANCH   8  20
ATOM     20  C   UNL     1       2.786   6.741  19.210  0.00  0.00    +0.000 C 
BRANCH  20  21
ATOM     21  C   UNL     1       2.386   7.698  18.055  0.00  0.00    +0.000 C 
BRANCH  21  22
ATOM     22  C   UNL     1       1.741   8.994  18.509  0.00  0.00    +0.000 C 
ATOM     23  F   UNL     1       2.201  10.013  17.733  0.00  0.00    +0.000 F 
ENDBRANCH  21  22
ENDBRANCH  20  21
ENDBRANCH   8  20
TORSDOF 6
ENDMDL
MODEL 4
REMARK VINA RESULT:      -6.4      3.096      4.990
REMARK  Name = 
REMARK  8 active torsions:
REMARK  status: ('A' for Active; 'I' for Inactive)
REMARK    1  A    between atoms: C_1  and  O_2
REMARK    2  A    between atoms: O_2  and  C_3
REMARK    3  A    between atoms: C_3  and  C_5
REMARK    4  A    between atoms: C_6  and  C_7
REMARK    5  A    between atoms: C_10  and  C_11
REMARK    6  A    between atoms: N_19  and  C_20
REMARK    7  A    between atoms: C_20  and  C_21
REMARK    8  A    between atoms: C_21  and  C_22
REMARK                            x       y       z     vdW  Elec       q    Type
REMARK                         _______ _______ _______ _____ _____    ______ ____
ROOT
ATOM      1  C   UNL     1       5.039   3.902  17.455  0.00  0.00    +0.000 C 
ATOM      2  C   UNL     1       4.999   4.812  18.711  0.00  0.00    +0.000 C 
ATOM      3  C   UNL     1       4.809   3.790  19.891  0.00  0.00    +0.000 C 
ATOM      4  C   UNL     1       3.687   2.742  19.658  0.00  0.00    +0.000 C 
ATOM      5  C   UNL     1       4.048   1.380  19.037  0.00  0.00    +0.000 C 
ATOM      6  C   UNL     1       4.053   1.595  17.528  0.00  0.00    +0.000 C 
ATOM      7  C   UNL     1       3.680   3.074  17.372  0.00  0.00    +0.000 C 
ATOM      8  N   UNL     1       2.853   3.317  18.609  0.00  0.00    +0.000 NA
ENDROOT
BRANCH   2   9
ATOM      9  C   UNL     1       3.998   5.984  18.587  0.00  0.00    +0.000 A 
ATOM     10  C   UNL     1       3.999   6.862  17.481  0.00  0.00    +0.000 A 
ATOM     11  C   UNL     1       3.148   7.957  17.375  0.00  0.00    +0.000 A 
ATOM     12  C   UNL     1       2.234   8.222  18.382  0.00  0.00    +0.000 A 
ATOM     13  C   UNL     1       1.333   9.414  18.247  0.00  0.00    +0.000 C 
ATOM     14  C   UNL     1       2.208   7.376  19.500  0.00  0.00    +0.000 A 
ATOM     15  C   UNL     1       3.077   6.272  19.603  0.00  0.00    +0.000 A 
ENDBRANCH   2   9
BRANCH   1  16
ATOM     16  C   UNL     1       5.582   4.676  16.262  0.00  0.00    +0.000 C 
ATOM     17  O   UNL     1       6.535   5.446  16.344  0.00  0.00    +0.000 OA
BRANCH  16  19
ATOM     18  C   UNL     1       5.794   4.069  14.004  0.00  0.00    +0.000 C 
ATOM     19  O   UNL     1       4.934   4.417  15.100  0.00  0.00    +0.000 OA
ENDBRANCH  16  19
ENDBRANCH   1  16
BRANCH   8  20
ATOM     20  C   UNL     1       1.443   2.898  18.646  0.00  0.00    +0.000 C 
BRANCH  20  21
ATOM     21  C   UNL     1       0.715   3.492  19.881  0.00  0.00    +0.000 C 
BRANCH  21  22
ATOM     22  C   UNL     1       1.145   2.897  21.209  0.00  0.00    +0.000 C 
ATOM     23  F   UNL     1       1.882   3.817  21.890  0.00  0.00    +0.000 F 
ENDBRANCH  21  22
ENDBRANCH  20  21
ENDBRANCH   8  20
TORSDOF 6
ENDMDL
MODEL 5
REMARK VINA RESULT:      -6.3      0.514      1.325
REMARK  Name = 
REMARK  8 active torsions:
REMARK  status: ('A' for Active; 'I' for Inactive)
REMARK    1  A    between atoms: C_1  and  O_2
REMARK    2  A    between atoms: O_2  and  C_3
REMARK    3  A    between atoms: C_3  and  C_5
REMARK    4  A    between atoms: C_6  and  C_7
REMARK    5  A    between atoms: C_10  and  C_11
REMARK    6  A    between atoms: N_19  and  C_20
REMARK    7  A    between atoms: C_20  and  C_21
REMARK    8  A    between atoms: C_21  and  C_22
REMARK                            x       y       z     vdW  Elec       q    Type
REMARK                         _______ _______ _______ _____ _____    ______ ____
ROOT
ATOM      1  C   UNL     1       5.046   3.912  17.624  0.00  0.00    +0.000 C 
ATOM      2  C   UNL     1       4.081   4.909  16.931  0.00  0.00    +0.000 C 
ATOM      3  C   UNL     1       4.980   5.574  15.826  0.00  0.00    +0.000 C 
ATOM      4  C   UNL     1       6.364   6.063  16.333  0.00  0.00    +0.000 C 
ATOM      5  C   UNL     1       7.579   5.123  16.223  0.00  0.00    +0.000 C 
ATOM      6  C   UNL     1       7.531   4.227  17.454  0.00  0.00    +0.000 C 
ATOM      7  C   UNL     1       6.289   4.717  18.210  0.00  0.00    +0.000 C 
ATOM      8  N   UNL     1       6.216   6.161  17.781  0.00  0.00    +0.000 NA
ENDROOT
BRANCH   2   9
ATOM      9  C   UNL     1       3.336   5.832  17.924  0.00  0.00    +0.000 A 
ATOM     10  C   UNL     1       3.099   7.197  17.651  0.00  0.00    +0.000 A 
ATOM     11  C   UNL     1       2.484   8.060  18.551  0.00  0.00    +0.000 A 
ATOM     12  C   UNL     1       2.061   7.587  19.783  0.00  0.00    +0.000 A 
ATOM     13  C   UNL     1       1.407   8.541  20.739  0.00  0.00    +0.000 C 
ATOM     14  C   UNL     1       2.284   6.238  20.092  0.00  0.00    +0.000 A 
ATOM     15  C   UNL     1       2.914   5.371  19.177  0.00  0.00    +0.000 A 
ENDBRANCH   2   9
BRANCH   1  16
ATOM     16  C   UNL     1       4.260   2.920  18.469  0.00  0.00    +0.000 C 
ATOM     17  O   UNL     1       3.274   2.320  18.050  0.00  0.00    +0.000 OA
BRANCH  16  19
ATOM     18  C   UNL     1       3.817   2.248  20.674  0.00  0.00    +0.000 C 
ATOM     19  O   UNL     1       4.763   2.743  19.715  0.00  0.00    +0.000 OA
ENDBRANCH  16  19
ENDBRANCH   1  16
BRANCH   8  20
ATOM     20  C   UNL     1       7.082   7.164  18.421  0.00  0.00    +0.000 C 
BRANCH  20  21
ATOM     21  C   UNL     1       7.485   8.278  17.418  0.00  0.00    +0.000 C 
BRANCH  21  22
ATOM     22  C   UNL     1       8.322   9.391  18.020  0.00  0.00    +0.000 C 
ATOM     23  F   UNL     1       9.024   8.896  19.075  0.00  0.00    +0.000 F 
ENDBRANCH  21  22
ENDBRANCH  20  21
ENDBRANCH   8  20
TORSDOF 6
ENDMDL
MODEL 6
REMARK VINA RESULT:      -6.3      3.079      4.881
REMARK  Name = 
REMARK  8 active torsions:
REMARK  status: ('A' for Active; 'I' for Inactive)
REMARK    1  A    between atoms: C_1  and  O_2
REMARK    2  A    between atoms: O_2  and  C_3
REMARK    3  A    between atoms: C_3  and  C_5
REMARK    4  A    between atoms: C_6  and  C_7
REMARK    5  A    between atoms: C_10  and  C_11
REMARK    6  A    between atoms: N_19  and  C_20
REMARK    7  A    between atoms: C_20  and  C_21
REMARK    8  A    between atoms: C_21  and  C_22
REMARK                            x       y       z     vdW  Elec       q    Type
REMARK                         _______ _______ _______ _____ _____    ______ ____
ROOT
ATOM      1  C   UNL     1       5.045   3.982  17.419  0.00  0.00    +0.000 C 
ATOM      2  C   UNL     1       5.027   4.846  18.706  0.00  0.00    +0.000 C 
ATOM      3  C   UNL     1       4.800   3.790  19.848  0.00  0.00    +0.000 C 
ATOM      4  C   UNL     1       3.647   2.785  19.573  0.00  0.00    +0.000 C 
ATOM      5  C   UNL     1       3.969   1.436  18.905  0.00  0.00    +0.000 C 
ATOM      6  C   UNL     1       3.989   1.705  17.405  0.00  0.00    +0.000 C 
ATOM      7  C   UNL     1       3.662   3.199  17.300  0.00  0.00    +0.000 C 
ATOM      8  N   UNL     1       2.837   3.423  18.542  0.00  0.00    +0.000 NA
ENDROOT
BRANCH   2   9
ATOM      9  C   UNL     1       4.062   6.053  18.621  0.00  0.00    +0.000 A 
ATOM     10  C   UNL     1       3.085   6.306  19.608  0.00  0.00    +0.000 A 
ATOM     11  C   UNL     1       2.168   7.350  19.525  0.00  0.00    +0.000 A 
ATOM     12  C   UNL     1       2.196   8.208  18.438  0.00  0.00    +0.000 A 
ATOM     13  C   UNL     1       1.191   9.320  18.368  0.00  0.00    +0.000 C 
ATOM     14  C   UNL     1       3.149   7.984  17.434  0.00  0.00    +0.000 A 
ATOM     15  C   UNL     1       4.070   6.921  17.523  0.00  0.00    +0.000 A 
ENDBRANCH   2   9
BRANCH   1  16
ATOM     16  C   UNL     1       5.618   4.781  16.257  0.00  0.00    +0.000 C 
ATOM     17  O   UNL     1       6.603   5.505  16.367  0.00  0.00    +0.000 OA
BRANCH  16  19
ATOM     18  C   UNL     1       5.752   4.029  14.037  0.00  0.00    +0.000 C 
ATOM     19  O   UNL     1       4.957   4.598  15.088  0.00  0.00    +0.000 OA
ENDBRANCH  16  19
ENDBRANCH   1  16
BRANCH   8  20
ATOM     20  C   UNL     1       1.414   3.047  18.558  0.00  0.00    +0.000 C 
BRANCH  20  21
ATOM     21  C   UNL     1       0.703   3.599  19.822  0.00  0.00    +0.000 C 
BRANCH  21  22
ATOM     22  C   UNL     1       1.153   2.962  21.124  0.00  0.00    +0.000 C 
ATOM     23  F   UNL     1       1.869   3.873  21.839  0.00  0.00    +0.000 F 
ENDBRANCH  21  22
ENDBRANCH  20  21
ENDBRANCH   8  20
TORSDOF 6
ENDMDL
MODEL 7
REMARK VINA RESULT:      -6.3      3.083      6.265
REMARK  Name = 
REMARK  8 active torsions:
REMARK  status: ('A' for Active; 'I' for Inactive)
REMARK    1  A    between atoms: C_1  and  O_2
REMARK    2  A    between atoms: O_2  and  C_3
REMARK    3  A    between atoms: C_3  and  C_5
REMARK    4  A    between atoms: C_6  and  C_7
REMARK    5  A    between atoms: C_10  and  C_11
REMARK    6  A    between atoms: N_19  and  C_20
REMARK    7  A    between atoms: C_20  and  C_21
REMARK    8  A    between atoms: C_21  and  C_22
REMARK                            x       y       z     vdW  Elec       q    Type
REMARK                         _______ _______ _______ _____ _____    ______ ____
ROOT
ATOM      1  C   UNL     1       5.941   5.509  18.471  0.00  0.00    +0.000 C 
ATOM      2  C   UNL     1       5.465   6.220  17.177  0.00  0.00    +0.000 C 
ATOM      3  C   UNL     1       3.972   6.594  17.499  0.00  0.00    +0.000 C 
ATOM      4  C   UNL     1       3.133   5.432  18.097  0.00  0.00    +0.000 C 
ATOM      5  C   UNL     1       3.032   5.287  19.626  0.00  0.00    +0.000 C 
ATOM      6  C   UNL     1       4.271   4.513  20.059  0.00  0.00    +0.000 C 
ATOM      7  C   UNL     1       5.009   4.245  18.741  0.00  0.00    +0.000 C 
ATOM      8  N   UNL     1       3.872   4.223  17.750  0.00  0.00    +0.000 NA
ENDROOT
BRANCH   2   9
ATOM      9  C   UNL     1       5.758   5.413  15.891  0.00  0.00    +0.000 A 
ATOM     10  C   UNL     1       7.029   5.412  15.276  0.00  0.00    +0.000 A 
ATOM     11  C   UNL     1       7.302   4.742  14.087  0.00  0.00    +0.000 A 
ATOM     12  C   UNL     1       6.302   4.021  13.456  0.00  0.00    +0.000 A 
ATOM     13  C   UNL     1       6.620   3.313  12.172  0.00  0.00    +0.000 C 
ATOM     14  C   UNL     1       5.025   4.002  14.035  0.00  0.00    +0.000 A 
ATOM     15  C   UNL     1       4.754   4.689  15.235  0.00  0.00    +0.000 A 
ENDBRANCH   2   9
BRANCH   1  16
ATOM     16  C   UNL     1       7.460   5.405  18.486  0.00  0.00    +0.000 C 
ATOM     17  O   UNL     1       8.064   4.409  18.098  0.00  0.00    +0.000 OA
BRANCH  16  19
ATOM     18  C   UNL     1       8.035   7.637  18.039  0.00  0.00    +0.000 C 
ATOM     19  O   UNL     1       8.080   6.521  18.941  0.00  0.00    +0.000 OA
ENDBRANCH  16  19
ENDBRANCH   1  16
BRANCH   8  20
ATOM     20  C   UNL     1       3.044   3.016  17.606  0.00  0.00    +0.000 C 
BRANCH  20  21
ATOM     21  C   UNL     1       1.537   3.347  17.775  0.00  0.00    +0.000 C 
BRANCH  21  22
ATOM     22  C   UNL     1       0.816   2.483  18.794  0.00  0.00    +0.000 C 
ATOM     23  F   UNL     1       1.705   2.081  19.743  0.00  0.00    +0.000 F 
ENDBRANCH  21  22
ENDBRANCH  20  21
ENDBRANCH   8  20
TORSDOF 6
ENDMDL
MODEL 8
REMARK VINA RESULT:      -6.2      3.100      5.150
REMARK  Name = 
REMARK  8 active torsions:
REMARK  status: ('A' for Active; 'I' for Inactive)
REMARK    1  A    between atoms: C_1  and  O_2
REMARK    2  A    between atoms: O_2  and  C_3
REMARK    3  A    between atoms: C_3  and  C_5
REMARK    4  A    between atoms: C_6  and  C_7
REMARK    5  A    between atoms: C_10  and  C_11
REMARK    6  A    between atoms: N_19  and  C_20
REMARK    7  A    between atoms: C_20  and  C_21
REMARK    8  A    between atoms: C_21  and  C_22
REMARK                            x       y       z     vdW  Elec       q    Type
REMARK                         _______ _______ _______ _____ _____    ______ ____
ROOT
ATOM      1  C   UNL     1       4.844   5.460  17.496  0.00  0.00    +0.000 C 
ATOM      2  C   UNL     1       4.482   6.025  18.895  0.00  0.00    +0.000 C 
ATOM      3  C   UNL     1       4.329   4.733  19.778  0.00  0.00    +0.000 C 
ATOM      4  C   UNL     1       3.451   3.621  19.141  0.00  0.00    +0.000 C 
ATOM      5  C   UNL     1       4.125   2.516  18.307  0.00  0.00    +0.000 C 
ATOM      6  C   UNL     1       4.285   3.086  16.903  0.00  0.00    +0.000 C 
ATOM      7  C   UNL     1       3.677   4.490  17.012  0.00  0.00    +0.000 C 
ATOM      8  N   UNL     1       2.669   4.306  18.118  0.00  0.00    +0.000 NA
ENDROOT
BRANCH   2   9
ATOM      9  C   UNL     1       3.312   7.036  18.865  0.00  0.00    +0.000 A 
ATOM     10  C   UNL     1       3.092   7.901  17.770  0.00  0.00    +0.000 A 
ATOM     11  C   UNL     1       2.083   8.858  17.744  0.00  0.00    +0.000 A 
ATOM     12  C   UNL     1       1.226   8.987  18.824  0.00  0.00    +0.000 A 
ATOM     13  C   UNL     1       0.151  10.033  18.774  0.00  0.00    +0.000 C 
ATOM     14  C   UNL     1       1.416   8.149  19.932  0.00  0.00    +0.000 A 
ATOM     15  C   UNL     1       2.445   7.187  19.954  0.00  0.00    +0.000 A 
ENDBRANCH   2   9
BRANCH   1  16
ATOM     16  C   UNL     1       5.388   6.569  16.607  0.00  0.00    +0.000 C 
ATOM     17  O   UNL     1       5.086   6.684  15.423  0.00  0.00    +0.000 OA
BRANCH  16  19
ATOM     18  C   UNL     1       7.575   6.981  17.354  0.00  0.00    +0.000 C 
ATOM     19  O   UNL     1       6.216   7.430  17.250  0.00  0.00    +0.000 OA
ENDBRANCH  16  19
ENDBRANCH   1  16
BRANCH   8  20
ATOM     20  C   UNL     1       1.363   3.692  17.829  0.00  0.00    +0.000 C 
BRANCH  20  21
ATOM     21  C   UNL     1       0.787   2.982  19.084  0.00  0.00    +0.000 C 
BRANCH  21  22
ATOM     22  C   UNL     1       0.692   3.865  20.315  0.00  0.00    +0.000 C 
ATOM     23  F   UNL     1       0.971   3.118  21.418  0.00  0.00    +0.000 F 
ENDBRANCH  21  22
ENDBRANCH  20  21
ENDBRANCH   8  20
TORSDOF 6
ENDMDL
MODEL 9
REMARK VINA RESULT:      -6.1      2.949      6.050
REMARK  Name = 
REMARK  8 active torsions:
REMARK  status: ('A' for Active; 'I' for Inactive)
REMARK    1  A    between atoms: C_1  and  O_2
REMARK    2  A    between atoms: O_2  and  C_3
REMARK    3  A    between atoms: C_3  and  C_5
REMARK    4  A    between atoms: C_6  and  C_7
REMARK    5  A    between atoms: C_10  and  C_11
REMARK    6  A    between atoms: N_19  and  C_20
REMARK    7  A    between atoms: C_20  and  C_21
REMARK    8  A    between atoms: C_21  and  C_22
REMARK                            x       y       z     vdW  Elec       q    Type
REMARK                         _______ _______ _______ _____ _____    ______ ____
ROOT
ATOM      1  C   UNL     1       4.805   5.668  19.202  0.00  0.00    +0.000 C 
ATOM      2  C   UNL     1       4.827   6.551  17.927  0.00  0.00    +0.000 C 
ATOM      3  C   UNL     1       3.483   7.362  18.026  0.00  0.00    +0.000 C 
ATOM      4  C   UNL     1       2.234   6.496  18.348  0.00  0.00    +0.000 C 
ATOM      5  C   UNL     1       1.798   6.322  19.815  0.00  0.00    +0.000 C 
ATOM      6  C   UNL     1       2.638   5.177  20.370  0.00  0.00    +0.000 C 
ATOM      7  C   UNL     1       3.503   4.752  19.176  0.00  0.00    +0.000 C 
ATOM      8  N   UNL     1       2.628   5.134  18.009  0.00  0.00    +0.000 NA
ENDROOT
BRANCH   2   9
ATOM      9  C   UNL     1       5.108   5.752  16.633  0.00  0.00    +0.000 A 
ATOM     10  C   UNL     1       5.367   4.364  16.646  0.00  0.00    +0.000 A 
ATOM     11  C   UNL     1       5.680   3.634  15.504  0.00  0.00    +0.000 A 
ATOM     12  C   UNL     1       5.737   4.269  14.273  0.00  0.00    +0.000 A 
ATOM     13  C   UNL     1       6.084   3.461  13.058  0.00  0.00    +0.000 C 
ATOM     14  C   UNL     1       5.491   5.648  14.221  0.00  0.00    +0.000 A 
ATOM     15  C   UNL     1       5.181   6.381  15.384  0.00  0.00    +0.000 A 
ENDBRANCH   2   9
BRANCH   1  16
ATOM     16  C   UNL     1       6.190   5.091  19.465  0.00  0.00    +0.000 C 
ATOM     17  O   UNL     1       6.448   3.896  19.347  0.00  0.00    +0.000 OA
BRANCH  16  19
ATOM     18  C   UNL     1       8.127   6.251  18.826  0.00  0.00    +0.000 C 
ATOM     19  O   UNL     1       7.113   6.020  19.814  0.00  0.00    +0.000 OA
ENDBRANCH  16  19
ENDBRANCH   1  16
BRANCH   8  20
ATOM     20  C   UNL     1       1.519   4.256  17.602  0.00  0.00    +0.000 C 
BRANCH  20  21
ATOM     21  C   UNL     1       1.790   2.784  18.014  0.00  0.00    +0.000 C 
BRANCH  21  22
ATOM     22  C   UNL     1       0.684   2.150  18.837  0.00  0.00    +0.000 C 
ATOM     23  F   UNL     1       0.527   2.858  19.989  0.00  0.00    +0.000 F 
ENDBRANCH  21  22
ENDBRANCH  20  21
ENDBRANCH   8  20
TORSDOF 6
ENDMDL
