MODEL 1
REMARK VINA RESULT:      -6.1      0.000      0.000
REMARK  Name = 
REMARK  8 active torsions:
REMARK  status: ('A' for Active; 'I' for Inactive)
REMARK    1  A    between atoms: C_1  and  O_2
REMARK    2  A    between atoms: O_2  and  C_3
REMARK    3  A    between atoms: C_8  and  N_9
REMARK    4  A    between atoms: C_10  and  S_11
REMARK    5  A    between atoms: N_12  and  C_13
REMARK    6  A    between atoms: C_13  and  N_14
REMARK    7  A    between atoms: C_13  and  C_18
REMARK    8  A    between atoms: C_15  and  C_16
REMARK                            x       y       z     vdW  Elec       q    Type
REMARK                         _______ _______ _______ _____ _____    ______ ____
ROOT
ATOM      1  N   UNL     1       4.631   5.216  17.577  0.00  0.00    +0.000 NA
ATOM      2  C   UNL     1       5.068   5.263  18.789  0.00  0.00    +0.000 C 
ATOM      3  N   UNL     1       4.157   5.336  19.864  0.00  0.00    +0.000 N 
ATOM      4  H   UNL     1       4.501   5.307  20.825  0.00  0.00    +0.000 HD
ENDROOT
BRANCH   1  10
ATOM      5  C   UNL     1       6.275   6.036  15.945  0.00  0.00    +0.000 A 
ATOM      6  C   UNL     1       7.008   5.859  14.763  0.00  0.00    +0.000 A 
ATOM      7  C   UNL     1       6.964   4.650  14.076  0.00  0.00    +0.000 A 
ATOM      8  C   UNL     1       6.218   3.598  14.597  0.00  0.00    +0.000 A 
ATOM      9  C   UNL     1       5.505   3.758  15.791  0.00  0.00    +0.000 A 
ATOM     10  C   UNL     1       5.451   4.997  16.443  0.00  0.00    +0.000 A 
BRANCH   5  12
ATOM     11  C   UNL     1       7.565   7.549  17.226  0.00  0.00    +0.000 C 
ATOM     12  O   UNL     1       6.385   7.301  16.472  0.00  0.00    +0.000 OA
ENDBRANCH   5  12
ENDBRANCH   1  10
BRANCH   2  13
ATOM     13  S   UNL     1       6.675   5.245  19.435  0.00  0.00    +0.000 S 
ATOM     14  H   UNL     1       7.337   4.916  18.323  0.00  0.00    +0.000 HD
ENDBRANCH   2  13
BRANCH   3  15
ATOM     15  C   UNL     1       2.707   5.511  19.702  0.00  0.00    +0.000 C 
BRANCH  15  16
ATOM     16  N   UNL     1       2.464   6.604  18.765  0.00  0.00    +0.000 N 
ATOM     17  C   UNL     1       2.074   7.850  19.196  0.00  0.00    +0.000 C 
ATOM     18  C   UNL     1       2.039   8.921  18.144  0.00  0.00    +0.000 C 
ATOM     19  O   UNL     1       1.746   8.036  20.368  0.00  0.00    +0.000 OA
ATOM     20  H   UNL     1       2.853   6.522  17.834  0.00  0.00    +0.000 HD
ENDBRANCH  15  16
BRANCH  15  21
ATOM     21  C   UNL     1       1.969   4.124  19.396  0.00  0.00    +0.000 C 
ATOM     22 CL   UNL     1       0.555   3.821  20.474  0.00  0.00    +0.000 Cl
ATOM     23 CL   UNL     1       1.343   4.155  17.700  0.00  0.00    +0.000 Cl
ATOM     24 CL   UNL     1       3.058   2.693  19.514  0.00  0.00    +0.000 Cl
ENDBRANCH  15  21
ENDBRANCH   3  15
TORSDOF 6
ENDMDL
MODEL 2
REMARK VINA RESULT:      -6.1      0.058      1.077
REMARK  Name = 
REMARK  8 active torsions:
REMARK  status: ('A' for Active; 'I' for Inactive)
REMARK    1  A    between atoms: C_1  and  O_2
REMARK    2  A    between atoms: O_2  and  C_3
REMARK    3  A    between atoms: C_8  and  N_9
REMARK    4  A    between atoms: C_10  and  S_11
REMARK    5  A    between atoms: N_12  and  C_13
REMARK    6  A    between atoms: C_13  and  N_14
REMARK    7  A    between atoms: C_13  and  C_18
REMARK    8  A    between atoms: C_15  and  C_16
REMARK                            x       y       z     vdW  Elec       q    Type
REMARK                         _______ _______ _______ _____ _____    ______ ____
ROOT
ATOM      1  N   UNL     1       4.633   5.210  17.578  0.00  0.00    +0.000 NA
ATOM      2  C   UNL     1       5.069   5.268  18.789  0.00  0.00    +0.000 C 
ATOM      3  N   UNL     1       4.158   5.343  19.864  0.00  0.00    +0.000 N 
ATOM      4  H   UNL     1       4.502   5.323  20.826  0.00  0.00    +0.000 HD
ENDROOT
BRANCH   1  10
ATOM      5  C   UNL     1       6.282   6.024  15.948  0.00  0.00    +0.000 A 
ATOM      6  C   UNL     1       7.016   5.844  14.767  0.00  0.00    +0.000 A 
ATOM      7  C   UNL     1       6.970   4.634  14.082  0.00  0.00    +0.000 A 
ATOM      8  C   UNL     1       6.221   3.584  14.602  0.00  0.00    +0.000 A 
ATOM      9  C   UNL     1       5.506   3.748  15.794  0.00  0.00    +0.000 A 
ATOM     10  C   UNL     1       5.454   4.988  16.445  0.00  0.00    +0.000 A 
BRANCH   5  12
ATOM     11  C   UNL     1       7.589   7.546  17.199  0.00  0.00    +0.000 C 
ATOM     12  O   UNL     1       6.394   7.289  16.474  0.00  0.00    +0.000 OA
ENDBRANCH   5  12
ENDBRANCH   1  10
BRANCH   2  13
ATOM     13  S   UNL     1       6.677   5.264  19.435  0.00  0.00    +0.000 S 
ATOM     14  H   UNL     1       6.556   4.232  20.274  0.00  0.00    +0.000 HD
ENDBRANCH   2  13
BRANCH   3  15
ATOM     15  C   UNL     1       2.707   5.509  19.701  0.00  0.00    +0.000 C 
BRANCH  15  16
ATOM     16  N   UNL     1       2.457   6.605  18.770  0.00  0.00    +0.000 N 
ATOM     17  C   UNL     1       2.071   7.850  19.209  0.00  0.00    +0.000 C 
ATOM     18  C   UNL     1       2.029   8.925  18.161  0.00  0.00    +0.000 C 
ATOM     19  O   UNL     1       1.752   8.032  20.384  0.00  0.00    +0.000 OA
ATOM     20  H   UNL     1       2.839   6.527  17.835  0.00  0.00    +0.000 HD
ENDBRANCH  15  16
BRANCH  15  21
ATOM     21  C   UNL     1       1.980   4.118  19.386  0.00  0.00    +0.000 C 
ATOM     22 CL   UNL     1       3.035   2.685  19.678  0.00  0.00    +0.000 Cl
ATOM     23 CL   UNL     1       0.545   3.947  20.473  0.00  0.00    +0.000 Cl
ATOM     24 CL   UNL     1       1.360   4.001  17.697  0.00  0.00    +0.000 Cl
ENDBRANCH  15  21
ENDBRANCH   3  15
TORSDOF 6
ENDMDL
MODEL 3
REMARK VINA RESULT:      -6.1      0.061      1.113
REMARK  Name = 
REMARK  8 active torsions:
REMARK  status: ('A' for Active; 'I' for Inactive)
REMARK    1  A    between atoms: C_1  and  O_2
REMARK    2  A    between atoms: O_2  and  C_3
REMARK    3  A    between atoms: C_8  and  N_9
REMARK    4  A    between atoms: C_10  and  S_11
REMARK    5  A    between atoms: N_12  and  C_13
REMARK    6  A    between atoms: C_13  and  N_14
REMARK    7  A    between atoms: C_13  and  C_18
REMARK    8  A    between atoms: C_15  and  C_16
REMARK                            x       y       z     vdW  Elec       q    Type
REMARK                         _______ _______ _______ _____ _____    ______ ____
ROOT
ATOM      1  N   UNL     1       4.625   5.233  17.577  0.00  0.00    +0.000 NA
ATOM      2  C   UNL     1       5.062   5.284  18.789  0.00  0.00    +0.000 C 
ATOM      3  N   UNL     1       4.153   5.365  19.863  0.00  0.00    +0.000 N 
ATOM      4  H   UNL     1       4.496   5.339  20.825  0.00  0.00    +0.000 HD
ENDROOT
BRANCH   1  10
ATOM      5  C   UNL     1       6.273   6.038  15.942  0.00  0.00    +0.000 A 
ATOM      6  C   UNL     1       7.005   5.854  14.760  0.00  0.00    +0.000 A 
ATOM      7  C   UNL     1       6.956   4.641  14.079  0.00  0.00    +0.000 A 
ATOM      8  C   UNL     1       6.205   3.595  14.604  0.00  0.00    +0.000 A 
ATOM      9  C   UNL     1       5.493   3.764  15.797  0.00  0.00    +0.000 A 
ATOM     10  C   UNL     1       5.445   5.005  16.444  0.00  0.00    +0.000 A 
BRANCH   5  12
ATOM     11  C   UNL     1       7.588   7.565  17.179  0.00  0.00    +0.000 C 
ATOM     12  O   UNL     1       6.388   7.305  16.463  0.00  0.00    +0.000 OA
ENDBRANCH   5  12
ENDBRANCH   1  10
BRANCH   2  13
ATOM     13  S   UNL     1       6.670   5.263  19.434  0.00  0.00    +0.000 S 
ATOM     14  H   UNL     1       6.832   6.575  19.619  0.00  0.00    +0.000 HD
ENDBRANCH   2  13
BRANCH   3  15
ATOM     15  C   UNL     1       2.703   5.545  19.701  0.00  0.00    +0.000 C 
BRANCH  15  16
ATOM     16  N   UNL     1       2.464   6.638  18.763  0.00  0.00    +0.000 N 
ATOM     17  C   UNL     1       2.069   7.883  19.192  0.00  0.00    +0.000 C 
ATOM     18  C   UNL     1       2.039   8.954  18.140  0.00  0.00    +0.000 C 
ATOM     19  O   UNL     1       1.734   8.068  20.362  0.00  0.00    +0.000 OA
ATOM     20  H   UNL     1       2.858   6.557  17.834  0.00  0.00    +0.000 HD
ENDBRANCH  15  16
BRANCH  15  21
ATOM     21  C   UNL     1       1.961   4.160  19.397  0.00  0.00    +0.000 C 
ATOM     22 CL   UNL     1       1.393   4.021  17.690  0.00  0.00    +0.000 Cl
ATOM     23 CL   UNL     1       3.118   2.800  19.680  0.00  0.00    +0.000 Cl
ATOM     24 CL   UNL     1       0.543   3.857  20.467  0.00  0.00    +0.000 Cl
ENDBRANCH  15  21
ENDBRANCH   3  15
TORSDOF 6
ENDMDL
MODEL 4
REMARK VINA RESULT:      -5.9      3.176      5.910
REMARK  Name = 
REMARK  8 active torsions:
REMARK  status: ('A' for Active; 'I' for Inactive)
REMARK    1  A    between atoms: C_1  and  O_2
REMARK    2  A    between atoms: O_2  and  C_3
REMARK    3  A    between atoms: C_8  and  N_9
REMARK    4  A    between atoms: C_10  and  S_11
REMARK    5  A    between atoms: N_12  and  C_13
REMARK    6  A    between atoms: C_13  and  N_14
REMARK    7  A    between atoms: C_13  and  C_18
REMARK    8  A    between atoms: C_15  and  C_16
REMARK                            x       y       z     vdW  Elec       q    Type
REMARK                         _______ _______ _______ _____ _____    ______ ____
ROOT
ATOM      1  N   UNL     1       4.260   5.304  18.182  0.00  0.00    +0.000 NA
ATOM      2  C   UNL     1       4.251   6.477  17.646  0.00  0.00    +0.000 C 
ATOM      3  N   UNL     1       5.284   6.857  16.764  0.00  0.00    +0.000 N 
ATOM      4  H   UNL     1       5.242   7.760  16.289  0.00  0.00    +0.000 HD
ENDROOT
BRANCH   1  10
ATOM      5  C   UNL     1       2.659   3.503  18.661  0.00  0.00    +0.000 A 
ATOM      6  C   UNL     1       1.543   3.022  19.360  0.00  0.00    +0.000 A 
ATOM      7  C   UNL     1       0.969   3.772  20.382  0.00  0.00    +0.000 A 
ATOM      8  C   UNL     1       1.541   4.990  20.736  0.00  0.00    +0.000 A 
ATOM      9  C   UNL     1       2.670   5.465  20.060  0.00  0.00    +0.000 A 
ATOM     10  C   UNL     1       3.201   4.777  18.961  0.00  0.00    +0.000 A 
BRANCH   5  12
ATOM     11  C   UNL     1       3.630   1.430  18.071  0.00  0.00    +0.000 C 
ATOM     12  O   UNL     1       3.072   2.668  17.651  0.00  0.00    +0.000 OA
ENDBRANCH   5  12
ENDBRANCH   1  10
BRANCH   2  13
ATOM     13  S   UNL     1       3.137   7.797  17.785  0.00  0.00    +0.000 S 
ATOM     14  H   UNL     1       2.376   7.317  18.771  0.00  0.00    +0.000 HD
ENDBRANCH   2  13
BRANCH   3  15
ATOM     15  C   UNL     1       6.484   6.049  16.507  0.00  0.00    +0.000 C 
BRANCH  15  16
ATOM     16  N   UNL     1       6.961   5.494  17.771  0.00  0.00    +0.000 N 
ATOM     17  C   UNL     1       7.694   6.248  18.657  0.00  0.00    +0.000 C 
ATOM     18  C   UNL     1       7.958   5.609  19.991  0.00  0.00    +0.000 C 
ATOM     19  O   UNL     1       8.123   7.356  18.336  0.00  0.00    +0.000 OA
ATOM     20  H   UNL     1       6.515   4.654  18.115  0.00  0.00    +0.000 HD
ENDBRANCH  15  16
BRANCH  15  21
ATOM     21  C   UNL     1       6.261   5.013  15.306  0.00  0.00    +0.000 C 
ATOM     22 CL   UNL     1       5.931   3.333  15.873  0.00  0.00    +0.000 Cl
ATOM     23 CL   UNL     1       4.824   5.537  14.341  0.00  0.00    +0.000 Cl
ATOM     24 CL   UNL     1       7.648   4.937  14.159  0.00  0.00    +0.000 Cl
ENDBRANCH  15  21
ENDBRANCH   3  15
TORSDOF 6
ENDMDL
MODEL 5
REMARK VINA RESULT:      -5.9      3.166      6.006
REMARK  Name = 
REMARK  8 active torsions:
REMARK  status: ('A' for Active; 'I' for Inactive)
REMARK    1  A    between atoms: C_1  and  O_2
REMARK    2  A    between atoms: O_2  and  C_3
REMARK    3  A    between atoms: C_8  and  N_9
REMARK    4  A    between atoms: C_10  and  S_11
REMARK    5  A    between atoms: N_12  and  C_13
REMARK    6  A    between atoms: C_13  and  N_14
REMARK    7  A    between atoms: C_13  and  C_18
REMARK    8  A    between atoms: C_15  and  C_16
REMARK                            x       y       z     vdW  Elec       q    Type
REMARK                         _______ _______ _______ _____ _____    ______ ____
ROOT
ATOM      1  N   UNL     1       4.237   5.302  18.188  0.00  0.00    +0.000 NA
ATOM      2  C   UNL     1       4.221   6.472  17.646  0.00  0.00    +0.000 C 
ATOM      3  N   UNL     1       5.251   6.852  16.760  0.00  0.00    +0.000 N 
ATOM      4  H   UNL     1       5.204   7.753  16.281  0.00  0.00    +0.000 HD
ENDROOT
BRANCH   1  10
ATOM      5  C   UNL     1       2.635   3.503  18.672  0.00  0.00    +0.000 A 
ATOM      6  C   UNL     1       1.523   3.021  19.376  0.00  0.00    +0.000 A 
ATOM      7  C   UNL     1       0.957   3.769  20.404  0.00  0.00    +0.000 A 
ATOM      8  C   UNL     1       1.533   4.985  20.758  0.00  0.00    +0.000 A 
ATOM      9  C   UNL     1       2.659   5.460  20.077  0.00  0.00    +0.000 A 
ATOM     10  C   UNL     1       3.182   4.774  18.972  0.00  0.00    +0.000 A 
BRANCH   5  12
ATOM     11  C   UNL     1       3.616   1.438  18.068  0.00  0.00    +0.000 C 
ATOM     12  O   UNL     1       3.041   2.670  17.656  0.00  0.00    +0.000 OA
ENDBRANCH   5  12
ENDBRANCH   1  10
BRANCH   2  13
ATOM     13  S   UNL     1       3.102   7.788  17.781  0.00  0.00    +0.000 S 
ATOM     14  H   UNL     1       3.401   8.182  19.021  0.00  0.00    +0.000 HD
ENDBRANCH   2  13
BRANCH   3  15
ATOM     15  C   UNL     1       6.454   6.048  16.505  0.00  0.00    +0.000 C 
BRANCH  15  16
ATOM     16  N   UNL     1       6.934   5.500  17.771  0.00  0.00    +0.000 N 
ATOM     17  C   UNL     1       7.680   6.254  18.646  0.00  0.00    +0.000 C 
ATOM     18  C   UNL     1       7.946   5.623  19.983  0.00  0.00    +0.000 C 
ATOM     19  O   UNL     1       8.118   7.355  18.314  0.00  0.00    +0.000 OA
ATOM     20  H   UNL     1       6.482   4.666  18.125  0.00  0.00    +0.000 HD
ENDBRANCH  15  16
BRANCH  15  21
ATOM     21  C   UNL     1       6.235   5.008  15.308  0.00  0.00    +0.000 C 
ATOM     22 CL   UNL     1       7.639   4.920  14.180  0.00  0.00    +0.000 Cl
ATOM     23 CL   UNL     1       6.011   3.353  16.003  0.00  0.00    +0.000 Cl
ATOM     24 CL   UNL     1       4.766   5.353  14.322  0.00  0.00    +0.000 Cl
ENDBRANCH  15  21
ENDBRANCH   3  15
TORSDOF 6
ENDMDL
MODEL 6
REMARK VINA RESULT:      -5.9      3.175      5.924
REMARK  Name = 
REMARK  8 active torsions:
REMARK  status: ('A' for Active; 'I' for Inactive)
REMARK    1  A    between atoms: C_1  and  O_2
REMARK    2  A    between atoms: O_2  and  C_3
REMARK    3  A    between atoms: C_8  and  N_9
REMARK    4  A    between atoms: C_10  and  S_11
REMARK    5  A    between atoms: N_12  and  C_13
REMARK    6  A    between atoms: C_13  and  N_14
REMARK    7  A    between atoms: C_13  and  C_18
REMARK    8  A    between atoms: C_15  and  C_16
REMARK                            x       y       z     vdW  Elec       q    Type
REMARK                         _______ _______ _______ _____ _____    ______ ____
ROOT
ATOM      1  N   UNL     1       4.233   5.295  18.165  0.00  0.00    +0.000 NA
ATOM      2  C   UNL     1       4.226   6.469  17.632  0.00  0.00    +0.000 C 
ATOM      3  N   UNL     1       5.259   6.848  16.749  0.00  0.00    +0.000 N 
ATOM      4  H   UNL     1       5.219   7.752  16.276  0.00  0.00    +0.000 HD
ENDROOT
BRANCH   1  10
ATOM      5  C   UNL     1       2.642   3.489  18.657  0.00  0.00    +0.000 A 
ATOM      6  C   UNL     1       1.525   3.009  19.356  0.00  0.00    +0.000 A 
ATOM      7  C   UNL     1       0.942   3.767  20.366  0.00  0.00    +0.000 A 
ATOM      8  C   UNL     1       1.503   4.992  20.709  0.00  0.00    +0.000 A 
ATOM      9  C   UNL     1       2.633   5.467  20.033  0.00  0.00    +0.000 A 
ATOM     10  C   UNL     1       3.174   4.770  18.945  0.00  0.00    +0.000 A 
BRANCH   5  12
ATOM     11  C   UNL     1       3.639   1.420  18.096  0.00  0.00    +0.000 C 
ATOM     12  O   UNL     1       3.066   2.646  17.658  0.00  0.00    +0.000 OA
ENDBRANCH   5  12
ENDBRANCH   1  10
BRANCH   2  13
ATOM     13  S   UNL     1       3.117   7.793  17.776  0.00  0.00    +0.000 S 
ATOM     14  H   UNL     1       3.804   8.539  18.644  0.00  0.00    +0.000 HD
ENDBRANCH   2  13
BRANCH   3  15
ATOM     15  C   UNL     1       6.457   6.037  16.488  0.00  0.00    +0.000 C 
BRANCH  15  16
ATOM     16  N   UNL     1       6.955   5.509  17.755  0.00  0.00    +0.000 N 
ATOM     17  C   UNL     1       7.691   6.286  18.619  0.00  0.00    +0.000 C 
ATOM     18  C   UNL     1       7.979   5.672  19.959  0.00  0.00    +0.000 C 
ATOM     19  O   UNL     1       8.104   7.393  18.274  0.00  0.00    +0.000 OA
ATOM     20  H   UNL     1       6.523   4.669  18.119  0.00  0.00    +0.000 HD
ENDBRANCH  15  16
BRANCH  15  21
ATOM     21  C   UNL     1       6.215   4.977  15.313  0.00  0.00    +0.000 C 
ATOM     22 CL   UNL     1       4.808   5.392  14.263  0.00  0.00    +0.000 Cl
ATOM     23 CL   UNL     1       7.676   4.939  14.247  0.00  0.00    +0.000 Cl
ATOM     24 CL   UNL     1       5.971   3.293  15.907  0.00  0.00    +0.000 Cl
ENDBRANCH  15  21
ENDBRANCH   3  15
TORSDOF 6
ENDMDL
MODEL 7
REMARK VINA RESULT:      -5.8      4.239      5.460
REMARK  Name = 
REMARK  8 active torsions:
REMARK  status: ('A' for Active; 'I' for Inactive)
REMARK    1  A    between atoms: C_1  and  O_2
REMARK    2  A    between atoms: O_2  and  C_3
REMARK    3  A    between atoms: C_8  and  N_9
REMARK    4  A    between atoms: C_10  and  S_11
REMARK    5  A    between atoms: N_12  and  C_13
REMARK    6  A    between atoms: C_13  and  N_14
REMARK    7  A    between atoms: C_13  and  C_18
REMARK    8  A    between atoms: C_15  and  C_16
REMARK                            x       y       z     vdW  Elec       q    Type
REMARK                         _______ _______ _______ _____ _____    ______ ____
ROOT
ATOM      1  N   UNL     1       2.172   7.762  18.193  0.00  0.00    +0.000 NA
ATOM      2  C   UNL     1       1.778   8.190  19.343  0.00  0.00    +0.000 C 
ATOM      3  N   UNL     1       1.187   9.466  19.457  0.00  0.00    +0.000 N 
ATOM      4  H   UNL     1       0.816   9.778  20.356  0.00  0.00    +0.000 HD
ENDROOT
BRANCH   1  10
ATOM      5  C   UNL     1       3.998   6.224  17.611  0.00  0.00    +0.000 A 
ATOM      6  C   UNL     1       4.444   4.941  17.266  0.00  0.00    +0.000 A 
ATOM      7  C   UNL     1       3.569   3.858  17.284  0.00  0.00    +0.000 A 
ATOM      8  C   UNL     1       2.253   4.053  17.689  0.00  0.00    +0.000 A 
ATOM      9  C   UNL     1       1.807   5.327  18.059  0.00  0.00    +0.000 A 
ATOM     10  C   UNL     1       2.641   6.448  17.950  0.00  0.00    +0.000 A 
BRANCH   5  12
ATOM     11  C   UNL     1       6.246   6.724  17.075  0.00  0.00    +0.000 C 
ATOM     12  O   UNL     1       4.969   7.190  17.494  0.00  0.00    +0.000 OA
ENDBRANCH   5  12
ENDBRANCH   1  10
BRANCH   2  13
ATOM     13  S   UNL     1       1.815   7.463  20.916  0.00  0.00    +0.000 S 
ATOM     14  H   UNL     1       0.520   7.159  21.030  0.00  0.00    +0.000 HD
ENDBRANCH   2  13
BRANCH   3  15
ATOM     15  C   UNL     1       1.111  10.437  18.356  0.00  0.00    +0.000 C 
BRANCH  15  16
ATOM     16  N   UNL     1      -0.058  10.131  17.536  0.00  0.00    +0.000 N 
ATOM     17  C   UNL     1      -1.323  10.081  18.075  0.00  0.00    +0.000 C 
ATOM     18  C   UNL     1      -2.445   9.939  17.086  0.00  0.00    +0.000 C 
ATOM     19  O   UNL     1      -1.489  10.117  19.293  0.00  0.00    +0.000 OA
ATOM     20  H   UNL     1       0.029  10.235  16.533  0.00  0.00    +0.000 HD
ENDBRANCH  15  16
BRANCH  15  21
ATOM     21  C   UNL     1       1.248  11.943  18.879  0.00  0.00    +0.000 C 
ATOM     22 CL   UNL     1       1.306  12.066  20.677  0.00  0.00    +0.000 Cl
ATOM     23 CL   UNL     1       2.794  12.643  18.252  0.00  0.00    +0.000 Cl
ATOM     24 CL   UNL     1      -0.074  13.024  18.304  0.00  0.00    +0.000 Cl
ENDBRANCH  15  21
ENDBRANCH   3  15
TORSDOF 6
ENDMDL
MODEL 8
REMARK VINA RESULT:      -5.8      4.241      5.462
REMARK  Name = 
REMARK  8 active torsions:
REMARK  status: ('A' for Active; 'I' for Inactive)
REMARK    1  A    between atoms: C_1  and  O_2
REMARK    2  A    between atoms: O_2  and  C_3
REMARK    3  A    between atoms: C_8  and  N_9
REMARK    4  A    between atoms: C_10  and  S_11
REMARK    5  A    between atoms: N_12  and  C_13
REMARK    6  A    between atoms: C_13  and  N_14
REMARK    7  A    between atoms: C_13  and  C_18
REMARK    8  A    between atoms: C_15  and  C_16
REMARK                            x       y       z     vdW  Elec       q    Type
REMARK                         _______ _______ _______ _____ _____    ______ ____
ROOT
ATOM      1  N   UNL     1       2.172   7.775  18.180  0.00  0.00    +0.000 NA
ATOM      2  C   UNL     1       1.778   8.202  19.331  0.00  0.00    +0.000 C 
ATOM      3  N   UNL     1       1.182   9.475  19.445  0.00  0.00    +0.000 N 
ATOM      4  H   UNL     1       0.811   9.785  20.345  0.00  0.00    +0.000 HD
ENDROOT
BRANCH   1  10
ATOM      5  C   UNL     1       4.001   6.247  17.586  0.00  0.00    +0.000 A 
ATOM      6  C   UNL     1       4.452   4.965  17.241  0.00  0.00    +0.000 A 
ATOM      7  C   UNL     1       3.585   3.878  17.270  0.00  0.00    +0.000 A 
ATOM      8  C   UNL     1       2.271   4.065  17.687  0.00  0.00    +0.000 A 
ATOM      9  C   UNL     1       1.821   5.338  18.058  0.00  0.00    +0.000 A 
ATOM     10  C   UNL     1       2.647   6.463  17.937  0.00  0.00    +0.000 A 
BRANCH   5  12
ATOM     11  C   UNL     1       6.266   6.748  17.125  0.00  0.00    +0.000 C 
ATOM     12  O   UNL     1       4.966   7.218  17.456  0.00  0.00    +0.000 OA
ENDBRANCH   5  12
ENDBRANCH   1  10
BRANCH   2  13
ATOM     13  S   UNL     1       1.823   7.476  20.904  0.00  0.00    +0.000 S 
ATOM     14  H   UNL     1       0.958   6.482  20.694  0.00  0.00    +0.000 HD
ENDBRANCH   2  13
BRANCH   3  15
ATOM     15  C   UNL     1       1.097  10.445  18.344  0.00  0.00    +0.000 C 
BRANCH  15  16
ATOM     16  N   UNL     1      -0.078  10.139  17.533  0.00  0.00    +0.000 N 
ATOM     17  C   UNL     1      -1.337  10.082  18.082  0.00  0.00    +0.000 C 
ATOM     18  C   UNL     1      -2.467   9.940  17.103  0.00  0.00    +0.000 C 
ATOM     19  O   UNL     1      -1.493  10.112  19.303  0.00  0.00    +0.000 OA
ATOM     20  H   UNL     1       0.000  10.247  16.530  0.00  0.00    +0.000 HD
ENDBRANCH  15  16
BRANCH  15  21
ATOM     21  C   UNL     1       1.239  11.952  18.865  0.00  0.00    +0.000 C 
ATOM     22 CL   UNL     1      -0.116  13.016  18.331  0.00  0.00    +0.000 Cl
ATOM     23 CL   UNL     1       1.229  11.951  20.673  0.00  0.00    +0.000 Cl
ATOM     24 CL   UNL     1       2.779  12.741  18.362  0.00  0.00    +0.000 Cl
ENDBRANCH  15  21
ENDBRANCH   3  15
TORSDOF 6
ENDMDL
MODEL 9
REMARK VINA RESULT:      -5.7      4.229      5.451
REMARK  Name = 
REMARK  8 active torsions:
REMARK  status: ('A' for Active; 'I' for Inactive)
REMARK    1  A    between atoms: C_1  and  O_2
REMARK    2  A    between atoms: O_2  and  C_3
REMARK    3  A    between atoms: C_8  and  N_9
REMARK    4  A    between atoms: C_10  and  S_11
REMARK    5  A    between atoms: N_12  and  C_13
REMARK    6  A    between atoms: C_13  and  N_14
REMARK    7  A    between atoms: C_13  and  C_18
REMARK    8  A    between atoms: C_15  and  C_16
REMARK                            x       y       z     vdW  Elec       q    Type
REMARK                         _______ _______ _______ _____ _____    ______ ____
ROOT
ATOM      1  N   UNL     1       2.176   7.742  18.184  0.00  0.00    +0.000 NA
ATOM      2  C   UNL     1       1.791   8.173  19.336  0.00  0.00    +0.000 C 
ATOM      3  N   UNL     1       1.213   9.454  19.452  0.00  0.00    +0.000 N 
ATOM      4  H   UNL     1       0.849   9.769  20.353  0.00  0.00    +0.000 HD
ENDROOT
BRANCH   1  10
ATOM      5  C   UNL     1       3.991   6.186  17.618  0.00  0.00    +0.000 A 
ATOM      6  C   UNL     1       4.426   4.899  17.271  0.00  0.00    +0.000 A 
ATOM      7  C   UNL     1       3.538   3.827  17.268  0.00  0.00    +0.000 A 
ATOM      8  C   UNL     1       2.219   4.035  17.656  0.00  0.00    +0.000 A 
ATOM      9  C   UNL     1       1.784   5.312  18.028  0.00  0.00    +0.000 A 
ATOM     10  C   UNL     1       2.633   6.423  17.939  0.00  0.00    +0.000 A 
BRANCH   5  12
ATOM     11  C   UNL     1       6.195   6.702  16.935  0.00  0.00    +0.000 C 
ATOM     12  O   UNL     1       4.976   7.140  17.521  0.00  0.00    +0.000 OA
ENDBRANCH   5  12
ENDBRANCH   1  10
BRANCH   2  13
ATOM     13  S   UNL     1       1.831   7.446  20.909  0.00  0.00    +0.000 S 
ATOM     14  H   UNL     1       0.838   6.568  20.752  0.00  0.00    +0.000 HD
ENDBRANCH   2  13
BRANCH   3  15
ATOM     15  C   UNL     1       1.138  10.425  18.352  0.00  0.00    +0.000 C 
BRANCH  15  16
ATOM     16  N   UNL     1      -0.047  10.140  17.549  0.00  0.00    +0.000 N 
ATOM     17  C   UNL     1      -1.301  10.077  18.112  0.00  0.00    +0.000 C 
ATOM     18  C   UNL     1      -2.443   9.960  17.143  0.00  0.00    +0.000 C 
ATOM     19  O   UNL     1      -1.442  10.083  19.334  0.00  0.00    +0.000 OA
ATOM     20  H   UNL     1       0.019  10.269  16.547  0.00  0.00    +0.000 HD
ENDBRANCH  15  16
BRANCH  15  21
ATOM     21  C   UNL     1       1.310  11.929  18.871  0.00  0.00    +0.000 C 
ATOM     22 CL   UNL     1       2.816  12.719  18.270  0.00  0.00    +0.000 Cl
ATOM     23 CL   UNL     1      -0.080  12.919  18.272  0.00  0.00    +0.000 Cl
ATOM     24 CL   UNL     1       1.304  12.071  20.668  0.00  0.00    +0.000 Cl
ENDBRANCH  15  21
ENDBRANCH   3  15
TORSDOF 6
ENDMDL
