MODEL 1
REMARK VINA RESULT:      -6.2      0.000      0.000
REMARK  Name = 
REMARK  2 active torsions:
REMARK  status: ('A' for Active; 'I' for Inactive)
REMARK    1  A    between atoms: C_1  and  C_2
REMARK    2  A    between atoms: C_2  and  C_3
REMARK                            x       y       z     vdW  Elec       q    Type
REMARK                         _______ _______ _______ _____ _____    ______ ____
ROOT
ATOM      1  C   UNL     1       4.277   5.437  17.015  0.00  0.00    +0.000 A 
ATOM      2  C   UNL     1       3.923   6.386  17.893  0.00  0.00    +0.000 A 
ATOM      3  C   UNL     1       2.913   6.085  18.921  0.00  0.00    +0.000 A 
ATOM      4  O   UNL     1       2.570   6.930  19.738  0.00  0.00    +0.000 OA
ATOM      5  C   UNL     1       2.344   4.729  18.900  0.00  0.00    +0.000 A 
ATOM      6  C   UNL     1       1.364   4.346  19.820  0.00  0.00    +0.000 A 
ATOM      7  C   UNL     1       0.840   3.053  19.768  0.00  0.00    +0.000 A 
ATOM      8  C   UNL     1       1.293   2.153  18.801  0.00  0.00    +0.000 A 
ATOM      9  C   UNL     1       2.273   2.541  17.886  0.00  0.00    +0.000 A 
ATOM     10  C   UNL     1       2.798   3.831  17.939  0.00  0.00    +0.000 A 
ATOM     11  O   UNL     1       3.762   4.150  17.017  0.00  0.00    +0.000 OA
ENDROOT
BRANCH   1  13
ATOM     12  C   UNL     1       5.540   4.421  15.107  0.00  0.00    +0.000 C 
ATOM     13  C   UNL     1       5.288   5.680  15.926  0.00  0.00    +0.000 C 
ENDBRANCH   1  13
TORSDOF 1
ENDMDL
MODEL 2
REMARK VINA RESULT:      -6.2      1.849      2.331
REMARK  Name = 
REMARK  2 active torsions:
REMARK  status: ('A' for Active; 'I' for Inactive)
REMARK    1  A    between atoms: C_1  and  C_2
REMARK    2  A    between atoms: C_2  and  C_3
REMARK                            x       y       z     vdW  Elec       q    Type
REMARK                         _______ _______ _______ _____ _____    ______ ____
ROOT
ATOM      1  C   UNL     1       6.095   4.422  16.297  0.00  0.00    +0.000 A 
ATOM      2  C   UNL     1       6.661   4.800  17.452  0.00  0.00    +0.000 A 
ATOM      3  C   UNL     1       5.866   4.784  18.691  0.00  0.00    +0.000 A 
ATOM      4  O   UNL     1       6.356   5.123  19.761  0.00  0.00    +0.000 OA
ATOM      5  C   UNL     1       4.466   4.355  18.563  0.00  0.00    +0.000 A 
ATOM      6  C   UNL     1       3.619   4.323  19.675  0.00  0.00    +0.000 A 
ATOM      7  C   UNL     1       2.293   3.915  19.517  0.00  0.00    +0.000 A 
ATOM      8  C   UNL     1       1.820   3.545  18.256  0.00  0.00    +0.000 A 
ATOM      9  C   UNL     1       2.671   3.577  17.151  0.00  0.00    +0.000 A 
ATOM     10  C   UNL     1       3.996   3.982  17.308  0.00  0.00    +0.000 A 
ATOM     11  O   UNL     1       4.783   3.987  16.185  0.00  0.00    +0.000 OA
ENDROOT
BRANCH   1  13
ATOM     12  C   UNL     1       5.961   3.953  13.842  0.00  0.00    +0.000 C 
ATOM     13  C   UNL     1       6.840   4.430  14.990  0.00  0.00    +0.000 C 
ENDBRANCH   1  13
TORSDOF 1
ENDMDL
MODEL 3
REMARK VINA RESULT:      -6.1      1.186      4.242
REMARK  Name = 
REMARK  2 active torsions:
REMARK  status: ('A' for Active; 'I' for Inactive)
REMARK    1  A    between atoms: C_1  and  C_2
REMARK    2  A    between atoms: C_2  and  C_3
REMARK                            x       y       z     vdW  Elec       q    Type
REMARK                         _______ _______ _______ _____ _____    ______ ____
ROOT
ATOM      1  C   UNL     1       1.972   3.963  19.499  0.00  0.00    +0.000 A 
ATOM      2  C   UNL     1       1.810   5.233  19.898  0.00  0.00    +0.000 A 
ATOM      3  C   UNL     1       2.546   6.310  19.215  0.00  0.00    +0.000 A 
ATOM      4  O   UNL     1       2.418   7.479  19.556  0.00  0.00    +0.000 OA
ATOM      5  C   UNL     1       3.441   5.898  18.123  0.00  0.00    +0.000 A 
ATOM      6  C   UNL     1       4.201   6.839  17.422  0.00  0.00    +0.000 A 
ATOM      7  C   UNL     1       5.045   6.414  16.394  0.00  0.00    +0.000 A 
ATOM      8  C   UNL     1       5.127   5.057  16.073  0.00  0.00    +0.000 A 
ATOM      9  C   UNL     1       4.364   4.123  16.775  0.00  0.00    +0.000 A 
ATOM     10  C   UNL     1       3.520   4.547  17.800  0.00  0.00    +0.000 A 
ATOM     11  O   UNL     1       2.792   3.582  18.448  0.00  0.00    +0.000 OA
ENDROOT
BRANCH   1  13
ATOM     12  C   UNL     1       1.624   2.712  21.638  0.00  0.00    +0.000 C 
ATOM     13  C   UNL     1       1.267   2.811  20.161  0.00  0.00    +0.000 C 
ENDBRANCH   1  13
TORSDOF 1
ENDMDL
MODEL 4
REMARK VINA RESULT:      -6.1      0.981      1.174
REMARK  Name = 
REMARK  2 active torsions:
REMARK  status: ('A' for Active; 'I' for Inactive)
REMARK    1  A    between atoms: C_1  and  C_2
REMARK    2  A    between atoms: C_2  and  C_3
REMARK                            x       y       z     vdW  Elec       q    Type
REMARK                         _______ _______ _______ _____ _____    ______ ____
ROOT
ATOM      1  C   UNL     1       5.195   4.856  16.348  0.00  0.00    +0.000 A 
ATOM      2  C   UNL     1       4.768   6.026  16.847  0.00  0.00    +0.000 A 
ATOM      3  C   UNL     1       3.589   6.053  17.728  0.00  0.00    +0.000 A 
ATOM      4  O   UNL     1       3.175   7.105  18.199  0.00  0.00    +0.000 OA
ATOM      5  C   UNL     1       2.941   4.759  17.993  0.00  0.00    +0.000 A 
ATOM      6  C   UNL     1       1.803   4.677  18.800  0.00  0.00    +0.000 A 
ATOM      7  C   UNL     1       1.209   3.433  19.027  0.00  0.00    +0.000 A 
ATOM      8  C   UNL     1       1.751   2.284  18.448  0.00  0.00    +0.000 A 
ATOM      9  C   UNL     1       2.889   2.373  17.645  0.00  0.00    +0.000 A 
ATOM     10  C   UNL     1       3.483   3.613  17.420  0.00  0.00    +0.000 A 
ATOM     11  O   UNL     1       4.601   3.634  16.626  0.00  0.00    +0.000 OA
ENDROOT
BRANCH   1  13
ATOM     12  C   UNL     1       6.038   3.989  14.157  0.00  0.00    +0.000 C 
ATOM     13  C   UNL     1       6.381   4.755  15.428  0.00  0.00    +0.000 C 
ENDBRANCH   1  13
TORSDOF 1
ENDMDL
MODEL 5
REMARK VINA RESULT:      -6.0      3.609      5.712
REMARK  Name = 
REMARK  2 active torsions:
REMARK  status: ('A' for Active; 'I' for Inactive)
REMARK    1  A    between atoms: C_1  and  C_2
REMARK    2  A    between atoms: C_2  and  C_3
REMARK                            x       y       z     vdW  Elec       q    Type
REMARK                         _______ _______ _______ _____ _____    ______ ____
ROOT
ATOM      1  C   UNL     1       6.942   5.820  17.045  0.00  0.00    +0.000 A 
ATOM      2  C   UNL     1       5.816   5.146  17.322  0.00  0.00    +0.000 A 
ATOM      3  C   UNL     1       5.181   4.329  16.274  0.00  0.00    +0.000 A 
ATOM      4  O   UNL     1       4.153   3.702  16.497  0.00  0.00    +0.000 OA
ATOM      5  C   UNL     1       5.841   4.324  14.960  0.00  0.00    +0.000 A 
ATOM      6  C   UNL     1       5.310   3.597  13.891  0.00  0.00    +0.000 A 
ATOM      7  C   UNL     1       5.959   3.618  12.655  0.00  0.00    +0.000 A 
ATOM      8  C   UNL     1       7.129   4.363  12.492  0.00  0.00    +0.000 A 
ATOM      9  C   UNL     1       7.656   5.085  13.564  0.00  0.00    +0.000 A 
ATOM     10  C   UNL     1       7.010   5.062  14.799  0.00  0.00    +0.000 A 
ATOM     11  O   UNL     1       7.579   5.787  15.814  0.00  0.00    +0.000 OA
ENDROOT
BRANCH   1  13
ATOM     12  C   UNL     1       7.781   8.120  17.564  0.00  0.00    +0.000 C 
ATOM     13  C   UNL     1       7.634   6.688  18.060  0.00  0.00    +0.000 C 
ENDBRANCH   1  13
TORSDOF 1
ENDMDL
MODEL 6
REMARK VINA RESULT:      -6.0      1.515      1.836
REMARK  Name = 
REMARK  2 active torsions:
REMARK  status: ('A' for Active; 'I' for Inactive)
REMARK    1  A    between atoms: C_1  and  C_2
REMARK    2  A    between atoms: C_2  and  C_3
REMARK                            x       y       z     vdW  Elec       q    Type
REMARK                         _______ _______ _______ _____ _____    ______ ____
ROOT
ATOM      1  C   UNL     1       5.591   5.709  17.279  0.00  0.00    +0.000 A 
ATOM      2  C   UNL     1       4.707   6.690  17.515  0.00  0.00    +0.000 A 
ATOM      3  C   UNL     1       3.318   6.347  17.865  0.00  0.00    +0.000 A 
ATOM      4  O   UNL     1       2.488   7.220  18.087  0.00  0.00    +0.000 OA
ATOM      5  C   UNL     1       2.991   4.915  17.917  0.00  0.00    +0.000 A 
ATOM      6  C   UNL     1       1.697   4.482  18.219  0.00  0.00    +0.000 A 
ATOM      7  C   UNL     1       1.420   3.114  18.256  0.00  0.00    +0.000 A 
ATOM      8  C   UNL     1       2.431   2.188  17.989  0.00  0.00    +0.000 A 
ATOM      9  C   UNL     1       3.721   2.627  17.689  0.00  0.00    +0.000 A 
ATOM     10  C   UNL     1       4.000   3.992  17.655  0.00  0.00    +0.000 A 
ATOM     11  O   UNL     1       5.288   4.359  17.360  0.00  0.00    +0.000 OA
ENDROOT
BRANCH   1  13
ATOM     12  C   UNL     1       7.537   7.258  17.554  0.00  0.00    +0.000 C 
ATOM     13  C   UNL     1       7.020   5.984  16.899  0.00  0.00    +0.000 C 
ENDBRANCH   1  13
TORSDOF 1
ENDMDL
MODEL 7
REMARK VINA RESULT:      -6.0      1.818      4.611
REMARK  Name = 
REMARK  2 active torsions:
REMARK  status: ('A' for Active; 'I' for Inactive)
REMARK    1  A    between atoms: C_1  and  C_2
REMARK    2  A    between atoms: C_2  and  C_3
REMARK                            x       y       z     vdW  Elec       q    Type
REMARK                         _______ _______ _______ _____ _____    ______ ____
ROOT
ATOM      1  C   UNL     1       3.244   4.518  18.543  0.00  0.00    +0.000 A 
ATOM      2  C   UNL     1       4.192   4.795  19.451  0.00  0.00    +0.000 A 
ATOM      3  C   UNL     1       5.591   4.941  19.018  0.00  0.00    +0.000 A 
ATOM      4  O   UNL     1       6.479   5.194  19.823  0.00  0.00    +0.000 OA
ATOM      5  C   UNL     1       5.855   4.754  17.584  0.00  0.00    +0.000 A 
ATOM      6  C   UNL     1       7.152   4.851  17.072  0.00  0.00    +0.000 A 
ATOM      7  C   UNL     1       7.368   4.663  15.705  0.00  0.00    +0.000 A 
ATOM      8  C   UNL     1       6.293   4.378  14.860  0.00  0.00    +0.000 A 
ATOM      9  C   UNL     1       5.001   4.284  15.377  0.00  0.00    +0.000 A 
ATOM     10  C   UNL     1       4.783   4.474  16.741  0.00  0.00    +0.000 A 
ATOM     11  O   UNL     1       3.491   4.374  17.187  0.00  0.00    +0.000 OA
ENDROOT
BRANCH   1  13
ATOM     12  C   UNL     1       1.299   2.943  18.560  0.00  0.00    +0.000 C 
ATOM     13  C   UNL     1       1.797   4.337  18.915  0.00  0.00    +0.000 C 
ENDBRANCH   1  13
TORSDOF 1
ENDMDL
MODEL 8
REMARK VINA RESULT:      -6.0      1.318      2.669
REMARK  Name = 
REMARK  2 active torsions:
REMARK  status: ('A' for Active; 'I' for Inactive)
REMARK    1  A    between atoms: C_1  and  C_2
REMARK    2  A    between atoms: C_2  and  C_3
REMARK                            x       y       z     vdW  Elec       q    Type
REMARK                         _______ _______ _______ _____ _____    ______ ____
ROOT
ATOM      1  C   UNL     1       4.438   4.956  16.956  0.00  0.00    +0.000 A 
ATOM      2  C   UNL     1       4.374   3.617  16.906  0.00  0.00    +0.000 A 
ATOM      3  C   UNL     1       3.539   2.892  17.878  0.00  0.00    +0.000 A 
ATOM      4  O   UNL     1       3.459   1.671  17.857  0.00  0.00    +0.000 OA
ATOM      5  C   UNL     1       2.826   3.714  18.867  0.00  0.00    +0.000 A 
ATOM      6  C   UNL     1       2.022   3.125  19.847  0.00  0.00    +0.000 A 
ATOM      7  C   UNL     1       1.364   3.934  20.775  0.00  0.00    +0.000 A 
ATOM      8  C   UNL     1       1.512   5.322  20.722  0.00  0.00    +0.000 A 
ATOM      9  C   UNL     1       2.315   5.904  19.740  0.00  0.00    +0.000 A 
ATOM     10  C   UNL     1       2.970   5.097  18.812  0.00  0.00    +0.000 A 
ATOM     11  O   UNL     1       3.740   5.730  17.870  0.00  0.00    +0.000 OA
ENDROOT
BRANCH   1  13
ATOM     12  C   UNL     1       5.706   4.936  14.798  0.00  0.00    +0.000 C 
ATOM     13  C   UNL     1       5.285   5.760  16.007  0.00  0.00    +0.000 C 
ENDBRANCH   1  13
TORSDOF 1
ENDMDL
MODEL 9
REMARK VINA RESULT:      -6.0      0.954      1.080
REMARK  Name = 
REMARK  2 active torsions:
REMARK  status: ('A' for Active; 'I' for Inactive)
REMARK    1  A    between atoms: C_1  and  C_2
REMARK    2  A    between atoms: C_2  and  C_3
REMARK                            x       y       z     vdW  Elec       q    Type
REMARK                         _______ _______ _______ _____ _____    ______ ____
ROOT
ATOM      1  C   UNL     1       4.452   4.373  17.009  0.00  0.00    +0.000 A 
ATOM      2  C   UNL     1       4.118   5.635  17.316  0.00  0.00    +0.000 A 
ATOM      3  C   UNL     1       3.147   5.888  18.394  0.00  0.00    +0.000 A 
ATOM      4  O   UNL     1       2.823   7.029  18.698  0.00  0.00    +0.000 OA
ATOM      5  C   UNL     1       2.591   4.703  19.064  0.00  0.00    +0.000 A 
ATOM      6  C   UNL     1       1.647   4.831  20.086  0.00  0.00    +0.000 A 
ATOM      7  C   UNL     1       1.135   3.685  20.698  0.00  0.00    +0.000 A 
ATOM      8  C   UNL     1       1.565   2.421  20.286  0.00  0.00    +0.000 A 
ATOM      9  C   UNL     1       2.509   2.300  19.266  0.00  0.00    +0.000 A 
ATOM     10  C   UNL     1       3.022   3.444  18.656  0.00  0.00    +0.000 A 
ATOM     11  O   UNL     1       3.950   3.259  17.664  0.00  0.00    +0.000 OA
ENDROOT
BRANCH   1  13
ATOM     12  C   UNL     1       5.631   5.220  14.970  0.00  0.00    +0.000 C 
ATOM     13  C   UNL     1       5.422   4.039  15.908  0.00  0.00    +0.000 C 
ENDBRANCH   1  13
TORSDOF 1
ENDMDL
