MODEL 1
REMARK VINA RESULT:      -7.4      0.000      0.000
REMARK  Name = 
REMARK  5 active torsions:
REMARK  status: ('A' for Active; 'I' for Inactive)
REMARK    1  A    between atoms: C_1  and  O_2
REMARK    2  A    between atoms: O_2  and  C_3
REMARK    3  A    between atoms: C_7  and  N_8
REMARK    4  A    between atoms: C_12  and  C_13
REMARK    5  A    between atoms: C_13  and  C_14
REMARK                            x       y       z     vdW  Elec       q    Type
REMARK                         _______ _______ _______ _____ _____    ______ ____
ROOT
ATOM      1  N   UNL     1       9.126   8.750  18.958  0.00  0.00    +0.000 N 
ATOM      2  C   UNL     1       8.121   8.100  18.318  0.00  0.00    +0.000 A 
ATOM      3  N   UNL     1       7.317   8.586  17.389  0.00  0.00    +0.000 NA
ATOM      4  N   UNL     1       6.369   7.700  16.957  0.00  0.00    +0.000 NA
ATOM      5  C   UNL     1       6.490   6.527  17.542  0.00  0.00    +0.000 A 
ATOM      6  S   UNL     1       7.794   6.436  18.657  0.00  0.00    +0.000 S 
ATOM      7  H   UNL     1       9.690   8.211  19.604  0.00  0.00    +0.000 HD
ENDROOT
BRANCH   1  12
ATOM      8  C   UNL     1       9.847  12.348  18.167  0.00  0.00    +0.000 A 
ATOM      9  C   UNL     1       9.658  12.920  19.423  0.00  0.00    +0.000 A 
ATOM     10  C   UNL     1       9.301  12.122  20.511  0.00  0.00    +0.000 A 
ATOM     11  C   UNL     1       9.125  10.744  20.342  0.00  0.00    +0.000 A 
ATOM     12  C   UNL     1       9.283  10.147  19.083  0.00  0.00    +0.000 A 
ATOM     13  C   UNL     1       9.660  10.973  18.013  0.00  0.00    +0.000 A 
BRANCH   8  15
ATOM     14  C   UNL     1      10.559  14.536  17.579  0.00  0.00    +0.000 C 
ATOM     15  O   UNL     1      10.210  13.214  17.170  0.00  0.00    +0.000 OA
ENDBRANCH   8  15
ENDBRANCH   1  12
BRANCH   5  16
ATOM     16  C   UNL     1       5.693   5.338  17.141  0.00  0.00    +0.000 C 
BRANCH  16  17
ATOM     17  C   UNL     1       5.295   4.446  18.301  0.00  0.00    +0.000 C 
ATOM     18  O   UNL     1       6.109   3.778  18.938  0.00  0.00    +0.000 OA
ATOM     19  N   UNL     1       3.922   4.414  18.590  0.00  0.00    +0.000 N 
ATOM     20  C   UNL     1       3.457   3.699  19.778  0.00  0.00    +0.000 C 
ATOM     21  C   UNL     1       2.216   2.861  19.479  0.00  0.00    +0.000 C 
ATOM     22  C   UNL     1       1.131   3.679  18.782  0.00  0.00    +0.000 C 
ATOM     23  C   UNL     1       1.693   4.380  17.550  0.00  0.00    +0.000 C 
ATOM     24  C   UNL     1       2.905   5.226  17.916  0.00  0.00    +0.000 C 
ENDBRANCH  16  17
ENDBRANCH   5  16
TORSDOF 4
ENDMDL
MODEL 2
REMARK VINA RESULT:      -7.4      1.428      1.918
REMARK  Name = 
REMARK  5 active torsions:
REMARK  status: ('A' for Active; 'I' for Inactive)
REMARK    1  A    between atoms: C_1  and  O_2
REMARK    2  A    between atoms: O_2  and  C_3
REMARK    3  A    between atoms: C_7  and  N_8
REMARK    4  A    between atoms: C_12  and  C_13
REMARK    5  A    between atoms: C_13  and  C_14
REMARK                            x       y       z     vdW  Elec       q    Type
REMARK                         _______ _______ _______ _____ _____    ______ ____
ROOT
ATOM      1  N   UNL     1       8.774   8.611  18.906  0.00  0.00    +0.000 N 
ATOM      2  C   UNL     1       8.212   7.614  18.177  0.00  0.00    +0.000 A 
ATOM      3  N   UNL     1       8.002   7.595  16.873  0.00  0.00    +0.000 NA
ATOM      4  N   UNL     1       7.377   6.463  16.428  0.00  0.00    +0.000 NA
ATOM      5  C   UNL     1       7.152   5.609  17.406  0.00  0.00    +0.000 A 
ATOM      6  S   UNL     1       7.710   6.145  18.939  0.00  0.00    +0.000 S 
ATOM      7  H   UNL     1       8.918   8.441  19.893  0.00  0.00    +0.000 HD
ENDROOT
BRANCH   1  12
ATOM      8  C   UNL     1      10.046  12.127  18.562  0.00  0.00    +0.000 A 
ATOM      9  C   UNL     1       9.009  12.693  17.823  0.00  0.00    +0.000 A 
ATOM     10  C   UNL     1       7.909  11.920  17.450  0.00  0.00    +0.000 A 
ATOM     11  C   UNL     1       7.846  10.571  17.813  0.00  0.00    +0.000 A 
ATOM     12  C   UNL     1       8.887   9.969  18.533  0.00  0.00    +0.000 A 
ATOM     13  C   UNL     1       9.972  10.776  18.908  0.00  0.00    +0.000 A 
BRANCH   8  15
ATOM     14  C   UNL     1      11.198  14.149  18.091  0.00  0.00    +0.000 C 
ATOM     15  O   UNL     1      11.072  12.973  18.888  0.00  0.00    +0.000 OA
ENDBRANCH   8  15
ENDBRANCH   1  12
BRANCH   5  16
ATOM     16  C   UNL     1       6.633   4.236  17.175  0.00  0.00    +0.000 C 
BRANCH  16  17
ATOM     17  C   UNL     1       5.229   4.199  16.602  0.00  0.00    +0.000 C 
ATOM     18  O   UNL     1       4.996   4.333  15.400  0.00  0.00    +0.000 OA
ATOM     19  N   UNL     1       4.202   4.023  17.541  0.00  0.00    +0.000 N 
ATOM     20  C   UNL     1       2.829   3.829  17.073  0.00  0.00    +0.000 C 
ATOM     21  C   UNL     1       1.836   4.651  17.892  0.00  0.00    +0.000 C 
ATOM     22  C   UNL     1       2.017   4.434  19.393  0.00  0.00    +0.000 C 
ATOM     23  C   UNL     1       3.469   4.668  19.799  0.00  0.00    +0.000 C 
ATOM     24  C   UNL     1       4.407   3.797  18.975  0.00  0.00    +0.000 C 
ENDBRANCH  16  17
ENDBRANCH   5  16
TORSDOF 4
ENDMDL
MODEL 3
REMARK VINA RESULT:      -7.3      1.537      2.147
REMARK  Name = 
REMARK  5 active torsions:
REMARK  status: ('A' for Active; 'I' for Inactive)
REMARK    1  A    between atoms: C_1  and  O_2
REMARK    2  A    between atoms: O_2  and  C_3
REMARK    3  A    between atoms: C_7  and  N_8
REMARK    4  A    between atoms: C_12  and  C_13
REMARK    5  A    between atoms: C_13  and  C_14
REMARK                            x       y       z     vdW  Elec       q    Type
REMARK                         _______ _______ _______ _____ _____    ______ ____
ROOT
ATOM      1  N   UNL     1       8.948   8.443  19.060  0.00  0.00    +0.000 N 
ATOM      2  C   UNL     1       7.981   7.780  18.377  0.00  0.00    +0.000 A 
ATOM      3  N   UNL     1       7.291   8.217  17.338  0.00  0.00    +0.000 NA
ATOM      4  N   UNL     1       6.352   7.333  16.885  0.00  0.00    +0.000 NA
ATOM      5  C   UNL     1       6.365   6.207  17.569  0.00  0.00    +0.000 A 
ATOM      6  S   UNL     1       7.552   6.162  18.810  0.00  0.00    +0.000 S 
ATOM      7  H   UNL     1       9.424   7.940  19.798  0.00  0.00    +0.000 HD
ENDROOT
BRANCH   1  12
ATOM      8  C   UNL     1       9.608  11.930  20.284  0.00  0.00    +0.000 A 
ATOM      9  C   UNL     1       9.471  12.640  19.093  0.00  0.00    +0.000 A 
ATOM     10  C   UNL     1       9.162  11.971  17.909  0.00  0.00    +0.000 A 
ATOM     11  C   UNL     1       8.994  10.582  17.912  0.00  0.00    +0.000 A 
ATOM     12  C   UNL     1       9.153   9.840  19.091  0.00  0.00    +0.000 A 
ATOM     13  C   UNL     1       9.447  10.544  20.270  0.00  0.00    +0.000 A 
BRANCH   8  15
ATOM     14  C   UNL     1      10.368  14.007  21.150  0.00  0.00    +0.000 C 
ATOM     15  O   UNL     1       9.899  12.682  21.392  0.00  0.00    +0.000 OA
ENDBRANCH   8  15
ENDBRANCH   1  12
BRANCH   5  16
ATOM     16  C   UNL     1       5.560   5.020  17.185  0.00  0.00    +0.000 C 
BRANCH  16  17
ATOM     17  C   UNL     1       4.067   5.203  17.377  0.00  0.00    +0.000 C 
ATOM     18  O   UNL     1       3.517   6.303  17.317  0.00  0.00    +0.000 OA
ATOM     19  N   UNL     1       3.348   4.029  17.651  0.00  0.00    +0.000 N 
ATOM     20  C   UNL     1       1.887   4.081  17.708  0.00  0.00    +0.000 C 
ATOM     21  C   UNL     1       1.344   3.290  18.896  0.00  0.00    +0.000 C 
ATOM     22  C   UNL     1       1.918   1.876  18.950  0.00  0.00    +0.000 C 
ATOM     23  C   UNL     1       3.442   1.911  18.899  0.00  0.00    +0.000 C 
ATOM     24  C   UNL     1       3.923   2.681  17.677  0.00  0.00    +0.000 C 
ENDBRANCH  16  17
ENDBRANCH   5  16
TORSDOF 4
ENDMDL
MODEL 4
REMARK VINA RESULT:      -7.3      5.206      7.192
REMARK  Name = 
REMARK  5 active torsions:
REMARK  status: ('A' for Active; 'I' for Inactive)
REMARK    1  A    between atoms: C_1  and  O_2
REMARK    2  A    between atoms: O_2  and  C_3
REMARK    3  A    between atoms: C_7  and  N_8
REMARK    4  A    between atoms: C_12  and  C_13
REMARK    5  A    between atoms: C_13  and  C_14
REMARK                            x       y       z     vdW  Elec       q    Type
REMARK                         _______ _______ _______ _____ _____    ______ ____
ROOT
ATOM      1  N   UNL     1       1.433   8.098  21.582  0.00  0.00    +0.000 N 
ATOM      2  C   UNL     1       1.788   7.539  20.398  0.00  0.00    +0.000 A 
ATOM      3  N   UNL     1       1.878   8.138  19.224  0.00  0.00    +0.000 NA
ATOM      4  N   UNL     1       2.221   7.302  18.199  0.00  0.00    +0.000 NA
ATOM      5  C   UNL     1       2.428   6.070  18.618  0.00  0.00    +0.000 A 
ATOM      6  S   UNL     1       2.224   5.868  20.311  0.00  0.00    +0.000 S 
ATOM      7  H   UNL     1       1.473   7.509  22.405  0.00  0.00    +0.000 HD
ENDROOT
BRANCH   1  12
ATOM      8  C   UNL     1       0.230  11.636  21.221  0.00  0.00    +0.000 A 
ATOM      9  C   UNL     1      -0.714  11.682  22.245  0.00  0.00    +0.000 A 
ATOM     10  C   UNL     1      -0.941  10.558  23.040  0.00  0.00    +0.000 A 
ATOM     11  C   UNL     1      -0.226   9.378  22.808  0.00  0.00    +0.000 A 
ATOM     12  C   UNL     1       0.710   9.297  21.767  0.00  0.00    +0.000 A 
ATOM     13  C   UNL     1       0.930  10.449  20.996  0.00  0.00    +0.000 A 
BRANCH   8  15
ATOM     14  C   UNL     1       0.500  12.656  19.094  0.00  0.00    +0.000 C 
ATOM     15  O   UNL     1       0.388  12.795  20.509  0.00  0.00    +0.000 OA
ENDBRANCH   8  15
ENDBRANCH   1  12
BRANCH   5  16
ATOM     16  C   UNL     1       2.968   4.999  17.740  0.00  0.00    +0.000 C 
BRANCH  16  17
ATOM     17  C   UNL     1       4.312   4.459  18.187  0.00  0.00    +0.000 C 
ATOM     18  O   UNL     1       4.427   3.462  18.900  0.00  0.00    +0.000 OA
ATOM     19  N   UNL     1       5.428   5.189  17.749  0.00  0.00    +0.000 N 
ATOM     20  C   UNL     1       6.771   4.667  18.005  0.00  0.00    +0.000 C 
ATOM     21  C   UNL     1       7.716   5.765  18.488  0.00  0.00    +0.000 C 
ATOM     22  C   UNL     1       7.689   6.986  17.571  0.00  0.00    +0.000 C 
ATOM     23  C   UNL     1       6.258   7.473  17.365  0.00  0.00    +0.000 C 
ATOM     24  C   UNL     1       5.372   6.347  16.851  0.00  0.00    +0.000 C 
ENDBRANCH  16  17
ENDBRANCH   5  16
TORSDOF 4
ENDMDL
MODEL 5
REMARK VINA RESULT:      -7.3      5.379      7.348
REMARK  Name = 
REMARK  5 active torsions:
REMARK  status: ('A' for Active; 'I' for Inactive)
REMARK    1  A    between atoms: C_1  and  O_2
REMARK    2  A    between atoms: O_2  and  C_3
REMARK    3  A    between atoms: C_7  and  N_8
REMARK    4  A    between atoms: C_12  and  C_13
REMARK    5  A    between atoms: C_13  and  C_14
REMARK                            x       y       z     vdW  Elec       q    Type
REMARK                         _______ _______ _______ _____ _____    ______ ____
ROOT
ATOM      1  N   UNL     1       1.669   8.853  18.405  0.00  0.00    +0.000 N 
ATOM      2  C   UNL     1       2.156   7.692  18.912  0.00  0.00    +0.000 A 
ATOM      3  N   UNL     1       1.649   6.976  19.900  0.00  0.00    +0.000 NA
ATOM      4  N   UNL     1       2.387   5.869  20.217  0.00  0.00    +0.000 NA
ATOM      5  C   UNL     1       3.436   5.736  19.432  0.00  0.00    +0.000 A 
ATOM      6  S   UNL     1       3.573   6.965  18.240  0.00  0.00    +0.000 S 
ATOM      7  H   UNL     1       2.146   9.245  17.602  0.00  0.00    +0.000 HD
ENDROOT
BRANCH   1  12
ATOM      8  C   UNL     1       0.002  10.972  21.018  0.00  0.00    +0.000 A 
ATOM      9  C   UNL     1      -1.062  11.483  20.279  0.00  0.00    +0.000 A 
ATOM     10  C   UNL     1      -1.222  11.127  18.939  0.00  0.00    +0.000 A 
ATOM     11  C   UNL     1      -0.309  10.258  18.331  0.00  0.00    +0.000 A 
ATOM     12  C   UNL     1       0.786   9.750  19.044  0.00  0.00    +0.000 A 
ATOM     13  C   UNL     1       0.910  10.113  20.395  0.00  0.00    +0.000 A 
BRANCH   8  15
ATOM     14  C   UNL     1      -1.129  11.943  22.866  0.00  0.00    +0.000 C 
ATOM     15  O   UNL     1       0.061  11.372  22.326  0.00  0.00    +0.000 OA
ENDBRANCH   8  15
ENDBRANCH   1  12
BRANCH   5  16
ATOM     16  C   UNL     1       4.315   4.538  19.455  0.00  0.00    +0.000 C 
BRANCH  16  17
ATOM     17  C   UNL     1       5.733   4.808  18.991  0.00  0.00    +0.000 C 
ATOM     18  O   UNL     1       6.583   5.330  19.712  0.00  0.00    +0.000 OA
ATOM     19  N   UNL     1       6.011   4.441  17.665  0.00  0.00    +0.000 N 
ATOM     20  C   UNL     1       7.386   4.527  17.172  0.00  0.00    +0.000 C 
ATOM     21  C   UNL     1       7.442   5.139  15.773  0.00  0.00    +0.000 C 
ATOM     22  C   UNL     1       6.478   4.449  14.810  0.00  0.00    +0.000 C 
ATOM     23  C   UNL     1       5.069   4.412  15.393  0.00  0.00    +0.000 C 
ATOM     24  C   UNL     1       5.071   3.761  16.769  0.00  0.00    +0.000 C 
ENDBRANCH  16  17
ENDBRANCH   5  16
TORSDOF 4
ENDMDL
MODEL 6
REMARK VINA RESULT:      -7.3      1.091      1.543
REMARK  Name = 
REMARK  5 active torsions:
REMARK  status: ('A' for Active; 'I' for Inactive)
REMARK    1  A    between atoms: C_1  and  O_2
REMARK    2  A    between atoms: O_2  and  C_3
REMARK    3  A    between atoms: C_7  and  N_8
REMARK    4  A    between atoms: C_12  and  C_13
REMARK    5  A    between atoms: C_13  and  C_14
REMARK                            x       y       z     vdW  Elec       q    Type
REMARK                         _______ _______ _______ _____ _____    ______ ____
ROOT
ATOM      1  N   UNL     1       8.991   8.571  18.954  0.00  0.00    +0.000 N 
ATOM      2  C   UNL     1       8.001   7.884  18.329  0.00  0.00    +0.000 A 
ATOM      3  N   UNL     1       7.219   8.314  17.356  0.00  0.00    +0.000 NA
ATOM      4  N   UNL     1       6.282   7.404  16.953  0.00  0.00    +0.000 NA
ATOM      5  C   UNL     1       6.390   6.266  17.607  0.00  0.00    +0.000 A 
ATOM      6  S   UNL     1       7.667   6.241  18.755  0.00  0.00    +0.000 S 
ATOM      7  H   UNL     1       9.540   8.071  19.642  0.00  0.00    +0.000 HD
ENDROOT
BRANCH   1  12
ATOM      8  C   UNL     1       9.516  12.065  20.223  0.00  0.00    +0.000 A 
ATOM      9  C   UNL     1       9.360  12.783  19.040  0.00  0.00    +0.000 A 
ATOM     10  C   UNL     1       9.084  12.117  17.846  0.00  0.00    +0.000 A 
ATOM     11  C   UNL     1       8.967  10.723  17.832  0.00  0.00    +0.000 A 
ATOM     12  C   UNL     1       9.145   9.973  19.003  0.00  0.00    +0.000 A 
ATOM     13  C   UNL     1       9.405  10.673  20.191  0.00  0.00    +0.000 A 
BRANCH   8  15
ATOM     14  C   UNL     1      10.220  14.148  21.118  0.00  0.00    +0.000 C 
ATOM     15  O   UNL     1       9.772  12.813  21.341  0.00  0.00    +0.000 OA
ENDBRANCH   8  15
ENDBRANCH   1  12
BRANCH   5  16
ATOM     16  C   UNL     1       5.603   5.055  17.256  0.00  0.00    +0.000 C 
BRANCH  16  17
ATOM     17  C   UNL     1       5.146   4.250  18.458  0.00  0.00    +0.000 C 
ATOM     18  O   UNL     1       5.926   3.624  19.175  0.00  0.00    +0.000 OA
ATOM     19  N   UNL     1       3.762   4.248  18.689  0.00  0.00    +0.000 N 
ATOM     20  C   UNL     1       3.240   3.622  19.904  0.00  0.00    +0.000 C 
ATOM     21  C   UNL     1       2.004   2.774  19.610  0.00  0.00    +0.000 C 
ATOM     22  C   UNL     1       0.958   3.548  18.811  0.00  0.00    +0.000 C 
ATOM     23  C   UNL     1       1.579   4.156  17.559  0.00  0.00    +0.000 C 
ATOM     24  C   UNL     1       2.783   5.018  17.916  0.00  0.00    +0.000 C 
ENDBRANCH  16  17
ENDBRANCH   5  16
TORSDOF 4
ENDMDL
MODEL 7
REMARK VINA RESULT:      -7.2      5.574      7.882
REMARK  Name = 
REMARK  5 active torsions:
REMARK  status: ('A' for Active; 'I' for Inactive)
REMARK    1  A    between atoms: C_1  and  O_2
REMARK    2  A    between atoms: O_2  and  C_3
REMARK    3  A    between atoms: C_7  and  N_8
REMARK    4  A    between atoms: C_12  and  C_13
REMARK    5  A    between atoms: C_13  and  C_14
REMARK                            x       y       z     vdW  Elec       q    Type
REMARK                         _______ _______ _______ _____ _____    ______ ____
ROOT
ATOM      1  N   UNL     1       3.699   4.592  18.896  0.00  0.00    +0.000 N 
ATOM      2  C   UNL     1       3.004   5.689  19.288  0.00  0.00    +0.000 A 
ATOM      3  N   UNL     1       3.028   6.891  18.740  0.00  0.00    +0.000 NA
ATOM      4  N   UNL     1       2.246   7.810  19.384  0.00  0.00    +0.000 NA
ATOM      5  C   UNL     1       1.600   7.279  20.401  0.00  0.00    +0.000 A 
ATOM      6  S   UNL     1       1.907   5.604  20.622  0.00  0.00    +0.000 S 
ATOM      7  H   UNL     1       3.519   3.727  19.390  0.00  0.00    +0.000 HD
ENDROOT
BRANCH   1  12
ATOM      8  C   UNL     1       6.065   4.083  16.025  0.00  0.00    +0.000 A 
ATOM      9  C   UNL     1       7.261   4.482  16.618  0.00  0.00    +0.000 A 
ATOM     10  C   UNL     1       7.279   4.908  17.946  0.00  0.00    +0.000 A 
ATOM     11  C   UNL     1       6.093   4.942  18.687  0.00  0.00    +0.000 A 
ATOM     12  C   UNL     1       4.871   4.572  18.108  0.00  0.00    +0.000 A 
ATOM     13  C   UNL     1       4.888   4.131  16.775  0.00  0.00    +0.000 A 
BRANCH   8  15
ATOM     14  C   UNL     1       6.844   4.545  13.830  0.00  0.00    +0.000 C 
ATOM     15  O   UNL     1       6.157   3.670  14.723  0.00  0.00    +0.000 OA
ENDBRANCH   8  15
ENDBRANCH   1  12
BRANCH   5  16
ATOM     16  C   UNL     1       0.563   8.014  21.171  0.00  0.00    +0.000 C 
BRANCH  16  17
ATOM     17  C   UNL     1       0.968   9.424  21.556  0.00  0.00    +0.000 C 
ATOM     18  O   UNL     1       1.669   9.672  22.537  0.00  0.00    +0.000 OA
ATOM     19  N   UNL     1       0.470  10.440  20.725  0.00  0.00    +0.000 N 
ATOM     20  C   UNL     1       0.923  11.816  20.928  0.00  0.00    +0.000 C 
ATOM     21  C   UNL     1      -0.239  12.805  20.853  0.00  0.00    +0.000 C 
ATOM     22  C   UNL     1      -1.078  12.605  19.592  0.00  0.00    +0.000 C 
ATOM     23  C   UNL     1      -1.518  11.151  19.463  0.00  0.00    +0.000 C 
ATOM     24  C   UNL     1      -0.317  10.217  19.508  0.00  0.00    +0.000 C 
ENDBRANCH  16  17
ENDBRANCH   5  16
TORSDOF 4
ENDMDL
MODEL 8
REMARK VINA RESULT:      -7.2      5.246      7.216
REMARK  Name = 
REMARK  5 active torsions:
REMARK  status: ('A' for Active; 'I' for Inactive)
REMARK    1  A    between atoms: C_1  and  O_2
REMARK    2  A    between atoms: O_2  and  C_3
REMARK    3  A    between atoms: C_7  and  N_8
REMARK    4  A    between atoms: C_12  and  C_13
REMARK    5  A    between atoms: C_13  and  C_14
REMARK                            x       y       z     vdW  Elec       q    Type
REMARK                         _______ _______ _______ _____ _____    ______ ____
ROOT
ATOM      1  N   UNL     1       1.721   9.234  17.792  0.00  0.00    +0.000 N 
ATOM      2  C   UNL     1       2.195   8.148  18.453  0.00  0.00    +0.000 A 
ATOM      3  N   UNL     1       1.839   7.721  19.652  0.00  0.00    +0.000 NA
ATOM      4  N   UNL     1       2.525   6.616  20.073  0.00  0.00    +0.000 NA
ATOM      5  C   UNL     1       3.376   6.189  19.164  0.00  0.00    +0.000 A 
ATOM      6  S   UNL     1       3.376   7.119  17.720  0.00  0.00    +0.000 S 
ATOM      7  H   UNL     1       2.058   9.387  16.850  0.00  0.00    +0.000 HD
ENDROOT
BRANCH   1  12
ATOM      8  C   UNL     1      -0.940  11.507  19.150  0.00  0.00    +0.000 A 
ATOM      9  C   UNL     1      -0.180  12.643  19.419  0.00  0.00    +0.000 A 
ATOM     10  C   UNL     1       1.189  12.651  19.152  0.00  0.00    +0.000 A 
ATOM     11  C   UNL     1       1.806  11.516  18.616  0.00  0.00    +0.000 A 
ATOM     12  C   UNL     1       1.070  10.350  18.360  0.00  0.00    +0.000 A 
ATOM     13  C   UNL     1      -0.309  10.379  18.623  0.00  0.00    +0.000 A 
BRANCH   8  15
ATOM     14  C   UNL     1      -2.680  12.761  20.169  0.00  0.00    +0.000 C 
ATOM     15  O   UNL     1      -2.275  11.606  19.435  0.00  0.00    +0.000 OA
ENDBRANCH   8  15
ENDBRANCH   1  12
BRANCH   5  16
ATOM     16  C   UNL     1       4.131   4.916  19.299  0.00  0.00    +0.000 C 
BRANCH  16  17
ATOM     17  C   UNL     1       5.593   5.025  18.913  0.00  0.00    +0.000 C 
ATOM     18  O   UNL     1       6.443   5.519  19.654  0.00  0.00    +0.000 OA
ATOM     19  N   UNL     1       5.915   4.542  17.635  0.00  0.00    +0.000 N 
ATOM     20  C   UNL     1       7.319   4.471  17.229  0.00  0.00    +0.000 C 
ATOM     21  C   UNL     1       7.515   4.975  15.801  0.00  0.00    +0.000 C 
ATOM     22  C   UNL     1       6.551   4.307  14.823  0.00  0.00    +0.000 C 
ATOM     23  C   UNL     1       5.112   4.437  15.312  0.00  0.00    +0.000 C 
ATOM     24  C   UNL     1       4.970   3.887  16.725  0.00  0.00    +0.000 C 
ENDBRANCH  16  17
ENDBRANCH   5  16
TORSDOF 4
ENDMDL
MODEL 9
REMARK VINA RESULT:      -7.2      1.554      1.947
REMARK  Name = 
REMARK  5 active torsions:
REMARK  status: ('A' for Active; 'I' for Inactive)
REMARK    1  A    between atoms: C_1  and  O_2
REMARK    2  A    between atoms: O_2  and  C_3
REMARK    3  A    between atoms: C_7  and  N_8
REMARK    4  A    between atoms: C_12  and  C_13
REMARK    5  A    between atoms: C_13  and  C_14
REMARK                            x       y       z     vdW  Elec       q    Type
REMARK                         _______ _______ _______ _____ _____    ______ ____
ROOT
ATOM      1  N   UNL     1       8.081   9.470  17.902  0.00  0.00    +0.000 N 
ATOM      2  C   UNL     1       7.961   8.129  18.069  0.00  0.00    +0.000 A 
ATOM      3  N   UNL     1       8.465   7.395  19.045  0.00  0.00    +0.000 NA
ATOM      4  N   UNL     1       8.209   6.058  18.923  0.00  0.00    +0.000 NA
ATOM      5  C   UNL     1       7.472   5.793  17.864  0.00  0.00    +0.000 A 
ATOM      6  S   UNL     1       7.036   7.184  16.955  0.00  0.00    +0.000 S 
ATOM      7  H   UNL     1       7.579   9.889  17.129  0.00  0.00    +0.000 HD
ENDROOT
BRANCH   1  12
ATOM      8  C   UNL     1      11.035  11.755  18.288  0.00  0.00    +0.000 A 
ATOM      9  C   UNL     1      11.056  11.899  19.674  0.00  0.00    +0.000 A 
ATOM     10  C   UNL     1      10.108  11.246  20.461  0.00  0.00    +0.000 A 
ATOM     11  C   UNL     1       9.128  10.447  19.862  0.00  0.00    +0.000 A 
ATOM     12  C   UNL     1       9.067  10.307  18.468  0.00  0.00    +0.000 A 
ATOM     13  C   UNL     1      10.045  10.962  17.704  0.00  0.00    +0.000 A 
BRANCH   8  15
ATOM     14  C   UNL     1      11.923  13.849  17.606  0.00  0.00    +0.000 C 
ATOM     15  O   UNL     1      12.016  12.425  17.607  0.00  0.00    +0.000 OA
ENDBRANCH   8  15
ENDBRANCH   1  12
BRANCH   5  16
ATOM     16  C   UNL     1       6.916   4.444  17.584  0.00  0.00    +0.000 C 
BRANCH  16  17
ATOM     17  C   UNL     1       5.561   4.468  16.903  0.00  0.00    +0.000 C 
ATOM     18  O   UNL     1       5.428   4.621  15.689  0.00  0.00    +0.000 OA
ATOM     19  N   UNL     1       4.457   4.325  17.757  0.00  0.00    +0.000 N 
ATOM     20  C   UNL     1       3.119   4.190  17.181  0.00  0.00    +0.000 C 
ATOM     21  C   UNL     1       2.098   5.044  17.929  0.00  0.00    +0.000 C 
ATOM     22  C   UNL     1       2.152   4.807  19.437  0.00  0.00    +0.000 C 
ATOM     23  C   UNL     1       3.575   4.978  19.958  0.00  0.00    +0.000 C 
ATOM     24  C   UNL     1       4.540   4.078  19.200  0.00  0.00    +0.000 C 
ENDBRANCH  16  17
ENDBRANCH   5  16
TORSDOF 4
ENDMDL
