MODEL 1
REMARK VINA RESULT:      -6.9      0.000      0.000
REMARK  Name = 
REMARK  9 active torsions:
REMARK  status: ('A' for Active; 'I' for Inactive)
REMARK    1  A    between atoms: O_1  and  C_2
REMARK    2  A    between atoms: C_2  and  C_3
REMARK    3  A    between atoms: C_3  and  N_4
REMARK    4  A    between atoms: N_4  and  C_5
REMARK    5  A    between atoms: N_4  and  C_8
REMARK    6  A    between atoms: C_5  and  C_6
REMARK    7  A    between atoms: C_6  and  O_7
REMARK    8  A    between atoms: C_11  and  N_12
REMARK    9  A    between atoms: C_16  and  O_17
REMARK                            x       y       z     vdW  Elec       q    Type
REMARK                         _______ _______ _______ _____ _____    ______ ____
ROOT
ATOM      1  C   UNL     1       1.089   9.570  19.174  0.00  0.00    +0.000 A 
ATOM      2  C   UNL     1       1.169   8.755  20.310  0.00  0.00    +0.000 A 
ATOM      3  C   UNL     1       1.847   7.534  20.294  0.00  0.00    +0.000 A 
ATOM      4  C   UNL     1       2.478   7.084  19.130  0.00  0.00    +0.000 A 
ATOM      5  C   UNL     1       2.398   7.878  17.983  0.00  0.00    +0.000 A 
ATOM      6  C   UNL     1       1.708   9.100  18.010  0.00  0.00    +0.000 A 
ENDROOT
BRANCH   4   7
ATOM      7  N   UNL     1       3.175   5.836  19.129  0.00  0.00    +0.000 N 
ATOM      8  C   UNL     1       4.547   5.667  19.241  0.00  0.00    +0.000 A 
ATOM      9  N   UNL     1       4.927   4.407  19.252  0.00  0.00    +0.000 NA
ATOM     10  C   UNL     1       3.758   3.712  19.110  0.00  0.00    +0.000 A 
ATOM     11  C   UNL     1       3.506   2.344  19.044  0.00  0.00    +0.000 A 
ATOM     12  N   UNL     1       2.255   1.885  18.876  0.00  0.00    +0.000 NA
ATOM     13  C   UNL     1       1.276   2.804  18.784  0.00  0.00    +0.000 A 
ATOM     14  N   UNL     1       1.382   4.148  18.850  0.00  0.00    +0.000 NA
ATOM     15  C   UNL     1       2.658   4.549  19.018  0.00  0.00    +0.000 A 
BRANCH  11  16
ATOM     16  O   UNL     1       4.509   1.413  19.141  0.00  0.00    +0.000 OA
ATOM     17  H   UNL     1       4.873   1.354  18.239  0.00  0.00    +0.000 HD
ENDBRANCH  11  16
ENDBRANCH   4   7
BRANCH   1  18
ATOM     18  N   UNL     1       0.446  10.803  19.190  0.00  0.00    +0.000 N 
BRANCH  18  19
ATOM     19  C   UNL     1       1.052  11.945  19.899  0.00  0.00    +0.000 C 
BRANCH  19  20
ATOM     20  C   UNL     1       2.126  12.649  19.049  0.00  0.00    +0.000 C 
BRANCH  20  21
ATOM     21  O   UNL     1       1.695  12.751  17.693  0.00  0.00    +0.000 OA
ATOM     22  H   UNL     1       1.728  11.851  17.324  0.00  0.00    +0.000 HD
ENDBRANCH  20  21
ENDBRANCH  19  20
ENDBRANCH  18  19
BRANCH  18  23
ATOM     23  C   UNL     1      -1.025  10.811  19.018  0.00  0.00    +0.000 C 
BRANCH  23  24
ATOM     24  C   UNL     1      -1.594  12.189  18.637  0.00  0.00    +0.000 C 
BRANCH  24  25
ATOM     25  O   UNL     1      -1.229  12.572  17.313  0.00  0.00    +0.000 OA
ATOM     26  H   UNL     1      -0.294  12.837  17.365  0.00  0.00    +0.000 HD
ENDBRANCH  24  25
ENDBRANCH  23  24
ENDBRANCH  18  23
ENDBRANCH   1  18
TORSDOF 9
ENDMDL
MODEL 2
REMARK VINA RESULT:      -6.7      0.360      1.060
REMARK  Name = 
REMARK  9 active torsions:
REMARK  status: ('A' for Active; 'I' for Inactive)
REMARK    1  A    between atoms: O_1  and  C_2
REMARK    2  A    between atoms: C_2  and  C_3
REMARK    3  A    between atoms: C_3  and  N_4
REMARK    4  A    between atoms: N_4  and  C_5
REMARK    5  A    between atoms: N_4  and  C_8
REMARK    6  A    between atoms: C_5  and  C_6
REMARK    7  A    between atoms: C_6  and  O_7
REMARK    8  A    between atoms: C_11  and  N_12
REMARK    9  A    between atoms: C_16  and  O_17
REMARK                            x       y       z     vdW  Elec       q    Type
REMARK                         _______ _______ _______ _____ _____    ______ ____
ROOT
ATOM      1  C   UNL     1       1.371   9.484  18.891  0.00  0.00    +0.000 A 
ATOM      2  C   UNL     1       2.051   8.961  17.784  0.00  0.00    +0.000 A 
ATOM      3  C   UNL     1       2.688   7.719  17.829  0.00  0.00    +0.000 A 
ATOM      4  C   UNL     1       2.661   6.946  18.994  0.00  0.00    +0.000 A 
ATOM      5  C   UNL     1       1.997   7.456  20.113  0.00  0.00    +0.000 A 
ATOM      6  C   UNL     1       1.367   8.709  20.057  0.00  0.00    +0.000 A 
ENDROOT
BRANCH   4   7
ATOM      7  N   UNL     1       3.310   5.673  19.025  0.00  0.00    +0.000 N 
ATOM      8  C   UNL     1       4.666   5.452  19.209  0.00  0.00    +0.000 A 
ATOM      9  N   UNL     1       4.997   4.179  19.235  0.00  0.00    +0.000 NA
ATOM     10  C   UNL     1       3.812   3.528  19.029  0.00  0.00    +0.000 A 
ATOM     11  C   UNL     1       3.513   2.171  18.944  0.00  0.00    +0.000 A 
ATOM     12  N   UNL     1       2.256   1.760  18.708  0.00  0.00    +0.000 NA
ATOM     13  C   UNL     1       1.319   2.715  18.568  0.00  0.00    +0.000 A 
ATOM     14  N   UNL     1       1.471   4.054  18.645  0.00  0.00    +0.000 NA
ATOM     15  C   UNL     1       2.751   4.406  18.882  0.00  0.00    +0.000 A 
BRANCH  11  16
ATOM     16  O   UNL     1       4.474   1.203  19.091  0.00  0.00    +0.000 OA
ATOM     17  H   UNL     1       4.540   0.792  18.209  0.00  0.00    +0.000 HD
ENDBRANCH  11  16
ENDBRANCH   4   7
BRANCH   1  18
ATOM     18  N   UNL     1       0.705  10.703  18.844  0.00  0.00    +0.000 N 
BRANCH  18  19
ATOM     19  C   UNL     1       1.227  11.862  19.591  0.00  0.00    +0.000 C 
BRANCH  19  20
ATOM     20  C   UNL     1       1.912  12.886  18.667  0.00  0.00    +0.000 C 
BRANCH  20  21
ATOM     21  O   UNL     1       2.351  12.251  17.467  0.00  0.00    +0.000 OA
ATOM     22  H   UNL     1       3.105  12.771  17.137  0.00  0.00    +0.000 HD
ENDBRANCH  20  21
ENDBRANCH  19  20
ENDBRANCH  18  19
BRANCH  18  23
ATOM     23  C   UNL     1      -0.746  10.681  18.550  0.00  0.00    +0.000 C 
BRANCH  23  24
ATOM     24  C   UNL     1      -1.379  12.080  18.453  0.00  0.00    +0.000 C 
BRANCH  24  25
ATOM     25  O   UNL     1      -1.293  12.617  17.136  0.00  0.00    +0.000 OA
ATOM     26  H   UNL     1      -0.471  12.257  16.759  0.00  0.00    +0.000 HD
ENDBRANCH  24  25
ENDBRANCH  23  24
ENDBRANCH  18  23
ENDBRANCH   1  18
TORSDOF 9
ENDMDL
MODEL 3
REMARK VINA RESULT:      -6.7      1.120      1.503
REMARK  Name = 
REMARK  9 active torsions:
REMARK  status: ('A' for Active; 'I' for Inactive)
REMARK    1  A    between atoms: O_1  and  C_2
REMARK    2  A    between atoms: C_2  and  C_3
REMARK    3  A    between atoms: C_3  and  N_4
REMARK    4  A    between atoms: N_4  and  C_5
REMARK    5  A    between atoms: N_4  and  C_8
REMARK    6  A    between atoms: C_5  and  C_6
REMARK    7  A    between atoms: C_6  and  O_7
REMARK    8  A    between atoms: C_11  and  N_12
REMARK    9  A    between atoms: C_16  and  O_17
REMARK                            x       y       z     vdW  Elec       q    Type
REMARK                         _______ _______ _______ _____ _____    ______ ____
ROOT
ATOM      1  C   UNL     1       0.909   9.761  19.289  0.00  0.00    +0.000 A 
ATOM      2  C   UNL     1       1.503   9.293  18.110  0.00  0.00    +0.000 A 
ATOM      3  C   UNL     1       2.220   8.095  18.072  0.00  0.00    +0.000 A 
ATOM      4  C   UNL     1       2.363   7.312  19.221  0.00  0.00    +0.000 A 
ATOM      5  C   UNL     1       1.787   7.769  20.410  0.00  0.00    +0.000 A 
ATOM      6  C   UNL     1       1.075   8.978  20.438  0.00  0.00    +0.000 A 
ENDROOT
BRANCH   4   7
ATOM      7  N   UNL     1       3.093   6.084  19.167  0.00  0.00    +0.000 N 
ATOM      8  C   UNL     1       4.143   5.797  18.308  0.00  0.00    +0.000 A 
ATOM      9  N   UNL     1       4.666   4.604  18.493  0.00  0.00    +0.000 NA
ATOM     10  C   UNL     1       3.909   4.066  19.496  0.00  0.00    +0.000 A 
ATOM     11  C   UNL     1       3.969   2.826  20.127  0.00  0.00    +0.000 A 
ATOM     12  N   UNL     1       3.089   2.504  21.090  0.00  0.00    +0.000 NA
ATOM     13  C   UNL     1       2.169   3.432  21.410  0.00  0.00    +0.000 A 
ATOM     14  N   UNL     1       2.014   4.669  20.892  0.00  0.00    +0.000 NA
ATOM     15  C   UNL     1       2.923   4.935  19.933  0.00  0.00    +0.000 A 
BRANCH  11  16
ATOM     16  O   UNL     1       4.913   1.885  19.798  0.00  0.00    +0.000 OA
ATOM     17  H   UNL     1       4.569   1.473  18.984  0.00  0.00    +0.000 HD
ENDBRANCH  11  16
ENDBRANCH   4   7
BRANCH   1  18
ATOM     18  N   UNL     1       0.164  10.934  19.329  0.00  0.00    +0.000 N 
BRANCH  18  19
ATOM     19  C   UNL     1       0.650  12.095  20.098  0.00  0.00    +0.000 C 
BRANCH  19  20
ATOM     20  C   UNL     1       1.303  13.156  19.192  0.00  0.00    +0.000 C 
BRANCH  20  21
ATOM     21  O   UNL     1       1.286  12.723  17.832  0.00  0.00    +0.000 OA
ATOM     22  H   UNL     1       0.418  12.309  17.684  0.00  0.00    +0.000 HD
ENDBRANCH  20  21
ENDBRANCH  19  20
ENDBRANCH  18  19
BRANCH  18  23
ATOM     23  C   UNL     1      -1.297  10.827  19.109  0.00  0.00    +0.000 C 
BRANCH  23  24
ATOM     24  C   UNL     1      -1.716  11.013  17.641  0.00  0.00    +0.000 C 
BRANCH  24  25
ATOM     25  O   UNL     1      -1.550  12.360  17.203  0.00  0.00    +0.000 OA
ATOM     26  H   UNL     1      -2.338  12.562  16.670  0.00  0.00    +0.000 HD
ENDBRANCH  24  25
ENDBRANCH  23  24
ENDBRANCH  18  23
ENDBRANCH   1  18
TORSDOF 9
ENDMDL
MODEL 4
REMARK VINA RESULT:      -6.7      0.915      2.058
REMARK  Name = 
REMARK  9 active torsions:
REMARK  status: ('A' for Active; 'I' for Inactive)
REMARK    1  A    between atoms: O_1  and  C_2
REMARK    2  A    between atoms: C_2  and  C_3
REMARK    3  A    between atoms: C_3  and  N_4
REMARK    4  A    between atoms: N_4  and  C_5
REMARK    5  A    between atoms: N_4  and  C_8
REMARK    6  A    between atoms: C_5  and  C_6
REMARK    7  A    between atoms: C_6  and  O_7
REMARK    8  A    between atoms: C_11  and  N_12
REMARK    9  A    between atoms: C_16  and  O_17
REMARK                            x       y       z     vdW  Elec       q    Type
REMARK                         _______ _______ _______ _____ _____    ______ ____
ROOT
ATOM      1  C   UNL     1       1.140   9.483  19.239  0.00  0.00    +0.000 A 
ATOM      2  C   UNL     1       1.798   9.026  18.091  0.00  0.00    +0.000 A 
ATOM      3  C   UNL     1       2.471   7.802  18.065  0.00  0.00    +0.000 A 
ATOM      4  C   UNL     1       2.505   6.983  19.198  0.00  0.00    +0.000 A 
ATOM      5  C   UNL     1       1.864   7.428  20.357  0.00  0.00    +0.000 A 
ATOM      6  C   UNL     1       1.197   8.663  20.373  0.00  0.00    +0.000 A 
ENDROOT
BRANCH   4   7
ATOM      7  N   UNL     1       3.190   5.729  19.156  0.00  0.00    +0.000 N 
ATOM      8  C   UNL     1       4.562   5.546  19.245  0.00  0.00    +0.000 A 
ATOM      9  N   UNL     1       4.930   4.283  19.219  0.00  0.00    +0.000 NA
ATOM     10  C   UNL     1       3.753   3.601  19.077  0.00  0.00    +0.000 A 
ATOM     11  C   UNL     1       3.487   2.238  18.980  0.00  0.00    +0.000 A 
ATOM     12  N   UNL     1       2.230   1.794  18.819  0.00  0.00    +0.000 NA
ATOM     13  C   UNL     1       1.258   2.724  18.764  0.00  0.00    +0.000 A 
ATOM     14  N   UNL     1       1.377   4.064  18.862  0.00  0.00    +0.000 NA
ATOM     15  C   UNL     1       2.659   4.450  19.021  0.00  0.00    +0.000 A 
BRANCH  11  16
ATOM     16  O   UNL     1       4.484   1.296  19.041  0.00  0.00    +0.000 OA
ATOM     17  H   UNL     1       4.204   0.694  19.755  0.00  0.00    +0.000 HD
ENDBRANCH  11  16
ENDBRANCH   4   7
BRANCH   1  18
ATOM     18  N   UNL     1       0.439  10.683  19.264  0.00  0.00    +0.000 N 
BRANCH  18  19
ATOM     19  C   UNL     1      -0.967  10.730  18.822  0.00  0.00    +0.000 C 
BRANCH  19  20
ATOM     20  C   UNL     1      -1.351  12.110  18.257  0.00  0.00    +0.000 C 
BRANCH  20  21
ATOM     21  O   UNL     1      -1.644  12.009  16.864  0.00  0.00    +0.000 OA
ATOM     22  H   UNL     1      -0.898  12.420  16.393  0.00  0.00    +0.000 HD
ENDBRANCH  20  21
ENDBRANCH  19  20
ENDBRANCH  18  19
BRANCH  18  23
ATOM     23  C   UNL     1       1.222  11.937  19.172  0.00  0.00    +0.000 C 
BRANCH  23  24
ATOM     24  C   UNL     1       1.573  12.547  20.540  0.00  0.00    +0.000 C 
BRANCH  24  25
ATOM     25  O   UNL     1       0.694  12.098  21.569  0.00  0.00    +0.000 OA
ATOM     26  H   UNL     1       1.228  11.511  22.132  0.00  0.00    +0.000 HD
ENDBRANCH  24  25
ENDBRANCH  23  24
ENDBRANCH  18  23
ENDBRANCH   1  18
TORSDOF 9
ENDMDL
MODEL 5
REMARK VINA RESULT:      -6.6      1.603      2.328
REMARK  Name = 
REMARK  9 active torsions:
REMARK  status: ('A' for Active; 'I' for Inactive)
REMARK    1  A    between atoms: O_1  and  C_2
REMARK    2  A    between atoms: C_2  and  C_3
REMARK    3  A    between atoms: C_3  and  N_4
REMARK    4  A    between atoms: N_4  and  C_5
REMARK    5  A    between atoms: N_4  and  C_8
REMARK    6  A    between atoms: C_5  and  C_6
REMARK    7  A    between atoms: C_6  and  O_7
REMARK    8  A    between atoms: C_11  and  N_12
REMARK    9  A    between atoms: C_16  and  O_17
REMARK                            x       y       z     vdW  Elec       q    Type
REMARK                         _______ _______ _______ _____ _____    ______ ____
ROOT
ATOM      1  C   UNL     1       1.093   9.337  19.727  0.00  0.00    +0.000 A 
ATOM      2  C   UNL     1       1.717   8.978  18.526  0.00  0.00    +0.000 A 
ATOM      3  C   UNL     1       2.380   7.757  18.376  0.00  0.00    +0.000 A 
ATOM      4  C   UNL     1       2.436   6.842  19.432  0.00  0.00    +0.000 A 
ATOM      5  C   UNL     1       1.829   7.188  20.642  0.00  0.00    +0.000 A 
ATOM      6  C   UNL     1       1.172   8.421  20.782  0.00  0.00    +0.000 A 
ENDROOT
BRANCH   4   7
ATOM      7  N   UNL     1       3.110   5.593  19.263  0.00  0.00    +0.000 N 
ATOM      8  C   UNL     1       4.484   5.402  19.255  0.00  0.00    +0.000 A 
ATOM      9  N   UNL     1       4.842   4.143  19.121  0.00  0.00    +0.000 NA
ATOM     10  C   UNL     1       3.654   3.475  19.005  0.00  0.00    +0.000 A 
ATOM     11  C   UNL     1       3.375   2.121  18.833  0.00  0.00    +0.000 A 
ATOM     12  N   UNL     1       2.108   1.692  18.719  0.00  0.00    +0.000 NA
ATOM     13  C   UNL     1       1.140   2.625  18.787  0.00  0.00    +0.000 A 
ATOM     14  N   UNL     1       1.273   3.955  18.968  0.00  0.00    +0.000 NA
ATOM     15  C   UNL     1       2.565   4.327  19.075  0.00  0.00    +0.000 A 
BRANCH  11  16
ATOM     16  O   UNL     1       4.368   1.176  18.768  0.00  0.00    +0.000 OA
ATOM     17  H   UNL     1       5.145   1.613  19.164  0.00  0.00    +0.000 HD
ENDBRANCH  11  16
ENDBRANCH   4   7
BRANCH   1  18
ATOM     18  N   UNL     1       0.402  10.534  19.874  0.00  0.00    +0.000 N 
BRANCH  18  19
ATOM     19  C   UNL     1      -0.137  11.230  18.690  0.00  0.00    +0.000 C 
BRANCH  19  20
ATOM     20  C   UNL     1      -1.513  10.678  18.271  0.00  0.00    +0.000 C 
BRANCH  20  21
ATOM     21  O   UNL     1      -1.426  10.057  16.990  0.00  0.00    +0.000 OA
ATOM     22  H   UNL     1      -0.479   9.928  16.808  0.00  0.00    +0.000 HD
ENDBRANCH  20  21
ENDBRANCH  19  20
ENDBRANCH  18  19
BRANCH  18  23
ATOM     23  C   UNL     1       0.702  11.357  21.068  0.00  0.00    +0.000 C 
BRANCH  23  24
ATOM     24  C   UNL     1      -0.477  11.475  22.050  0.00  0.00    +0.000 C 
BRANCH  24  25
ATOM     25  O   UNL     1      -0.285  10.677  23.215  0.00  0.00    +0.000 OA
ATOM     26  H   UNL     1       0.495  10.125  23.030  0.00  0.00    +0.000 HD
ENDBRANCH  24  25
ENDBRANCH  23  24
ENDBRANCH  18  23
ENDBRANCH   1  18
TORSDOF 9
ENDMDL
MODEL 6
REMARK VINA RESULT:      -6.6      1.423      1.587
REMARK  Name = 
REMARK  9 active torsions:
REMARK  status: ('A' for Active; 'I' for Inactive)
REMARK    1  A    between atoms: O_1  and  C_2
REMARK    2  A    between atoms: C_2  and  C_3
REMARK    3  A    between atoms: C_3  and  N_4
REMARK    4  A    between atoms: N_4  and  C_5
REMARK    5  A    between atoms: N_4  and  C_8
REMARK    6  A    between atoms: C_5  and  C_6
REMARK    7  A    between atoms: C_6  and  O_7
REMARK    8  A    between atoms: C_11  and  N_12
REMARK    9  A    between atoms: C_16  and  O_17
REMARK                            x       y       z     vdW  Elec       q    Type
REMARK                         _______ _______ _______ _____ _____    ______ ____
ROOT
ATOM      1  C   UNL     1       1.140   9.350  19.624  0.00  0.00    +0.000 A 
ATOM      2  C   UNL     1       1.225   8.423  20.669  0.00  0.00    +0.000 A 
ATOM      3  C   UNL     1       1.874   7.195  20.514  0.00  0.00    +0.000 A 
ATOM      4  C   UNL     1       2.471   6.853  19.297  0.00  0.00    +0.000 A 
ATOM      5  C   UNL     1       2.385   7.761  18.238  0.00  0.00    +0.000 A 
ATOM      6  C   UNL     1       1.724   8.988  18.404  0.00  0.00    +0.000 A 
ENDROOT
BRANCH   4   7
ATOM      7  N   UNL     1       3.139   5.597  19.153  0.00  0.00    +0.000 N 
ATOM      8  C   UNL     1       4.511   5.400  19.142  0.00  0.00    +0.000 A 
ATOM      9  N   UNL     1       4.863   4.137  19.035  0.00  0.00    +0.000 NA
ATOM     10  C   UNL     1       3.673   3.471  18.942  0.00  0.00    +0.000 A 
ATOM     11  C   UNL     1       3.387   2.115  18.803  0.00  0.00    +0.000 A 
ATOM     12  N   UNL     1       2.117   1.689  18.706  0.00  0.00    +0.000 NA
ATOM     13  C   UNL     1       1.154   2.627  18.758  0.00  0.00    +0.000 A 
ATOM     14  N   UNL     1       1.293   3.961  18.906  0.00  0.00    +0.000 NA
ATOM     15  C   UNL     1       2.587   4.330  18.997  0.00  0.00    +0.000 A 
BRANCH  11  16
ATOM     16  O   UNL     1       4.375   1.164  18.754  0.00  0.00    +0.000 OA
ATOM     17  H   UNL     1       5.133   1.579  19.207  0.00  0.00    +0.000 HD
ENDBRANCH  11  16
ENDBRANCH   4   7
BRANCH   1  18
ATOM     18  N   UNL     1       0.526  10.588  19.780  0.00  0.00    +0.000 N 
BRANCH  18  19
ATOM     19  C   UNL     1       0.622  11.307  21.063  0.00  0.00    +0.000 C 
BRANCH  19  20
ATOM     20  C   UNL     1      -0.663  11.171  21.900  0.00  0.00    +0.000 C 
BRANCH  20  21
ATOM     21  O   UNL     1      -0.589  12.002  23.058  0.00  0.00    +0.000 OA
ATOM     22  H   UNL     1       0.343  12.269  23.148  0.00  0.00    +0.000 HD
ENDBRANCH  20  21
ENDBRANCH  19  20
ENDBRANCH  18  19
BRANCH  18  23
ATOM     23  C   UNL     1      -0.640  10.888  18.917  0.00  0.00    +0.000 C 
BRANCH  23  24
ATOM     24  C   UNL     1      -0.720  12.361  18.478  0.00  0.00    +0.000 C 
BRANCH  24  25
ATOM     25  O   UNL     1      -1.374  12.509  17.220  0.00  0.00    +0.000 OA
ATOM     26  H   UNL     1      -1.972  13.269  17.323  0.00  0.00    +0.000 HD
ENDBRANCH  24  25
ENDBRANCH  23  24
ENDBRANCH  18  23
ENDBRANCH   1  18
TORSDOF 9
ENDMDL
MODEL 7
REMARK VINA RESULT:      -6.6      1.738      1.976
REMARK  Name = 
REMARK  9 active torsions:
REMARK  status: ('A' for Active; 'I' for Inactive)
REMARK    1  A    between atoms: O_1  and  C_2
REMARK    2  A    between atoms: C_2  and  C_3
REMARK    3  A    between atoms: C_3  and  N_4
REMARK    4  A    between atoms: N_4  and  C_5
REMARK    5  A    between atoms: N_4  and  C_8
REMARK    6  A    between atoms: C_5  and  C_6
REMARK    7  A    between atoms: C_6  and  O_7
REMARK    8  A    between atoms: C_11  and  N_12
REMARK    9  A    between atoms: C_16  and  O_17
REMARK                            x       y       z     vdW  Elec       q    Type
REMARK                         _______ _______ _______ _____ _____    ______ ____
ROOT
ATOM      1  C   UNL     1       0.778   9.909  19.369  0.00  0.00    +0.000 A 
ATOM      2  C   UNL     1       0.984   9.086  20.483  0.00  0.00    +0.000 A 
ATOM      3  C   UNL     1       1.717   7.900  20.398  0.00  0.00    +0.000 A 
ATOM      4  C   UNL     1       2.281   7.496  19.184  0.00  0.00    +0.000 A 
ATOM      5  C   UNL     1       2.077   8.298  18.058  0.00  0.00    +0.000 A 
ATOM      6  C   UNL     1       1.331   9.484  18.155  0.00  0.00    +0.000 A 
ENDROOT
BRANCH   4   7
ATOM      7  N   UNL     1       3.036   6.284  19.112  0.00  0.00    +0.000 N 
ATOM      8  C   UNL     1       4.104   6.038  18.262  0.00  0.00    +0.000 A 
ATOM      9  N   UNL     1       4.649   4.851  18.427  0.00  0.00    +0.000 NA
ATOM     10  C   UNL     1       3.890   4.276  19.408  0.00  0.00    +0.000 A 
ATOM     11  C   UNL     1       3.966   3.023  20.012  0.00  0.00    +0.000 A 
ATOM     12  N   UNL     1       3.081   2.662  20.955  0.00  0.00    +0.000 NA
ATOM     13  C   UNL     1       2.137   3.564  21.283  0.00  0.00    +0.000 A 
ATOM     14  N   UNL     1       1.964   4.809  20.790  0.00  0.00    +0.000 NA
ATOM     15  C   UNL     1       2.880   5.115  19.850  0.00  0.00    +0.000 A 
BRANCH  11  16
ATOM     16  O   UNL     1       4.934   2.110  19.675  0.00  0.00    +0.000 OA
ATOM     17  H   UNL     1       5.756   2.632  19.635  0.00  0.00    +0.000 HD
ENDBRANCH  11  16
ENDBRANCH   4   7
BRANCH   1  18
ATOM     18  N   UNL     1       0.080  11.108  19.452  0.00  0.00    +0.000 N 
BRANCH  18  19
ATOM     19  C   UNL     1       0.668  12.348  18.914  0.00  0.00    +0.000 C 
BRANCH  19  20
ATOM     20  C   UNL     1      -0.402  13.292  18.333  0.00  0.00    +0.000 C 
BRANCH  20  21
ATOM     21  O   UNL     1      -1.138  12.630  17.306  0.00  0.00    +0.000 OA
ATOM     22  H   UNL     1      -0.638  12.757  16.480  0.00  0.00    +0.000 HD
ENDBRANCH  20  21
ENDBRANCH  19  20
ENDBRANCH  18  19
BRANCH  18  23
ATOM     23  C   UNL     1      -0.922  11.243  20.534  0.00  0.00    +0.000 C 
BRANCH  23  24
ATOM     24  C   UNL     1      -0.437  12.093  21.722  0.00  0.00    +0.000 C 
BRANCH  24  25
ATOM     25  O   UNL     1      -0.254  11.311  22.900  0.00  0.00    +0.000 OA
ATOM     26  H   UNL     1       0.503  11.709  23.364  0.00  0.00    +0.000 HD
ENDBRANCH  24  25
ENDBRANCH  23  24
ENDBRANCH  18  23
ENDBRANCH   1  18
TORSDOF 9
ENDMDL
MODEL 8
REMARK VINA RESULT:      -6.6      0.392      1.658
REMARK  Name = 
REMARK  9 active torsions:
REMARK  status: ('A' for Active; 'I' for Inactive)
REMARK    1  A    between atoms: O_1  and  C_2
REMARK    2  A    between atoms: C_2  and  C_3
REMARK    3  A    between atoms: C_3  and  N_4
REMARK    4  A    between atoms: N_4  and  C_5
REMARK    5  A    between atoms: N_4  and  C_8
REMARK    6  A    between atoms: C_5  and  C_6
REMARK    7  A    between atoms: C_6  and  O_7
REMARK    8  A    between atoms: C_11  and  N_12
REMARK    9  A    between atoms: C_16  and  O_17
REMARK                            x       y       z     vdW  Elec       q    Type
REMARK                         _______ _______ _______ _____ _____    ______ ____
ROOT
ATOM      1  C   UNL     1       1.169   9.379  19.143  0.00  0.00    +0.000 A 
ATOM      2  C   UNL     1       1.335   8.618  20.306  0.00  0.00    +0.000 A 
ATOM      3  C   UNL     1       2.010   7.394  20.296  0.00  0.00    +0.000 A 
ATOM      4  C   UNL     1       2.552   6.889  19.110  0.00  0.00    +0.000 A 
ATOM      5  C   UNL     1       2.385   7.629  17.937  0.00  0.00    +0.000 A 
ATOM      6  C   UNL     1       1.699   8.853  17.959  0.00  0.00    +0.000 A 
ENDROOT
BRANCH   4   7
ATOM      7  N   UNL     1       3.247   5.640  19.115  0.00  0.00    +0.000 N 
ATOM      8  C   UNL     1       4.614   5.468  19.275  0.00  0.00    +0.000 A 
ATOM      9  N   UNL     1       4.991   4.207  19.279  0.00  0.00    +0.000 NA
ATOM     10  C   UNL     1       3.828   3.516  19.084  0.00  0.00    +0.000 A 
ATOM     11  C   UNL     1       3.577   2.150  18.987  0.00  0.00    +0.000 A 
ATOM     12  N   UNL     1       2.333   1.695  18.767  0.00  0.00    +0.000 NA
ATOM     13  C   UNL     1       1.358   2.617  18.654  0.00  0.00    +0.000 A 
ATOM     14  N   UNL     1       1.463   3.959  18.744  0.00  0.00    +0.000 NA
ATOM     15  C   UNL     1       2.733   4.356  18.965  0.00  0.00    +0.000 A 
BRANCH  11  16
ATOM     16  O   UNL     1       4.576   1.215  19.107  0.00  0.00    +0.000 OA
ATOM     17  H   UNL     1       4.295   0.486  18.524  0.00  0.00    +0.000 HD
ENDBRANCH  11  16
ENDBRANCH   4   7
BRANCH   1  18
ATOM     18  N   UNL     1       0.529  10.613  19.150  0.00  0.00    +0.000 N 
BRANCH  18  19
ATOM     19  C   UNL     1      -0.764  10.783  18.461  0.00  0.00    +0.000 C 
BRANCH  19  20
ATOM     20  C   UNL     1      -1.238  12.248  18.474  0.00  0.00    +0.000 C 
BRANCH  20  21
ATOM     21  O   UNL     1      -1.217  12.785  17.152  0.00  0.00    +0.000 OA
ATOM     22  H   UNL     1      -1.907  13.471  17.120  0.00  0.00    +0.000 HD
ENDBRANCH  20  21
ENDBRANCH  19  20
ENDBRANCH  18  19
BRANCH  18  23
ATOM     23  C   UNL     1       1.370  11.820  19.325  0.00  0.00    +0.000 C 
BRANCH  23  24
ATOM     24  C   UNL     1       2.426  12.002  18.222  0.00  0.00    +0.000 C 
BRANCH  24  25
ATOM     25  O   UNL     1       2.165  13.148  17.414  0.00  0.00    +0.000 OA
ATOM     26  H   UNL     1       2.278  13.915  18.002  0.00  0.00    +0.000 HD
ENDBRANCH  24  25
ENDBRANCH  23  24
ENDBRANCH  18  23
ENDBRANCH   1  18
TORSDOF 9
ENDMDL
MODEL 9
REMARK VINA RESULT:      -6.6      1.521      2.219
REMARK  Name = 
REMARK  9 active torsions:
REMARK  status: ('A' for Active; 'I' for Inactive)
REMARK    1  A    between atoms: O_1  and  C_2
REMARK    2  A    between atoms: C_2  and  C_3
REMARK    3  A    between atoms: C_3  and  N_4
REMARK    4  A    between atoms: N_4  and  C_5
REMARK    5  A    between atoms: N_4  and  C_8
REMARK    6  A    between atoms: C_5  and  C_6
REMARK    7  A    between atoms: C_6  and  O_7
REMARK    8  A    between atoms: C_11  and  N_12
REMARK    9  A    between atoms: C_16  and  O_17
REMARK                            x       y       z     vdW  Elec       q    Type
REMARK                         _______ _______ _______ _____ _____    ______ ____
ROOT
ATOM      1  C   UNL     1       1.225   9.289  19.648  0.00  0.00    +0.000 A 
ATOM      2  C   UNL     1       1.793   8.912  18.424  0.00  0.00    +0.000 A 
ATOM      3  C   UNL     1       2.417   7.674  18.252  0.00  0.00    +0.000 A 
ATOM      4  C   UNL     1       2.490   6.759  19.306  0.00  0.00    +0.000 A 
ATOM      5  C   UNL     1       1.939   7.122  20.538  0.00  0.00    +0.000 A 
ATOM      6  C   UNL     1       1.321   8.372  20.701  0.00  0.00    +0.000 A 
ENDROOT
BRANCH   4   7
ATOM      7  N   UNL     1       3.124   5.492  19.114  0.00  0.00    +0.000 N 
ATOM      8  C   UNL     1       4.489   5.269  19.026  0.00  0.00    +0.000 A 
ATOM      9  N   UNL     1       4.810   4.000  18.887  0.00  0.00    +0.000 NA
ATOM     10  C   UNL     1       3.603   3.359  18.852  0.00  0.00    +0.000 A 
ATOM     11  C   UNL     1       3.283   2.010  18.716  0.00  0.00    +0.000 A 
ATOM     12  N   UNL     1       2.001   1.610  18.685  0.00  0.00    +0.000 NA
ATOM     13  C   UNL     1       1.061   2.566  18.799  0.00  0.00    +0.000 A 
ATOM     14  N   UNL     1       1.235   3.895  18.953  0.00  0.00    +0.000 NA
ATOM     15  C   UNL     1       2.539   4.237  18.976  0.00  0.00    +0.000 A 
BRANCH  11  16
ATOM     16  O   UNL     1       4.248   1.041  18.604  0.00  0.00    +0.000 OA
ATOM     17  H   UNL     1       4.686   1.232  17.754  0.00  0.00    +0.000 HD
ENDBRANCH  11  16
ENDBRANCH   4   7
BRANCH   1  18
ATOM     18  N   UNL     1       0.572  10.504  19.819  0.00  0.00    +0.000 N 
BRANCH  18  19
ATOM     19  C   UNL     1      -0.532  10.622  20.789  0.00  0.00    +0.000 C 
BRANCH  19  20
ATOM     20  C   UNL     1      -0.235  11.670  21.878  0.00  0.00    +0.000 C 
BRANCH  20  21
ATOM     21  O   UNL     1      -0.514  11.131  23.170  0.00  0.00    +0.000 OA
ATOM     22  H   UNL     1      -0.580  11.888  23.778  0.00  0.00    +0.000 HD
ENDBRANCH  20  21
ENDBRANCH  19  20
ENDBRANCH  18  19
BRANCH  18  23
ATOM     23  C   UNL     1       0.585  11.455  18.684  0.00  0.00    +0.000 C 
BRANCH  23  24
ATOM     24  C   UNL     1       1.782  12.422  18.701  0.00  0.00    +0.000 C 
BRANCH  24  25
ATOM     25  O   UNL     1       2.601  12.282  17.543  0.00  0.00    +0.000 OA
ATOM     26  H   UNL     1       3.381  12.841  17.704  0.00  0.00    +0.000 HD
ENDBRANCH  24  25
ENDBRANCH  23  24
ENDBRANCH  18  23
ENDBRANCH   1  18
TORSDOF 9
ENDMDL
