MODEL 1
REMARK VINA RESULT:      -6.7      0.000      0.000
REMARK  Name = 
REMARK  5 active torsions:
REMARK  status: ('A' for Active; 'I' for Inactive)
REMARK    1  A    between atoms: C_1  and  C_2
REMARK    2  A    between atoms: C_4  and  C_5
REMARK    3  A    between atoms: C_7  and  N_8
REMARK    4  A    between atoms: C_9  and  C_11
REMARK    5  A    between atoms: C_14  and  N_15
REMARK                            x       y       z     vdW  Elec       q    Type
REMARK                         _______ _______ _______ _____ _____    ______ ____
ROOT
ATOM      1  N   UNL     1       9.152   9.346  19.314  0.00  0.00    +0.000 N 
ATOM      2  C   UNL     1       8.280   9.137  18.257  0.00  0.00    +0.000 C 
ATOM      3  O   UNL     1       7.891   9.985  17.459  0.00  0.00    +0.000 OA
ATOM      4  H   UNL     1       9.553   8.536  19.764  0.00  0.00    +0.000 HD
ENDROOT
BRANCH   1  11
ATOM      5  C   UNL     1       9.141  13.115  22.516  0.00  0.00    +0.000 C 
ATOM      6  C   UNL     1       9.680  12.467  21.274  0.00  0.00    +0.000 A 
ATOM      7  C   UNL     1      10.717  13.075  20.554  0.00  0.00    +0.000 A 
ATOM      8  C   UNL     1      11.226  12.473  19.403  0.00  0.00    +0.000 A 
ATOM      9  C   UNL     1      12.333  13.102  18.610  0.00  0.00    +0.000 C 
ATOM     10  C   UNL     1      10.698  11.246  18.983  0.00  0.00    +0.000 A 
ATOM     11  C   UNL     1       9.679  10.606  19.694  0.00  0.00    +0.000 A 
ATOM     12  C   UNL     1       9.157  11.239  20.830  0.00  0.00    +0.000 A 
ENDBRANCH   1  11
BRANCH   2  13
ATOM     13  C   UNL     1       7.815   7.741  18.023  0.00  0.00    +0.000 A 
ATOM     14  C   UNL     1       8.185   6.664  18.832  0.00  0.00    +0.000 A 
ATOM     15  C   UNL     1       7.636   5.396  18.593  0.00  0.00    +0.000 A 
ATOM     16  C   UNL     1       6.684   5.198  17.586  0.00  0.00    +0.000 A 
ATOM     17  C   UNL     1       6.368   6.266  16.745  0.00  0.00    +0.000 A 
ATOM     18  C   UNL     1       6.907   7.531  16.976  0.00  0.00    +0.000 A 
BRANCH  16  19
ATOM     19  N   UNL     1       6.226   3.913  17.283  0.00  0.00    +0.000 N 
ATOM     20  H   UNL     1       5.767   3.840  16.380  0.00  0.00    +0.000 HD
ATOM     21  H   UNL     1       6.928   3.189  17.410  0.00  0.00    +0.000 HD
ENDBRANCH  16  19
ENDBRANCH   2  13
TORSDOF 3
ENDMDL
MODEL 2
REMARK VINA RESULT:      -6.6      6.741      8.312
REMARK  Name = 
REMARK  5 active torsions:
REMARK  status: ('A' for Active; 'I' for Inactive)
REMARK    1  A    between atoms: C_1  and  C_2
REMARK    2  A    between atoms: C_4  and  C_5
REMARK    3  A    between atoms: C_7  and  N_8
REMARK    4  A    between atoms: C_9  and  C_11
REMARK    5  A    between atoms: C_14  and  N_15
REMARK                            x       y       z     vdW  Elec       q    Type
REMARK                         _______ _______ _______ _____ _____    ______ ____
ROOT
ATOM      1  N   UNL     1       3.735   4.874  17.276  0.00  0.00    +0.000 N 
ATOM      2  C   UNL     1       5.116   4.811  17.179  0.00  0.00    +0.000 C 
ATOM      3  O   UNL     1       5.908   4.787  18.117  0.00  0.00    +0.000 OA
ATOM      4  H   UNL     1       3.193   4.679  16.446  0.00  0.00    +0.000 HD
ENDROOT
BRANCH   1  11
ATOM      5  C   UNL     1       1.650   7.843  20.637  0.00  0.00    +0.000 C 
ATOM      6  C   UNL     1       1.977   6.462  20.148  0.00  0.00    +0.000 A 
ATOM      7  C   UNL     1       1.520   5.338  20.849  0.00  0.00    +0.000 A 
ATOM      8  C   UNL     1       1.815   4.052  20.394  0.00  0.00    +0.000 A 
ATOM      9  C   UNL     1       1.342   2.831  21.126  0.00  0.00    +0.000 C 
ATOM     10  C   UNL     1       2.561   3.898  19.219  0.00  0.00    +0.000 A 
ATOM     11  C   UNL     1       3.010   5.001  18.488  0.00  0.00    +0.000 A 
ATOM     12  C   UNL     1       2.733   6.284  18.975  0.00  0.00    +0.000 A 
ENDBRANCH   1  11
BRANCH   2  13
ATOM     13  C   UNL     1       5.700   4.701  15.813  0.00  0.00    +0.000 A 
ATOM     14  C   UNL     1       6.974   5.169  15.484  0.00  0.00    +0.000 A 
ATOM     15  C   UNL     1       7.480   4.951  14.194  0.00  0.00    +0.000 A 
ATOM     16  C   UNL     1       6.750   4.230  13.242  0.00  0.00    +0.000 A 
ATOM     17  C   UNL     1       5.455   3.822  13.561  0.00  0.00    +0.000 A 
ATOM     18  C   UNL     1       4.943   4.032  14.842  0.00  0.00    +0.000 A 
BRANCH  16  19
ATOM     19  N   UNL     1       7.215   4.114  11.929  0.00  0.00    +0.000 N 
ATOM     20  H   UNL     1       7.587   3.196  11.703  0.00  0.00    +0.000 HD
ATOM     21  H   UNL     1       6.549   4.434  11.231  0.00  0.00    +0.000 HD
ENDBRANCH  16  19
ENDBRANCH   2  13
TORSDOF 3
ENDMDL
MODEL 3
REMARK VINA RESULT:      -6.6      6.455      9.487
REMARK  Name = 
REMARK  5 active torsions:
REMARK  status: ('A' for Active; 'I' for Inactive)
REMARK    1  A    between atoms: C_1  and  C_2
REMARK    2  A    between atoms: C_4  and  C_5
REMARK    3  A    between atoms: C_7  and  N_8
REMARK    4  A    between atoms: C_9  and  C_11
REMARK    5  A    between atoms: C_14  and  N_15
REMARK                            x       y       z     vdW  Elec       q    Type
REMARK                         _______ _______ _______ _____ _____    ______ ____
ROOT
ATOM      1  N   UNL     1       2.258   6.676  20.181  0.00  0.00    +0.000 N 
ATOM      2  C   UNL     1       1.904   7.898  19.629  0.00  0.00    +0.000 C 
ATOM      3  O   UNL     1       2.132   8.268  18.481  0.00  0.00    +0.000 OA
ATOM      4  H   UNL     1       1.834   6.414  21.060  0.00  0.00    +0.000 HD
ENDROOT
BRANCH   1  11
ATOM      5  C   UNL     1       2.334   2.362  17.766  0.00  0.00    +0.000 C 
ATOM      6  C   UNL     1       3.060   3.550  18.327  0.00  0.00    +0.000 A 
ATOM      7  C   UNL     1       4.443   3.682  18.144  0.00  0.00    +0.000 A 
ATOM      8  C   UNL     1       5.122   4.788  18.658  0.00  0.00    +0.000 A 
ATOM      9  C   UNL     1       6.602   4.955  18.482  0.00  0.00    +0.000 C 
ATOM     10  C   UNL     1       4.400   5.773  19.346  0.00  0.00    +0.000 A 
ATOM     11  C   UNL     1       3.018   5.677  19.523  0.00  0.00    +0.000 A 
ATOM     12  C   UNL     1       2.357   4.546  19.029  0.00  0.00    +0.000 A 
ENDBRANCH   1  11
BRANCH   2  13
ATOM     13  C   UNL     1       1.119   8.831  20.485  0.00  0.00    +0.000 A 
ATOM     14  C   UNL     1       0.319   9.854  19.971  0.00  0.00    +0.000 A 
ATOM     15  C   UNL     1      -0.452  10.636  20.843  0.00  0.00    +0.000 A 
ATOM     16  C   UNL     1      -0.473  10.379  22.219  0.00  0.00    +0.000 A 
ATOM     17  C   UNL     1       0.377   9.397  22.729  0.00  0.00    +0.000 A 
ATOM     18  C   UNL     1       1.147   8.612  21.870  0.00  0.00    +0.000 A 
BRANCH  16  19
ATOM     19  N   UNL     1      -1.157  11.230  23.091  0.00  0.00    +0.000 N 
ATOM     20  H   UNL     1      -0.553  11.858  23.613  0.00  0.00    +0.000 HD
ATOM     21  H   UNL     1      -1.931  11.725  22.656  0.00  0.00    +0.000 HD
ENDBRANCH  16  19
ENDBRANCH   2  13
TORSDOF 3
ENDMDL
MODEL 4
REMARK VINA RESULT:      -6.6      6.797      8.402
REMARK  Name = 
REMARK  5 active torsions:
REMARK  status: ('A' for Active; 'I' for Inactive)
REMARK    1  A    between atoms: C_1  and  C_2
REMARK    2  A    between atoms: C_4  and  C_5
REMARK    3  A    between atoms: C_7  and  N_8
REMARK    4  A    between atoms: C_9  and  C_11
REMARK    5  A    between atoms: C_14  and  N_15
REMARK                            x       y       z     vdW  Elec       q    Type
REMARK                         _______ _______ _______ _____ _____    ______ ____
ROOT
ATOM      1  N   UNL     1       3.741   4.733  17.265  0.00  0.00    +0.000 N 
ATOM      2  C   UNL     1       5.112   4.551  17.170  0.00  0.00    +0.000 C 
ATOM      3  O   UNL     1       5.894   4.433  18.108  0.00  0.00    +0.000 OA
ATOM      4  H   UNL     1       3.188   4.608  16.429  0.00  0.00    +0.000 HD
ENDROOT
BRANCH   1  11
ATOM      5  C   UNL     1       1.696   7.787  20.574  0.00  0.00    +0.000 C 
ATOM      6  C   UNL     1       2.011   6.394  20.112  0.00  0.00    +0.000 A 
ATOM      7  C   UNL     1       1.552   5.288  20.841  0.00  0.00    +0.000 A 
ATOM      8  C   UNL     1       1.836   3.991  20.412  0.00  0.00    +0.000 A 
ATOM      9  C   UNL     1       1.361   2.789  21.173  0.00  0.00    +0.000 C 
ATOM     10  C   UNL     1       2.574   3.807  19.236  0.00  0.00    +0.000 A 
ATOM     11  C   UNL     1       3.025   4.890  18.478  0.00  0.00    +0.000 A 
ATOM     12  C   UNL     1       2.759   6.186  18.939  0.00  0.00    +0.000 A 
ENDBRANCH   1  11
BRANCH   2  13
ATOM     13  C   UNL     1       5.690   4.427  15.802  0.00  0.00    +0.000 A 
ATOM     14  C   UNL     1       5.036   3.782  14.750  0.00  0.00    +0.000 A 
ATOM     15  C   UNL     1       5.613   3.782  13.471  0.00  0.00    +0.000 A 
ATOM     16  C   UNL     1       6.812   4.458  13.218  0.00  0.00    +0.000 A 
ATOM     17  C   UNL     1       7.488   5.045  14.289  0.00  0.00    +0.000 A 
ATOM     18  C   UNL     1       6.921   5.053  15.563  0.00  0.00    +0.000 A 
BRANCH  16  19
ATOM     19  N   UNL     1       7.435   4.360  11.970  0.00  0.00    +0.000 N 
ATOM     20  H   UNL     1       6.790   4.223  11.198  0.00  0.00    +0.000 HD
ATOM     21  H   UNL     1       8.095   5.110  11.784  0.00  0.00    +0.000 HD
ENDBRANCH  16  19
ENDBRANCH   2  13
TORSDOF 3
ENDMDL
MODEL 5
REMARK VINA RESULT:      -6.6      6.608      9.392
REMARK  Name = 
REMARK  5 active torsions:
REMARK  status: ('A' for Active; 'I' for Inactive)
REMARK    1  A    between atoms: C_1  and  C_2
REMARK    2  A    between atoms: C_4  and  C_5
REMARK    3  A    between atoms: C_7  and  N_8
REMARK    4  A    between atoms: C_9  and  C_11
REMARK    5  A    between atoms: C_14  and  N_15
REMARK                            x       y       z     vdW  Elec       q    Type
REMARK                         _______ _______ _______ _____ _____    ______ ____
ROOT
ATOM      1  N   UNL     1       2.280   7.007  19.385  0.00  0.00    +0.000 N 
ATOM      2  C   UNL     1       1.779   8.232  18.973  0.00  0.00    +0.000 C 
ATOM      3  O   UNL     1       1.791   8.672  17.827  0.00  0.00    +0.000 OA
ATOM      4  H   UNL     1       2.024   6.675  20.304  0.00  0.00    +0.000 HD
ENDROOT
BRANCH   1  11
ATOM      5  C   UNL     1       2.585   2.433  17.528  0.00  0.00    +0.000 C 
ATOM      6  C   UNL     1       3.118   3.833  17.629  0.00  0.00    +0.000 A 
ATOM      7  C   UNL     1       4.228   4.222  16.867  0.00  0.00    +0.000 A 
ATOM      8  C   UNL     1       4.723   5.524  16.952  0.00  0.00    +0.000 A 
ATOM      9  C   UNL     1       5.911   5.968  16.151  0.00  0.00    +0.000 C 
ATOM     10  C   UNL     1       4.087   6.442  17.797  0.00  0.00    +0.000 A 
ATOM     11  C   UNL     1       2.965   6.088  18.551  0.00  0.00    +0.000 A 
ATOM     12  C   UNL     1       2.500   4.769  18.478  0.00  0.00    +0.000 A 
ENDBRANCH   1  11
BRANCH   2  13
ATOM     13  C   UNL     1       1.105   9.074  20.002  0.00  0.00    +0.000 A 
ATOM     14  C   UNL     1       0.465  10.279  19.706  0.00  0.00    +0.000 A 
ATOM     15  C   UNL     1      -0.216  10.969  20.720  0.00  0.00    +0.000 A 
ATOM     16  C   UNL     1      -0.307  10.446  22.015  0.00  0.00    +0.000 A 
ATOM     17  C   UNL     1       0.388   9.274  22.315  0.00  0.00    +0.000 A 
ATOM     18  C   UNL     1       1.066   8.579  21.313  0.00  0.00    +0.000 A 
BRANCH  16  19
ATOM     19  N   UNL     1      -0.892  11.191  23.044  0.00  0.00    +0.000 N 
ATOM     20  H   UNL     1      -1.901  11.096  23.099  0.00  0.00    +0.000 HD
ATOM     21  H   UNL     1      -0.449  11.057  23.948  0.00  0.00    +0.000 HD
ENDBRANCH  16  19
ENDBRANCH   2  13
TORSDOF 3
ENDMDL
MODEL 6
REMARK VINA RESULT:      -6.6      6.730      8.294
REMARK  Name = 
REMARK  5 active torsions:
REMARK  status: ('A' for Active; 'I' for Inactive)
REMARK    1  A    between atoms: C_1  and  C_2
REMARK    2  A    between atoms: C_4  and  C_5
REMARK    3  A    between atoms: C_7  and  N_8
REMARK    4  A    between atoms: C_9  and  C_11
REMARK    5  A    between atoms: C_14  and  N_15
REMARK                            x       y       z     vdW  Elec       q    Type
REMARK                         _______ _______ _______ _____ _____    ______ ____
ROOT
ATOM      1  N   UNL     1       3.683   4.862  17.248  0.00  0.00    +0.000 N 
ATOM      2  C   UNL     1       5.058   4.995  17.139  0.00  0.00    +0.000 C 
ATOM      3  O   UNL     1       5.841   5.206  18.060  0.00  0.00    +0.000 OA
ATOM      4  H   UNL     1       3.179   4.486  16.456  0.00  0.00    +0.000 HD
ENDROOT
BRANCH   1  11
ATOM      5  C   UNL     1       1.350   2.771  21.074  0.00  0.00    +0.000 C 
ATOM      6  C   UNL     1       1.793   4.001  20.337  0.00  0.00    +0.000 A 
ATOM      7  C   UNL     1       1.527   5.273  20.864  0.00  0.00    +0.000 A 
ATOM      8  C   UNL     1       1.944   6.420  20.187  0.00  0.00    +0.000 A 
ATOM      9  C   UNL     1       1.671   7.794  20.723  0.00  0.00    +0.000 C 
ATOM     10  C   UNL     1       2.645   6.285  18.981  0.00  0.00    +0.000 A 
ATOM     11  C   UNL     1       2.943   5.029  18.445  0.00  0.00    +0.000 A 
ATOM     12  C   UNL     1       2.490   3.889  19.121  0.00  0.00    +0.000 A 
ENDBRANCH   1  11
BRANCH   2  13
ATOM     13  C   UNL     1       5.657   4.804  15.788  0.00  0.00    +0.000 A 
ATOM     14  C   UNL     1       6.960   5.189  15.466  0.00  0.00    +0.000 A 
ATOM     15  C   UNL     1       7.474   4.898  14.194  0.00  0.00    +0.000 A 
ATOM     16  C   UNL     1       6.721   4.184  13.255  0.00  0.00    +0.000 A 
ATOM     17  C   UNL     1       5.400   3.858  13.564  0.00  0.00    +0.000 A 
ATOM     18  C   UNL     1       4.880   4.142  14.827  0.00  0.00    +0.000 A 
BRANCH  16  19
ATOM     19  N   UNL     1       7.200   3.994  11.955  0.00  0.00    +0.000 N 
ATOM     20  H   UNL     1       6.630   4.433  11.238  0.00  0.00    +0.000 HD
ATOM     21  H   UNL     1       8.185   4.220  11.846  0.00  0.00    +0.000 HD
ENDBRANCH  16  19
ENDBRANCH   2  13
TORSDOF 3
ENDMDL
MODEL 7
REMARK VINA RESULT:      -6.5      6.420      9.434
REMARK  Name = 
REMARK  5 active torsions:
REMARK  status: ('A' for Active; 'I' for Inactive)
REMARK    1  A    between atoms: C_1  and  C_2
REMARK    2  A    between atoms: C_4  and  C_5
REMARK    3  A    between atoms: C_7  and  N_8
REMARK    4  A    between atoms: C_9  and  C_11
REMARK    5  A    between atoms: C_14  and  N_15
REMARK                            x       y       z     vdW  Elec       q    Type
REMARK                         _______ _______ _______ _____ _____    ______ ____
ROOT
ATOM      1  N   UNL     1       2.234   6.593  20.251  0.00  0.00    +0.000 N 
ATOM      2  C   UNL     1       1.889   7.844  19.763  0.00  0.00    +0.000 C 
ATOM      3  O   UNL     1       2.143   8.281  18.644  0.00  0.00    +0.000 OA
ATOM      4  H   UNL     1       1.791   6.278  21.102  0.00  0.00    +0.000 HD
ENDROOT
BRANCH   1  11
ATOM      5  C   UNL     1       2.399   2.371  17.681  0.00  0.00    +0.000 C 
ATOM      6  C   UNL     1       3.100   3.555  18.281  0.00  0.00    +0.000 A 
ATOM      7  C   UNL     1       4.479   3.727  18.097  0.00  0.00    +0.000 A 
ATOM      8  C   UNL     1       5.134   4.830  18.647  0.00  0.00    +0.000 A 
ATOM      9  C   UNL     1       6.608   5.038  18.470  0.00  0.00    +0.000 C 
ATOM     10  C   UNL     1       4.393   5.771  19.373  0.00  0.00    +0.000 A 
ATOM     11  C   UNL     1       3.014   5.637  19.553  0.00  0.00    +0.000 A 
ATOM     12  C   UNL     1       2.377   4.508  19.022  0.00  0.00    +0.000 A 
ENDBRANCH   1  11
BRANCH   2  13
ATOM     13  C   UNL     1       1.080   8.723  20.653  0.00  0.00    +0.000 A 
ATOM     14  C   UNL     1       1.072   8.604  22.045  0.00  0.00    +0.000 A 
ATOM     15  C   UNL     1       0.346   9.526  22.815  0.00  0.00    +0.000 A 
ATOM     16  C   UNL     1      -0.332  10.594  22.216  0.00  0.00    +0.000 A 
ATOM     17  C   UNL     1      -0.369  10.667  20.823  0.00  0.00    +0.000 A 
ATOM     18  C   UNL     1       0.351   9.756  20.049  0.00  0.00    +0.000 A 
BRANCH  16  19
ATOM     19  N   UNL     1      -1.140  11.441  22.980  0.00  0.00    +0.000 N 
ATOM     20  H   UNL     1      -1.116  11.246  23.976  0.00  0.00    +0.000 HD
ATOM     21  H   UNL     1      -0.997  12.428  22.783  0.00  0.00    +0.000 HD
ENDBRANCH  16  19
ENDBRANCH   2  13
TORSDOF 3
ENDMDL
MODEL 8
REMARK VINA RESULT:      -6.5      6.804      8.382
REMARK  Name = 
REMARK  5 active torsions:
REMARK  status: ('A' for Active; 'I' for Inactive)
REMARK    1  A    between atoms: C_1  and  C_2
REMARK    2  A    between atoms: C_4  and  C_5
REMARK    3  A    between atoms: C_7  and  N_8
REMARK    4  A    between atoms: C_9  and  C_11
REMARK    5  A    between atoms: C_14  and  N_15
REMARK                            x       y       z     vdW  Elec       q    Type
REMARK                         _______ _______ _______ _____ _____    ______ ____
ROOT
ATOM      1  N   UNL     1       3.673   4.847  17.194  0.00  0.00    +0.000 N 
ATOM      2  C   UNL     1       5.034   4.589  17.130  0.00  0.00    +0.000 C 
ATOM      3  O   UNL     1       5.784   4.413  18.085  0.00  0.00    +0.000 OA
ATOM      4  H   UNL     1       3.135   4.766  16.343  0.00  0.00    +0.000 HD
ENDROOT
BRANCH   1  11
ATOM      5  C   UNL     1       1.350   2.804  21.052  0.00  0.00    +0.000 C 
ATOM      6  C   UNL     1       1.792   4.026  20.299  0.00  0.00    +0.000 A 
ATOM      7  C   UNL     1       1.528   5.303  20.811  0.00  0.00    +0.000 A 
ATOM      8  C   UNL     1       1.944   6.442  20.119  0.00  0.00    +0.000 A 
ATOM      9  C   UNL     1       1.673   7.822  20.639  0.00  0.00    +0.000 C 
ATOM     10  C   UNL     1       2.641   6.291  18.913  0.00  0.00    +0.000 A 
ATOM     11  C   UNL     1       2.937   5.029  18.392  0.00  0.00    +0.000 A 
ATOM     12  C   UNL     1       2.486   3.898  19.082  0.00  0.00    +0.000 A 
ENDBRANCH   1  11
BRANCH   2  13
ATOM     13  C   UNL     1       5.638   4.450  15.775  0.00  0.00    +0.000 A 
ATOM     14  C   UNL     1       5.013   3.776  14.723  0.00  0.00    +0.000 A 
ATOM     15  C   UNL     1       5.614   3.762  13.455  0.00  0.00    +0.000 A 
ATOM     16  C   UNL     1       6.806   4.454  13.212  0.00  0.00    +0.000 A 
ATOM     17  C   UNL     1       7.452   5.071  14.283  0.00  0.00    +0.000 A 
ATOM     18  C   UNL     1       6.863   5.092  15.547  0.00  0.00    +0.000 A 
BRANCH  16  19
ATOM     19  N   UNL     1       7.452   4.344  11.977  0.00  0.00    +0.000 N 
ATOM     20  H   UNL     1       7.979   3.483  11.862  0.00  0.00    +0.000 HD
ATOM     21  H   UNL     1       6.846   4.526  11.182  0.00  0.00    +0.000 HD
ENDBRANCH  16  19
ENDBRANCH   2  13
TORSDOF 3
ENDMDL
MODEL 9
REMARK VINA RESULT:      -6.5      5.940      7.932
REMARK  Name = 
REMARK  5 active torsions:
REMARK  status: ('A' for Active; 'I' for Inactive)
REMARK    1  A    between atoms: C_1  and  C_2
REMARK    2  A    between atoms: C_4  and  C_5
REMARK    3  A    between atoms: C_7  and  N_8
REMARK    4  A    between atoms: C_9  and  C_11
REMARK    5  A    between atoms: C_14  and  N_15
REMARK                            x       y       z     vdW  Elec       q    Type
REMARK                         _______ _______ _______ _____ _____    ______ ____
ROOT
ATOM      1  N   UNL     1       2.703   8.104  18.237  0.00  0.00    +0.000 N 
ATOM      2  C   UNL     1       2.898   6.732  18.209  0.00  0.00    +0.000 C 
ATOM      3  O   UNL     1       2.140   5.883  18.670  0.00  0.00    +0.000 OA
ATOM      4  H   UNL     1       3.290   8.678  17.647  0.00  0.00    +0.000 HD
ENDROOT
BRANCH   1  11
ATOM      5  C   UNL     1      -1.377  10.868  17.832  0.00  0.00    +0.000 C 
ATOM      6  C   UNL     1      -0.395  10.119  18.684  0.00  0.00    +0.000 A 
ATOM      7  C   UNL     1      -0.588  10.028  20.069  0.00  0.00    +0.000 A 
ATOM      8  C   UNL     1       0.319   9.327  20.865  0.00  0.00    +0.000 A 
ATOM      9  C   UNL     1       0.140   9.216  22.350  0.00  0.00    +0.000 C 
ATOM     10  C   UNL     1       1.418   8.703  20.261  0.00  0.00    +0.000 A 
ATOM     11  C   UNL     1       1.622   8.758  18.880  0.00  0.00    +0.000 A 
ATOM     12  C   UNL     1       0.720   9.492  18.099  0.00  0.00    +0.000 A 
ENDBRANCH   1  11
BRANCH   2  13
ATOM     13  C   UNL     1       4.109   6.230  17.502  0.00  0.00    +0.000 A 
ATOM     14  C   UNL     1       5.254   7.003  17.299  0.00  0.00    +0.000 A 
ATOM     15  C   UNL     1       6.382   6.427  16.696  0.00  0.00    +0.000 A 
ATOM     16  C   UNL     1       6.398   5.074  16.336  0.00  0.00    +0.000 A 
ATOM     17  C   UNL     1       5.229   4.328  16.485  0.00  0.00    +0.000 A 
ATOM     18  C   UNL     1       4.103   4.891  17.086  0.00  0.00    +0.000 A 
BRANCH  16  19
ATOM     19  N   UNL     1       7.484   4.537  15.637  0.00  0.00    +0.000 N 
ATOM     20  H   UNL     1       7.321   3.602  15.277  0.00  0.00    +0.000 HD
ATOM     21  H   UNL     1       7.856   5.158  14.924  0.00  0.00    +0.000 HD
ENDBRANCH  16  19
ENDBRANCH   2  13
TORSDOF 3
ENDMDL
