MODEL 1
REMARK VINA RESULT:      -8.3      0.000      0.000
REMARK  Name = 
REMARK  7 active torsions:
REMARK  status: ('A' for Active; 'I' for Inactive)
REMARK    1  A    between atoms: C_2  and  N_3
REMARK    2  A    between atoms: C_2  and  N_12
REMARK    3  A    between atoms: N_3  and  C_4
REMARK    4  A    between atoms: C_4  and  C_5
REMARK    5  A    between atoms: C_5  and  N_6
REMARK    6  A    between atoms: N_12  and  C_13
REMARK    7  A    between atoms: N_21  and  C_22
REMARK                            x       y       z     vdW  Elec       q    Type
REMARK                         _______ _______ _______ _____ _____    ______ ____
ROOT
ATOM      1  C   UNL     1       2.243   6.883  19.802  0.00  0.00    +0.000 A 
ATOM      2  C   UNL     1       2.733   6.978  18.501  0.00  0.00    +0.000 A 
ATOM      3  C   UNL     1       2.578   8.162  17.781  0.00  0.00    +0.000 A 
ATOM      4  C   UNL     1       1.955   9.271  18.332  0.00  0.00    +0.000 A 
ATOM      5  N   UNL     1       1.933  10.397  17.620  0.00  0.00    +0.000 NA
ATOM      6  C   UNL     1       1.363  11.455  18.199  0.00  0.00    +0.000 A 
ATOM      7  N   UNL     1       0.805  11.482  19.410  0.00  0.00    +0.000 NA
ATOM      8  C   UNL     1       0.817  10.341  20.123  0.00  0.00    +0.000 A 
ATOM      9  N   UNL     1       0.256  10.330  21.432  0.00  0.00    +0.000 N 
ATOM     10  C   UNL     1       1.399   9.164  19.616  0.00  0.00    +0.000 A 
ATOM     11  C   UNL     1       1.494   7.938  20.317  0.00  0.00    +0.000 A 
ATOM     12  H   UNL     1       0.927   9.918  22.071  0.00  0.00    +0.000 HD
ENDROOT
BRANCH   9  13
ATOM     13  C   UNL     1      -0.471  11.367  22.068  0.00  0.00    +0.000 A 
ATOM     14  C   UNL     1      -1.548  11.118  22.928  0.00  0.00    +0.000 A 
ATOM     15  C   UNL     1      -2.246  12.164  23.534  0.00  0.00    +0.000 A 
ATOM     16  C   UNL     1      -1.843  13.482  23.334  0.00  0.00    +0.000 A 
ATOM     17 CL   UNL     1      -2.763  14.729  24.095  0.00  0.00    +0.000 Cl
ATOM     18  C   UNL     1      -0.723  13.746  22.543  0.00  0.00    +0.000 A 
ATOM     19 CL   UNL     1      -0.131  15.350  22.285  0.00  0.00    +0.000 Cl
ATOM     20  C   UNL     1      -0.035  12.693  21.925  0.00  0.00    +0.000 A 
ENDBRANCH   9  13
BRANCH   1  21
ATOM     21  N   UNL     1       2.474   5.780  20.637  0.00  0.00    +0.000 N 
ATOM     22  H   UNL     1       2.544   5.959  21.633  0.00  0.00    +0.000 HD
BRANCH  21  24
ATOM     23  S   UNL     1       2.050   3.318  21.371  0.00  0.00    +0.000 S 
ATOM     24  C   UNL     1       2.665   4.462  20.318  0.00  0.00    +0.000 C 
BRANCH  24  25
ATOM     25  N   UNL     1       3.429   4.193  19.213  0.00  0.00    +0.000 N 
ATOM     26  H   UNL     1       2.928   3.914  18.383  0.00  0.00    +0.000 HD
BRANCH  25  27
ATOM     27  C   UNL     1       4.859   3.924  19.233  0.00  0.00    +0.000 C 
BRANCH  27  28
ATOM     28  C   UNL     1       5.719   5.204  19.251  0.00  0.00    +0.000 C 
BRANCH  28  29
ATOM     29  N   UNL     1       7.096   4.985  18.769  0.00  0.00    +0.000 NA
ATOM     30  C   UNL     1       7.907   6.222  18.840  0.00  0.00    +0.000 C 
ATOM     31  C   UNL     1       7.593   7.254  17.741  0.00  0.00    +0.000 C 
ATOM     32  O   UNL     1       7.618   6.682  16.425  0.00  0.00    +0.000 OA
ATOM     33  C   UNL     1       6.763   5.537  16.340  0.00  0.00    +0.000 C 
ATOM     34  C   UNL     1       7.172   4.484  17.380  0.00  0.00    +0.000 C 
ENDBRANCH  28  29
ENDBRANCH  27  28
ENDBRANCH  25  27
ENDBRANCH  24  25
ENDBRANCH  21  24
ENDBRANCH   1  21
TORSDOF 7
ENDMDL
MODEL 2
REMARK VINA RESULT:      -8.3      1.499      2.034
REMARK  Name = 
REMARK  7 active torsions:
REMARK  status: ('A' for Active; 'I' for Inactive)
REMARK    1  A    between atoms: C_2  and  N_3
REMARK    2  A    between atoms: C_2  and  N_12
REMARK    3  A    between atoms: N_3  and  C_4
REMARK    4  A    between atoms: C_4  and  C_5
REMARK    5  A    between atoms: C_5  and  N_6
REMARK    6  A    between atoms: N_12  and  C_13
REMARK    7  A    between atoms: N_21  and  C_22
REMARK                            x       y       z     vdW  Elec       q    Type
REMARK                         _______ _______ _______ _____ _____    ______ ____
ROOT
ATOM      1  C   UNL     1       1.657   8.010  20.022  0.00  0.00    +0.000 A 
ATOM      2  C   UNL     1       2.104   8.216  18.719  0.00  0.00    +0.000 A 
ATOM      3  C   UNL     1       1.901   9.448  18.097  0.00  0.00    +0.000 A 
ATOM      4  C   UNL     1       1.271  10.496  18.750  0.00  0.00    +0.000 A 
ATOM      5  N   UNL     1       1.202  11.672  18.128  0.00  0.00    +0.000 NA
ATOM      6  C   UNL     1       0.627  12.668  18.804  0.00  0.00    +0.000 A 
ATOM      7  N   UNL     1       0.106  12.589  20.028  0.00  0.00    +0.000 NA
ATOM      8  C   UNL     1       0.165  11.398  20.651  0.00  0.00    +0.000 A 
ATOM      9  N   UNL     1      -0.355  11.273  21.971  0.00  0.00    +0.000 N 
ATOM     10  C   UNL     1       0.757  10.277  20.037  0.00  0.00    +0.000 A 
ATOM     11  C   UNL     1       0.901   9.004  20.639  0.00  0.00    +0.000 A 
ATOM     12  H   UNL     1       0.344  10.829  22.557  0.00  0.00    +0.000 HD
ENDROOT
BRANCH   9  13
ATOM     13  C   UNL     1      -1.085  12.240  22.705  0.00  0.00    +0.000 A 
ATOM     14  C   UNL     1      -0.639  13.557  22.872  0.00  0.00    +0.000 A 
ATOM     15  C   UNL     1      -1.382  14.484  23.606  0.00  0.00    +0.000 A 
ATOM     16  C   UNL     1      -2.616  14.124  24.142  0.00  0.00    +0.000 A 
ATOM     17 CL   UNL     1      -3.473  15.311  25.057  0.00  0.00    +0.000 Cl
ATOM     18  C   UNL     1      -3.115  12.839  23.918  0.00  0.00    +0.000 A 
ATOM     19 CL   UNL     1      -4.659  12.331  24.509  0.00  0.00    +0.000 Cl
ATOM     20  C   UNL     1      -2.358  11.908  23.194  0.00  0.00    +0.000 A 
ENDBRANCH   9  13
BRANCH   1  21
ATOM     21  N   UNL     1       1.938   6.852  20.763  0.00  0.00    +0.000 N 
ATOM     22  H   UNL     1       1.875   6.921  21.773  0.00  0.00    +0.000 HD
BRANCH  21  24
ATOM     23  S   UNL     1       1.216   4.372  20.436  0.00  0.00    +0.000 S 
ATOM     24  C   UNL     1       2.333   5.612  20.337  0.00  0.00    +0.000 C 
BRANCH  24  25
ATOM     25  N   UNL     1       3.641   5.472  19.957  0.00  0.00    +0.000 N 
ATOM     26  H   UNL     1       4.126   6.321  19.707  0.00  0.00    +0.000 HD
BRANCH  25  27
ATOM     27  C   UNL     1       4.261   4.222  19.542  0.00  0.00    +0.000 C 
BRANCH  27  28
ATOM     28  C   UNL     1       4.855   4.280  18.121  0.00  0.00    +0.000 C 
BRANCH  28  29
ATOM     29  N   UNL     1       5.905   5.305  17.972  0.00  0.00    +0.000 NA
ATOM     30  C   UNL     1       5.421   6.482  17.214  0.00  0.00    +0.000 C 
ATOM     31  C   UNL     1       5.302   6.258  15.695  0.00  0.00    +0.000 C 
ATOM     32  O   UNL     1       6.502   5.719  15.122  0.00  0.00    +0.000 OA
ATOM     33  C   UNL     1       6.917   4.531  15.806  0.00  0.00    +0.000 C 
ATOM     34  C   UNL     1       7.128   4.818  17.299  0.00  0.00    +0.000 C 
ENDBRANCH  28  29
ENDBRANCH  27  28
ENDBRANCH  25  27
ENDBRANCH  24  25
ENDBRANCH  21  24
ENDBRANCH   1  21
TORSDOF 7
ENDMDL
MODEL 3
REMARK VINA RESULT:      -8.2      3.302      5.350
REMARK  Name = 
REMARK  7 active torsions:
REMARK  status: ('A' for Active; 'I' for Inactive)
REMARK    1  A    between atoms: C_2  and  N_3
REMARK    2  A    between atoms: C_2  and  N_12
REMARK    3  A    between atoms: N_3  and  C_4
REMARK    4  A    between atoms: C_4  and  C_5
REMARK    5  A    between atoms: C_5  and  N_6
REMARK    6  A    between atoms: N_12  and  C_13
REMARK    7  A    between atoms: N_21  and  C_22
REMARK                            x       y       z     vdW  Elec       q    Type
REMARK                         _______ _______ _______ _____ _____    ______ ____
ROOT
ATOM      1  C   UNL     1       5.489   5.123  18.749  0.00  0.00    +0.000 A 
ATOM      2  C   UNL     1       5.302   3.742  18.739  0.00  0.00    +0.000 A 
ATOM      3  C   UNL     1       4.110   3.196  19.217  0.00  0.00    +0.000 A 
ATOM      4  C   UNL     1       3.084   3.997  19.694  0.00  0.00    +0.000 A 
ATOM      5  N   UNL     1       1.939   3.409  20.040  0.00  0.00    +0.000 NA
ATOM      6  C   UNL     1       0.960   4.215  20.454  0.00  0.00    +0.000 A 
ATOM      7  N   UNL     1       1.029   5.541  20.567  0.00  0.00    +0.000 NA
ATOM      8  C   UNL     1       2.190   6.133  20.229  0.00  0.00    +0.000 A 
ATOM      9  N   UNL     1       2.301   7.550  20.308  0.00  0.00    +0.000 N 
ATOM     10  C   UNL     1       3.289   5.383  19.770  0.00  0.00    +0.000 A 
ATOM     11  C   UNL     1       4.527   5.929  19.353  0.00  0.00    +0.000 A 
ATOM     12  H   UNL     1       2.674   7.898  19.432  0.00  0.00    +0.000 HD
ENDROOT
BRANCH   9  13
ATOM     13  C   UNL     1       1.359   8.460  20.850  0.00  0.00    +0.000 A 
ATOM     14  C   UNL     1       1.245   8.701  22.224  0.00  0.00    +0.000 A 
ATOM     15  C   UNL     1       0.302   9.601  22.725  0.00  0.00    +0.000 A 
ATOM     16  C   UNL     1      -0.510  10.321  21.852  0.00  0.00    +0.000 A 
ATOM     17 CL   UNL     1      -1.669  11.401  22.536  0.00  0.00    +0.000 Cl
ATOM     18  C   UNL     1      -0.356  10.154  20.473  0.00  0.00    +0.000 A 
ATOM     19 CL   UNL     1      -1.292  11.044  19.324  0.00  0.00    +0.000 Cl
ATOM     20  C   UNL     1       0.581   9.237  19.978  0.00  0.00    +0.000 A 
ENDBRANCH   9  13
BRANCH   1  21
ATOM     21  N   UNL     1       6.597   5.758  18.167  0.00  0.00    +0.000 N 
ATOM     22  H   UNL     1       7.467   5.743  18.688  0.00  0.00    +0.000 HD
BRANCH  21  24
ATOM     23  S   UNL     1       6.023   5.749  15.627  0.00  0.00    +0.000 S 
ATOM     24  C   UNL     1       6.693   6.450  16.989  0.00  0.00    +0.000 C 
BRANCH  24  25
ATOM     25  N   UNL     1       7.417   7.613  17.008  0.00  0.00    +0.000 N 
ATOM     26  H   UNL     1       7.659   8.001  16.108  0.00  0.00    +0.000 HD
BRANCH  25  27
ATOM     27  C   UNL     1       8.154   8.118  18.156  0.00  0.00    +0.000 C 
BRANCH  27  28
ATOM     28  C   UNL     1       8.281   9.655  18.169  0.00  0.00    +0.000 C 
BRANCH  28  29
ATOM     29  N   UNL     1       9.594  10.125  18.648  0.00  0.00    +0.000 NA
ATOM     30  C   UNL     1       9.528  10.619  20.043  0.00  0.00    +0.000 C 
ATOM     31  C   UNL     1       8.877  12.007  20.198  0.00  0.00    +0.000 C 
ATOM     32  O   UNL     1       9.450  12.985  19.319  0.00  0.00    +0.000 OA
ATOM     33  C   UNL     1       9.432  12.537  17.959  0.00  0.00    +0.000 C 
ATOM     34  C   UNL     1      10.181  11.204  17.823  0.00  0.00    +0.000 C 
ENDBRANCH  28  29
ENDBRANCH  27  28
ENDBRANCH  25  27
ENDBRANCH  24  25
ENDBRANCH  21  24
ENDBRANCH   1  21
TORSDOF 7
ENDMDL
MODEL 4
REMARK VINA RESULT:      -8.1      5.727     10.333
REMARK  Name = 
REMARK  7 active torsions:
REMARK  status: ('A' for Active; 'I' for Inactive)
REMARK    1  A    between atoms: C_2  and  N_3
REMARK    2  A    between atoms: C_2  and  N_12
REMARK    3  A    between atoms: N_3  and  C_4
REMARK    4  A    between atoms: C_4  and  C_5
REMARK    5  A    between atoms: C_5  and  N_6
REMARK    6  A    between atoms: N_12  and  C_13
REMARK    7  A    between atoms: N_21  and  C_22
REMARK                            x       y       z     vdW  Elec       q    Type
REMARK                         _______ _______ _______ _____ _____    ______ ____
ROOT
ATOM      1  C   UNL     1       2.139   6.670  20.012  0.00  0.00    +0.000 A 
ATOM      2  C   UNL     1       1.513   5.712  20.807  0.00  0.00    +0.000 A 
ATOM      3  C   UNL     1       1.675   4.356  20.524  0.00  0.00    +0.000 A 
ATOM      4  C   UNL     1       2.464   3.923  19.469  0.00  0.00    +0.000 A 
ATOM      5  N   UNL     1       2.651   2.612  19.322  0.00  0.00    +0.000 NA
ATOM      6  C   UNL     1       3.449   2.235  18.322  0.00  0.00    +0.000 A 
ATOM      7  N   UNL     1       4.059   3.044  17.455  0.00  0.00    +0.000 NA
ATOM      8  C   UNL     1       3.860   4.367  17.597  0.00  0.00    +0.000 A 
ATOM      9  N   UNL     1       4.513   5.271  16.711  0.00  0.00    +0.000 N 
ATOM     10  C   UNL     1       3.043   4.881  18.623  0.00  0.00    +0.000 A 
ATOM     11  C   UNL     1       2.818   6.257  18.869  0.00  0.00    +0.000 A 
ATOM     12  H   UNL     1       4.976   5.988  17.259  0.00  0.00    +0.000 HD
ENDROOT
BRANCH   9  13
ATOM     13  C   UNL     1       5.272   4.951  15.558  0.00  0.00    +0.000 A 
ATOM     14  C   UNL     1       6.660   5.121  15.497  0.00  0.00    +0.000 A 
ATOM     15  C   UNL     1       7.377   4.799  14.342  0.00  0.00    +0.000 A 
ATOM     16  C   UNL     1       6.723   4.248  13.244  0.00  0.00    +0.000 A 
ATOM     17 CL   UNL     1       7.664   3.894  11.841  0.00  0.00    +0.000 Cl
ATOM     18  C   UNL     1       5.351   3.997  13.315  0.00  0.00    +0.000 A 
ATOM     19 CL   UNL     1       4.475   3.272  12.012  0.00  0.00    +0.000 Cl
ATOM     20  C   UNL     1       4.634   4.336  14.470  0.00  0.00    +0.000 A 
ENDBRANCH   9  13
BRANCH   1  21
ATOM     21  N   UNL     1       2.136   8.042  20.307  0.00  0.00    +0.000 N 
ATOM     22  H   UNL     1       3.037   8.491  20.431  0.00  0.00    +0.000 HD
BRANCH  21  24
ATOM     23  S   UNL     1       0.386   8.929  22.019  0.00  0.00    +0.000 S 
ATOM     24  C   UNL     1       1.084   8.896  20.500  0.00  0.00    +0.000 C 
BRANCH  24  25
ATOM     25  N   UNL     1       0.629   9.581  19.404  0.00  0.00    +0.000 N 
ATOM     26  H   UNL     1       1.336   9.952  18.786  0.00  0.00    +0.000 HD
BRANCH  25  27
ATOM     27  C   UNL     1      -0.715  10.118  19.254  0.00  0.00    +0.000 C 
BRANCH  27  28
ATOM     28  C   UNL     1      -1.095  10.408  17.788  0.00  0.00    +0.000 C 
BRANCH  28  29
ATOM     29  N   UNL     1      -2.257   9.628  17.323  0.00  0.00    +0.000 NA
ATOM     30  C   UNL     1      -2.503   9.815  15.875  0.00  0.00    +0.000 C 
ATOM     31  C   UNL     1      -3.150  11.163  15.506  0.00  0.00    +0.000 C 
ATOM     32  O   UNL     1      -4.326  11.438  16.280  0.00  0.00    +0.000 OA
ATOM     33  C   UNL     1      -4.060  11.341  17.684  0.00  0.00    +0.000 C 
ATOM     34  C   UNL     1      -3.516   9.948  18.031  0.00  0.00    +0.000 C 
ENDBRANCH  28  29
ENDBRANCH  27  28
ENDBRANCH  25  27
ENDBRANCH  24  25
ENDBRANCH  21  24
ENDBRANCH   1  21
TORSDOF 7
ENDMDL
MODEL 5
REMARK VINA RESULT:      -8.1      5.585     10.286
REMARK  Name = 
REMARK  7 active torsions:
REMARK  status: ('A' for Active; 'I' for Inactive)
REMARK    1  A    between atoms: C_2  and  N_3
REMARK    2  A    between atoms: C_2  and  N_12
REMARK    3  A    between atoms: N_3  and  C_4
REMARK    4  A    between atoms: C_4  and  C_5
REMARK    5  A    between atoms: C_5  and  N_6
REMARK    6  A    between atoms: N_12  and  C_13
REMARK    7  A    between atoms: N_21  and  C_22
REMARK                            x       y       z     vdW  Elec       q    Type
REMARK                         _______ _______ _______ _____ _____    ______ ____
ROOT
ATOM      1  C   UNL     1       2.060   6.160  20.313  0.00  0.00    +0.000 A 
ATOM      2  C   UNL     1       1.364   5.136  20.953  0.00  0.00    +0.000 A 
ATOM      3  C   UNL     1       1.479   3.823  20.496  0.00  0.00    +0.000 A 
ATOM      4  C   UNL     1       2.288   3.496  19.419  0.00  0.00    +0.000 A 
ATOM      5  N   UNL     1       2.425   2.209  19.104  0.00  0.00    +0.000 NA
ATOM      6  C   UNL     1       3.244   1.930  18.088  0.00  0.00    +0.000 A 
ATOM      7  N   UNL     1       3.920   2.816  17.357  0.00  0.00    +0.000 NA
ATOM      8  C   UNL     1       3.772   4.117  17.669  0.00  0.00    +0.000 A 
ATOM      9  N   UNL     1       4.496   5.098  16.933  0.00  0.00    +0.000 N 
ATOM     10  C   UNL     1       2.940   4.529  18.727  0.00  0.00    +0.000 A 
ATOM     11  C   UNL     1       2.764   5.869  19.147  0.00  0.00    +0.000 A 
ATOM     12  H   UNL     1       4.968   5.714  17.586  0.00  0.00    +0.000 HD
ENDROOT
BRANCH   9  13
ATOM     13  C   UNL     1       5.284   4.898  15.772  0.00  0.00    +0.000 A 
ATOM     14  C   UNL     1       6.662   5.143  15.743  0.00  0.00    +0.000 A 
ATOM     15  C   UNL     1       7.408   4.939  14.580  0.00  0.00    +0.000 A 
ATOM     16  C   UNL     1       6.797   4.432  13.437  0.00  0.00    +0.000 A 
ATOM     17 CL   UNL     1       7.771   4.224  12.027  0.00  0.00    +0.000 Cl
ATOM     18  C   UNL     1       5.439   4.106  13.470  0.00  0.00    +0.000 A 
ATOM     19 CL   UNL     1       4.618   3.427  12.108  0.00  0.00    +0.000 Cl
ATOM     20  C   UNL     1       4.692   4.327  14.635  0.00  0.00    +0.000 A 
ENDBRANCH   9  13
BRANCH   1  21
ATOM     21  N   UNL     1       2.105   7.479  20.789  0.00  0.00    +0.000 N 
ATOM     22  H   UNL     1       2.866   7.722  21.413  0.00  0.00    +0.000 HD
BRANCH  21  24
ATOM     23  S   UNL     1       0.241   8.965  21.837  0.00  0.00    +0.000 S 
ATOM     24  C   UNL     1       1.240   8.519  20.573  0.00  0.00    +0.000 C 
BRANCH  24  25
ATOM     25  N   UNL     1       1.200   9.043  19.308  0.00  0.00    +0.000 N 
ATOM     26  H   UNL     1       1.796   8.601  18.624  0.00  0.00    +0.000 HD
BRANCH  25  27
ATOM     27  C   UNL     1       0.678  10.357  18.965  0.00  0.00    +0.000 C 
BRANCH  27  28
ATOM     28  C   UNL     1      -0.802  10.330  18.533  0.00  0.00    +0.000 C 
BRANCH  28  29
ATOM     29  N   UNL     1      -1.285  11.631  18.034  0.00  0.00    +0.000 NA
ATOM     30  C   UNL     1      -1.513  12.594  19.136  0.00  0.00    +0.000 C 
ATOM     31  C   UNL     1      -2.791  12.335  19.956  0.00  0.00    +0.000 C 
ATOM     32  O   UNL     1      -3.955  12.195  19.130  0.00  0.00    +0.000 OA
ATOM     33  C   UNL     1      -3.760  11.199  18.119  0.00  0.00    +0.000 C 
ATOM     34  C   UNL     1      -2.539  11.547  17.254  0.00  0.00    +0.000 C 
ENDBRANCH  28  29
ENDBRANCH  27  28
ENDBRANCH  25  27
ENDBRANCH  24  25
ENDBRANCH  21  24
ENDBRANCH   1  21
TORSDOF 7
ENDMDL
MODEL 6
REMARK VINA RESULT:      -8.1      1.213      1.745
REMARK  Name = 
REMARK  7 active torsions:
REMARK  status: ('A' for Active; 'I' for Inactive)
REMARK    1  A    between atoms: C_2  and  N_3
REMARK    2  A    between atoms: C_2  and  N_12
REMARK    3  A    between atoms: N_3  and  C_4
REMARK    4  A    between atoms: C_4  and  C_5
REMARK    5  A    between atoms: C_5  and  N_6
REMARK    6  A    between atoms: N_12  and  C_13
REMARK    7  A    between atoms: N_21  and  C_22
REMARK                            x       y       z     vdW  Elec       q    Type
REMARK                         _______ _______ _______ _____ _____    ______ ____
ROOT
ATOM      1  C   UNL     1       1.698   7.994  19.854  0.00  0.00    +0.000 A 
ATOM      2  C   UNL     1       2.165   8.226  18.562  0.00  0.00    +0.000 A 
ATOM      3  C   UNL     1       1.991   9.477  17.971  0.00  0.00    +0.000 A 
ATOM      4  C   UNL     1       1.372  10.519  18.644  0.00  0.00    +0.000 A 
ATOM      5  N   UNL     1       1.332  11.713  18.053  0.00  0.00    +0.000 NA
ATOM      6  C   UNL     1       0.766  12.700  18.748  0.00  0.00    +0.000 A 
ATOM      7  N   UNL     1       0.228  12.599  19.963  0.00  0.00    +0.000 NA
ATOM      8  C   UNL     1       0.259  11.390  20.555  0.00  0.00    +0.000 A 
ATOM      9  N   UNL     1      -0.279  11.240  21.865  0.00  0.00    +0.000 N 
ATOM     10  C   UNL     1       0.839  10.276  19.919  0.00  0.00    +0.000 A 
ATOM     11  C   UNL     1       0.952   8.984  20.488  0.00  0.00    +0.000 A 
ATOM     12  H   UNL     1       0.404  10.768  22.447  0.00  0.00    +0.000 HD
ENDROOT
BRANCH   9  13
ATOM     13  C   UNL     1      -1.002  12.201  22.616  0.00  0.00    +0.000 A 
ATOM     14  C   UNL     1      -0.587  13.533  22.736  0.00  0.00    +0.000 A 
ATOM     15  C   UNL     1      -1.320  14.452  23.488  0.00  0.00    +0.000 A 
ATOM     16  C   UNL     1      -2.516  14.069  24.091  0.00  0.00    +0.000 A 
ATOM     17 CL   UNL     1      -3.362  15.248  25.024  0.00  0.00    +0.000 Cl
ATOM     18  C   UNL     1      -2.987  12.765  23.916  0.00  0.00    +0.000 A 
ATOM     19 CL   UNL     1      -4.484  12.225  24.591  0.00  0.00    +0.000 Cl
ATOM     20  C   UNL     1      -2.239  11.842  23.172  0.00  0.00    +0.000 A 
ENDBRANCH   9  13
BRANCH   1  21
ATOM     21  N   UNL     1       1.949   6.812  20.567  0.00  0.00    +0.000 N 
ATOM     22  H   UNL     1       1.897   6.861  21.579  0.00  0.00    +0.000 HD
BRANCH  21  24
ATOM     23  S   UNL     1       1.899   4.257  21.065  0.00  0.00    +0.000 S 
ATOM     24  C   UNL     1       2.302   5.570  20.111  0.00  0.00    +0.000 C 
BRANCH  24  25
ATOM     25  N   UNL     1       3.041   5.517  18.959  0.00  0.00    +0.000 N 
ATOM     26  H   UNL     1       2.600   5.887  18.130  0.00  0.00    +0.000 HD
BRANCH  25  27
ATOM     27  C   UNL     1       4.208   4.672  18.755  0.00  0.00    +0.000 C 
BRANCH  27  28
ATOM     28  C   UNL     1       5.499   5.261  19.358  0.00  0.00    +0.000 C 
BRANCH  28  29
ATOM     29  N   UNL     1       6.724   4.786  18.687  0.00  0.00    +0.000 NA
ATOM     30  C   UNL     1       7.864   5.705  18.906  0.00  0.00    +0.000 C 
ATOM     31  C   UNL     1       7.807   7.001  18.075  0.00  0.00    +0.000 C 
ATOM     32  O   UNL     1       7.591   6.751  16.679  0.00  0.00    +0.000 OA
ATOM     33  C   UNL     1       6.436   5.933  16.470  0.00  0.00    +0.000 C 
ATOM     34  C   UNL     1       6.575   4.605  17.227  0.00  0.00    +0.000 C 
ENDBRANCH  28  29
ENDBRANCH  27  28
ENDBRANCH  25  27
ENDBRANCH  24  25
ENDBRANCH  21  24
ENDBRANCH   1  21
TORSDOF 7
ENDMDL
MODEL 7
REMARK VINA RESULT:      -8.0      3.504      5.421
REMARK  Name = 
REMARK  7 active torsions:
REMARK  status: ('A' for Active; 'I' for Inactive)
REMARK    1  A    between atoms: C_2  and  N_3
REMARK    2  A    between atoms: C_2  and  N_12
REMARK    3  A    between atoms: N_3  and  C_4
REMARK    4  A    between atoms: C_4  and  C_5
REMARK    5  A    between atoms: C_5  and  N_6
REMARK    6  A    between atoms: N_12  and  C_13
REMARK    7  A    between atoms: N_21  and  C_22
REMARK                            x       y       z     vdW  Elec       q    Type
REMARK                         _______ _______ _______ _____ _____    ______ ____
ROOT
ATOM      1  C   UNL     1       5.157   5.473  18.157  0.00  0.00    +0.000 A 
ATOM      2  C   UNL     1       4.998   4.091  18.086  0.00  0.00    +0.000 A 
ATOM      3  C   UNL     1       3.882   3.485  18.664  0.00  0.00    +0.000 A 
ATOM      4  C   UNL     1       2.902   4.228  19.303  0.00  0.00    +0.000 A 
ATOM      5  N   UNL     1       1.817   3.591  19.742  0.00  0.00    +0.000 NA
ATOM      6  C   UNL     1       0.877   4.344  20.314  0.00  0.00    +0.000 A 
ATOM      7  N   UNL     1       0.931   5.663  20.498  0.00  0.00    +0.000 NA
ATOM      8  C   UNL     1       2.032   6.305  20.065  0.00  0.00    +0.000 A 
ATOM      9  N   UNL     1       2.122   7.718  20.216  0.00  0.00    +0.000 N 
ATOM     10  C   UNL     1       3.085   5.613  19.438  0.00  0.00    +0.000 A 
ATOM     11  C   UNL     1       4.255   6.216  18.915  0.00  0.00    +0.000 A 
ATOM     12  H   UNL     1       2.383   8.126  19.325  0.00  0.00    +0.000 HD
ENDROOT
BRANCH   9  13
ATOM     13  C   UNL     1       1.231   8.569  20.916  0.00  0.00    +0.000 A 
ATOM     14  C   UNL     1       1.187   8.631  22.315  0.00  0.00    +0.000 A 
ATOM     15  C   UNL     1       0.293   9.478  22.973  0.00  0.00    +0.000 A 
ATOM     16  C   UNL     1      -0.538  10.322  22.241  0.00  0.00    +0.000 A 
ATOM     17 CL   UNL     1      -1.635  11.328  23.115  0.00  0.00    +0.000 Cl
ATOM     18  C   UNL     1      -0.453  10.332  20.847  0.00  0.00    +0.000 A 
ATOM     19 CL   UNL     1      -1.417  11.384  19.870  0.00  0.00    +0.000 Cl
ATOM     20  C   UNL     1       0.435   9.469  20.191  0.00  0.00    +0.000 A 
ENDBRANCH   9  13
BRANCH   1  21
ATOM     21  N   UNL     1       6.175   6.170  17.491  0.00  0.00    +0.000 N 
ATOM     22  H   UNL     1       6.064   6.312  16.492  0.00  0.00    +0.000 HD
BRANCH  21  24
ATOM     23  S   UNL     1       8.162   5.776  19.126  0.00  0.00    +0.000 S 
ATOM     24  C   UNL     1       7.353   6.676  17.973  0.00  0.00    +0.000 C 
BRANCH  24  25
ATOM     25  N   UNL     1       7.719   7.923  17.540  0.00  0.00    +0.000 N 
ATOM     26  H   UNL     1       7.656   8.085  16.546  0.00  0.00    +0.000 HD
BRANCH  25  27
ATOM     27  C   UNL     1       8.509   8.874  18.308  0.00  0.00    +0.000 C 
BRANCH  27  28
ATOM     28  C   UNL     1       8.362  10.327  17.813  0.00  0.00    +0.000 C 
BRANCH  28  29
ATOM     29  N   UNL     1       9.597  11.120  17.963  0.00  0.00    +0.000 NA
ATOM     30  C   UNL     1      10.130  11.051  19.343  0.00  0.00    +0.000 C 
ATOM     31  C   UNL     1       9.356  11.900  20.369  0.00  0.00    +0.000 C 
ATOM     32  O   UNL     1       9.179  13.257  19.940  0.00  0.00    +0.000 OA
ATOM     33  C   UNL     1       8.582  13.317  18.640  0.00  0.00    +0.000 C 
ATOM     34  C   UNL     1       9.437  12.550  17.621  0.00  0.00    +0.000 C 
ENDBRANCH  28  29
ENDBRANCH  27  28
ENDBRANCH  25  27
ENDBRANCH  24  25
ENDBRANCH  21  24
ENDBRANCH   1  21
TORSDOF 7
ENDMDL
MODEL 8
REMARK VINA RESULT:      -8.0      0.923      1.121
REMARK  Name = 
REMARK  7 active torsions:
REMARK  status: ('A' for Active; 'I' for Inactive)
REMARK    1  A    between atoms: C_2  and  N_3
REMARK    2  A    between atoms: C_2  and  N_12
REMARK    3  A    between atoms: N_3  and  C_4
REMARK    4  A    between atoms: C_4  and  C_5
REMARK    5  A    between atoms: C_5  and  N_6
REMARK    6  A    between atoms: N_12  and  C_13
REMARK    7  A    between atoms: N_21  and  C_22
REMARK                            x       y       z     vdW  Elec       q    Type
REMARK                         _______ _______ _______ _____ _____    ______ ____
ROOT
ATOM      1  C   UNL     1       2.163   6.886  19.794  0.00  0.00    +0.000 A 
ATOM      2  C   UNL     1       2.704   6.997  18.515  0.00  0.00    +0.000 A 
ATOM      3  C   UNL     1       2.615   8.205  17.822  0.00  0.00    +0.000 A 
ATOM      4  C   UNL     1       2.008   9.319  18.380  0.00  0.00    +0.000 A 
ATOM      5  N   UNL     1       2.049  10.463  17.698  0.00  0.00    +0.000 NA
ATOM      6  C   UNL     1       1.492  11.524  18.285  0.00  0.00    +0.000 A 
ATOM      7  N   UNL     1       0.891  11.539  19.474  0.00  0.00    +0.000 NA
ATOM      8  C   UNL     1       0.839  10.381  20.157  0.00  0.00    +0.000 A 
ATOM      9  N   UNL     1       0.230  10.354  21.444  0.00  0.00    +0.000 N 
ATOM     10  C   UNL     1       1.401   9.198  19.639  0.00  0.00    +0.000 A 
ATOM     11  C   UNL     1       1.430   7.951  20.310  0.00  0.00    +0.000 A 
ATOM     12  H   UNL     1       0.863   9.903  22.096  0.00  0.00    +0.000 HD
ENDROOT
BRANCH   9  13
ATOM     13  C   UNL     1      -0.487  11.399  22.080  0.00  0.00    +0.000 A 
ATOM     14  C   UNL     1      -1.580  11.161  22.922  0.00  0.00    +0.000 A 
ATOM     15  C   UNL     1      -2.266  12.214  23.530  0.00  0.00    +0.000 A 
ATOM     16  C   UNL     1      -1.836  13.526  23.349  0.00  0.00    +0.000 A 
ATOM     17 CL   UNL     1      -2.743  14.782  24.110  0.00  0.00    +0.000 Cl
ATOM     18  C   UNL     1      -0.700  13.777  22.577  0.00  0.00    +0.000 A 
ATOM     19 CL   UNL     1      -0.075  15.372  22.345  0.00  0.00    +0.000 Cl
ATOM     20  C   UNL     1      -0.023  12.717  21.958  0.00  0.00    +0.000 A 
ENDBRANCH   9  13
BRANCH   1  21
ATOM     21  N   UNL     1       2.327   5.754  20.608  0.00  0.00    +0.000 N 
ATOM     22  H   UNL     1       2.338   5.902  21.611  0.00  0.00    +0.000 HD
BRANCH  21  24
ATOM     23  S   UNL     1       1.189   3.432  20.311  0.00  0.00    +0.000 S 
ATOM     24  C   UNL     1       2.519   4.444  20.260  0.00  0.00    +0.000 C 
BRANCH  24  25
ATOM     25  N   UNL     1       3.804   4.052  19.994  0.00  0.00    +0.000 N 
ATOM     26  H   UNL     1       4.534   4.582  20.447  0.00  0.00    +0.000 HD
BRANCH  25  27
ATOM     27  C   UNL     1       4.206   3.213  18.875  0.00  0.00    +0.000 C 
BRANCH  27  28
ATOM     28  C   UNL     1       4.128   3.936  17.515  0.00  0.00    +0.000 C 
BRANCH  28  29
ATOM     29  N   UNL     1       5.430   4.019  16.826  0.00  0.00    +0.000 NA
ATOM     30  C   UNL     1       6.474   4.617  17.690  0.00  0.00    +0.000 C 
ATOM     31  C   UNL     1       6.365   6.144  17.857  0.00  0.00    +0.000 C 
ATOM     32  O   UNL     1       6.265   6.829  16.600  0.00  0.00    +0.000 OA
ATOM     33  C   UNL     1       5.198   6.303  15.805  0.00  0.00    +0.000 C 
ATOM     34  C   UNL     1       5.395   4.799  15.570  0.00  0.00    +0.000 C 
ENDBRANCH  28  29
ENDBRANCH  27  28
ENDBRANCH  25  27
ENDBRANCH  24  25
ENDBRANCH  21  24
ENDBRANCH   1  21
TORSDOF 7
ENDMDL
MODEL 9
REMARK VINA RESULT:      -8.0      1.343      1.653
REMARK  Name = 
REMARK  7 active torsions:
REMARK  status: ('A' for Active; 'I' for Inactive)
REMARK    1  A    between atoms: C_2  and  N_3
REMARK    2  A    between atoms: C_2  and  N_12
REMARK    3  A    between atoms: N_3  and  C_4
REMARK    4  A    between atoms: C_4  and  C_5
REMARK    5  A    between atoms: C_5  and  N_6
REMARK    6  A    between atoms: N_12  and  C_13
REMARK    7  A    between atoms: N_21  and  C_22
REMARK                            x       y       z     vdW  Elec       q    Type
REMARK                         _______ _______ _______ _____ _____    ______ ____
ROOT
ATOM      1  C   UNL     1       1.520   8.121  19.997  0.00  0.00    +0.000 A 
ATOM      2  C   UNL     1       2.034   8.369  18.725  0.00  0.00    +0.000 A 
ATOM      3  C   UNL     1       1.869   9.623  18.138  0.00  0.00    +0.000 A 
ATOM      4  C   UNL     1       1.214  10.653  18.795  0.00  0.00    +0.000 A 
ATOM      5  N   UNL     1       1.183  11.851  18.213  0.00  0.00    +0.000 NA
ATOM      6  C   UNL     1       0.581  12.827  18.894  0.00  0.00    +0.000 A 
ATOM      7  N   UNL     1      -0.002  12.709  20.087  0.00  0.00    +0.000 NA
ATOM      8  C   UNL     1       0.019  11.496  20.670  0.00  0.00    +0.000 A 
ATOM      9  N   UNL     1      -0.566  11.329  21.957  0.00  0.00    +0.000 N 
ATOM     10  C   UNL     1       0.635  10.394  20.047  0.00  0.00    +0.000 A 
ATOM     11  C   UNL     1       0.740   9.098  20.610  0.00  0.00    +0.000 A 
ATOM     12  H   UNL     1       0.100  10.860  22.560  0.00  0.00    +0.000 HD
ENDROOT
BRANCH   9  13
ATOM     13  C   UNL     1      -1.327  12.276  22.688  0.00  0.00    +0.000 A 
ATOM     14  C   UNL     1      -2.608  11.999  23.178  0.00  0.00    +0.000 A 
ATOM     15  C   UNL     1      -3.332  12.957  23.891  0.00  0.00    +0.000 A 
ATOM     16  C   UNL     1      -2.762  14.195  24.175  0.00  0.00    +0.000 A 
ATOM     17 CL   UNL     1      -3.719  15.342  25.041  0.00  0.00    +0.000 Cl
ATOM     18  C   UNL     1      -1.455  14.462  23.763  0.00  0.00    +0.000 A 
ATOM     19 CL   UNL     1      -0.660  15.956  24.117  0.00  0.00    +0.000 Cl
ATOM     20  C   UNL     1      -0.739  13.502  23.034  0.00  0.00    +0.000 A 
ENDBRANCH   9  13
BRANCH   1  21
ATOM     21  N   UNL     1       1.757   6.936  20.709  0.00  0.00    +0.000 N 
ATOM     22  H   UNL     1       1.557   6.945  21.704  0.00  0.00    +0.000 HD
BRANCH  21  24
ATOM     23  S   UNL     1       1.217   4.439  20.207  0.00  0.00    +0.000 S 
ATOM     24  C   UNL     1       2.265   5.739  20.278  0.00  0.00    +0.000 C 
BRANCH  24  25
ATOM     25  N   UNL     1       3.612   5.687  20.035  0.00  0.00    +0.000 N 
ATOM     26  H   UNL     1       4.109   6.563  20.091  0.00  0.00    +0.000 HD
BRANCH  25  27
ATOM     27  C   UNL     1       4.297   4.590  19.367  0.00  0.00    +0.000 C 
BRANCH  27  28
ATOM     28  C   UNL     1       4.277   4.707  17.830  0.00  0.00    +0.000 C 
BRANCH  28  29
ATOM     29  N   UNL     1       5.397   4.002  17.179  0.00  0.00    +0.000 NA
ATOM     30  C   UNL     1       6.706   4.412  17.738  0.00  0.00    +0.000 C 
ATOM     31  C   UNL     1       7.192   5.797  17.271  0.00  0.00    +0.000 C 
ATOM     32  O   UNL     1       7.160   5.940  15.844  0.00  0.00    +0.000 OA
ATOM     33  C   UNL     1       5.866   5.625  15.319  0.00  0.00    +0.000 C 
ATOM     34  C   UNL     1       5.460   4.199  15.714  0.00  0.00    +0.000 C 
ENDBRANCH  28  29
ENDBRANCH  27  28
ENDBRANCH  25  27
ENDBRANCH  24  25
ENDBRANCH  21  24
ENDBRANCH   1  21
TORSDOF 7
ENDMDL
