MODEL 1
REMARK VINA RESULT:      -8.6      0.000      0.000
REMARK  Name = 
REMARK  4 active torsions:
REMARK  status: ('A' for Active; 'I' for Inactive)
REMARK    1  A    between atoms: N_4  and  C_5
REMARK    2  A    between atoms: C_5  and  C_6
REMARK    3  A    between atoms: C_12  and  S_13
REMARK    4  A    between atoms: S_13  and  C_16
REMARK                            x       y       z     vdW  Elec       q    Type
REMARK                         _______ _______ _______ _____ _____    ______ ____
ROOT
ATOM      1  C   UNL     1       0.300  10.685  19.496  0.00  0.00    +0.000 C 
ATOM      2  C   UNL     1      -0.660  10.488  20.688  0.00  0.00    +0.000 C 
ATOM      3  C   UNL     1       0.067   9.973  21.925  0.00  0.00    +0.000 C 
ATOM      4  C   UNL     1       0.651   8.593  21.658  0.00  0.00    +0.000 C 
ATOM      5  C   UNL     1       1.369   8.498  20.336  0.00  0.00    +0.000 A 
ATOM      6  C   UNL     1       2.144   7.348  20.104  0.00  0.00    +0.000 A 
ATOM      7  C   UNL     1       2.741   7.140  18.861  0.00  0.00    +0.000 A 
ATOM      8  C   UNL     1       2.553   8.058  17.827  0.00  0.00    +0.000 A 
ATOM      9  C   UNL     1       1.792   9.211  18.057  0.00  0.00    +0.000 A 
ATOM     10  C   UNL     1       1.190   9.450  19.309  0.00  0.00    +0.000 A 
ENDROOT
BRANCH   7  11
ATOM     11  S   UNL     1       3.656   5.640  18.591  0.00  0.00    +0.000 S 
ATOM     12  O   UNL     1       3.876   5.508  17.164  0.00  0.00    +0.000 OA
ATOM     13  O   UNL     1       4.781   5.635  19.513  0.00  0.00    +0.000 OA
BRANCH  11  14
ATOM     14  C   UNL     1       2.570   4.311  19.079  0.00  0.00    +0.000 A 
ATOM     15  C   UNL     1       1.675   3.769  18.148  0.00  0.00    +0.000 A 
ATOM     16  C   UNL     1       0.829   2.727  18.536  0.00  0.00    +0.000 A 
ATOM     17  C   UNL     1       0.895   2.230  19.836  0.00  0.00    +0.000 A 
ATOM     18  C   UNL     1       1.809   2.766  20.740  0.00  0.00    +0.000 A 
ATOM     19  F   UNL     1       1.870   2.276  21.984  0.00  0.00    +0.000 F 
ATOM     20  C   UNL     1       2.655   3.801  20.374  0.00  0.00    +0.000 A 
ENDBRANCH  11  14
ENDBRANCH   7  11
BRANCH   1  21
ATOM     21  C   UNL     1       1.129  12.012  19.594  0.00  0.00    +0.000 C 
BRANCH  21  25
ATOM     22  O   UNL     1       3.698  15.473  18.799  0.00  0.00    +0.000 OA
ATOM     23  C   UNL     1       2.583  14.949  18.791  0.00  0.00    +0.000 C 
ATOM     24  C   UNL     1       2.319  13.612  18.079  0.00  0.00    +0.000 C 
ATOM     25  N   UNL     1       1.053  12.914  18.421  0.00  0.00    +0.000 NA
ATOM     26  C   UNL     1      -0.042  13.904  18.531  0.00  0.00    +0.000 C 
ATOM     27  C   UNL     1       0.243  15.007  19.557  0.00  0.00    +0.000 C 
ATOM     28  N   UNL     1       1.527  15.626  19.337  0.00  0.00    +0.000 N 
ATOM     29  H   UNL     1       1.768  16.493  19.804  0.00  0.00    +0.000 HD
ENDBRANCH  21  25
ENDBRANCH   1  21
TORSDOF 4
ENDMDL
MODEL 2
REMARK VINA RESULT:      -8.6      0.961      1.325
REMARK  Name = 
REMARK  4 active torsions:
REMARK  status: ('A' for Active; 'I' for Inactive)
REMARK    1  A    between atoms: N_4  and  C_5
REMARK    2  A    between atoms: C_5  and  C_6
REMARK    3  A    between atoms: C_12  and  S_13
REMARK    4  A    between atoms: S_13  and  C_16
REMARK                            x       y       z     vdW  Elec       q    Type
REMARK                         _______ _______ _______ _____ _____    ______ ____
ROOT
ATOM      1  C   UNL     1       0.280  10.877  19.404  0.00  0.00    +0.000 C 
ATOM      2  C   UNL     1      -0.803  10.666  20.485  0.00  0.00    +0.000 C 
ATOM      3  C   UNL     1      -0.219  10.092  21.771  0.00  0.00    +0.000 C 
ATOM      4  C   UNL     1       0.357   8.706  21.516  0.00  0.00    +0.000 C 
ATOM      5  C   UNL     1       1.206   8.635  20.271  0.00  0.00    +0.000 A 
ATOM      6  C   UNL     1       1.973   7.473  20.080  0.00  0.00    +0.000 A 
ATOM      7  C   UNL     1       2.690   7.289  18.898  0.00  0.00    +0.000 A 
ATOM      8  C   UNL     1       2.631   8.245  17.883  0.00  0.00    +0.000 A 
ATOM      9  C   UNL     1       1.878   9.411  18.075  0.00  0.00    +0.000 A 
ATOM     10  C   UNL     1       1.155   9.625  19.265  0.00  0.00    +0.000 A 
ENDROOT
BRANCH   7  11
ATOM     11  S   UNL     1       3.593   5.775  18.670  0.00  0.00    +0.000 S 
ATOM     12  O   UNL     1       3.610   5.481  17.250  0.00  0.00    +0.000 OA
ATOM     13  O   UNL     1       4.837   5.885  19.415  0.00  0.00    +0.000 OA
BRANCH  11  14
ATOM     14  C   UNL     1       2.620   4.504  19.457  0.00  0.00    +0.000 A 
ATOM     15  C   UNL     1       2.738   4.295  20.837  0.00  0.00    +0.000 A 
ATOM     16  C   UNL     1       1.972   3.299  21.448  0.00  0.00    +0.000 A 
ATOM     17  C   UNL     1       1.090   2.537  20.682  0.00  0.00    +0.000 A 
ATOM     18  C   UNL     1       0.970   2.777  19.316  0.00  0.00    +0.000 A 
ATOM     19  F   UNL     1       0.115   2.045  18.592  0.00  0.00    +0.000 F 
ATOM     20  C   UNL     1       1.724   3.759  18.692  0.00  0.00    +0.000 A 
ENDBRANCH  11  14
ENDBRANCH   7  11
BRANCH   1  21
ATOM     21  C   UNL     1       1.125  12.177  19.633  0.00  0.00    +0.000 C 
BRANCH  21  25
ATOM     22  O   UNL     1       4.595  14.478  18.265  0.00  0.00    +0.000 OA
ATOM     23  C   UNL     1       3.390  14.412  18.513  0.00  0.00    +0.000 C 
ATOM     24  C   UNL     1       2.488  13.338  17.883  0.00  0.00    +0.000 C 
ATOM     25  N   UNL     1       1.155  13.139  18.507  0.00  0.00    +0.000 NA
ATOM     26  C   UNL     1       0.575  14.453  18.861  0.00  0.00    +0.000 C 
ATOM     27  C   UNL     1       1.471  15.277  19.793  0.00  0.00    +0.000 C 
ATOM     28  N   UNL     1       2.816  15.386  19.285  0.00  0.00    +0.000 N 
ATOM     29  H   UNL     1       3.465  16.056  19.682  0.00  0.00    +0.000 HD
ENDBRANCH  21  25
ENDBRANCH   1  21
TORSDOF 4
ENDMDL
MODEL 3
REMARK VINA RESULT:      -8.6      4.583      8.519
REMARK  Name = 
REMARK  4 active torsions:
REMARK  status: ('A' for Active; 'I' for Inactive)
REMARK    1  A    between atoms: N_4  and  C_5
REMARK    2  A    between atoms: C_5  and  C_6
REMARK    3  A    between atoms: C_12  and  S_13
REMARK    4  A    between atoms: S_13  and  C_16
REMARK                            x       y       z     vdW  Elec       q    Type
REMARK                         _______ _______ _______ _____ _____    ______ ____
ROOT
ATOM      1  C   UNL     1       4.092   4.220  17.584  0.00  0.00    +0.000 C 
ATOM      2  C   UNL     1       5.119   4.310  16.434  0.00  0.00    +0.000 C 
ATOM      3  C   UNL     1       6.055   5.502  16.598  0.00  0.00    +0.000 C 
ATOM      4  C   UNL     1       5.268   6.804  16.525  0.00  0.00    +0.000 C 
ATOM      5  C   UNL     1       4.010   6.785  17.355  0.00  0.00    +0.000 A 
ATOM      6  C   UNL     1       3.345   8.008  17.546  0.00  0.00    +0.000 A 
ATOM      7  C   UNL     1       2.117   8.047  18.204  0.00  0.00    +0.000 A 
ATOM      8  C   UNL     1       1.522   6.868  18.655  0.00  0.00    +0.000 A 
ATOM      9  C   UNL     1       2.187   5.647  18.478  0.00  0.00    +0.000 A 
ATOM     10  C   UNL     1       3.435   5.585  17.828  0.00  0.00    +0.000 A 
ENDROOT
BRANCH   7  11
ATOM     11  S   UNL     1       1.279   9.607  18.365  0.00  0.00    +0.000 S 
ATOM     12  O   UNL     1       2.254  10.657  18.141  0.00  0.00    +0.000 OA
ATOM     13  O   UNL     1       0.067   9.543  17.565  0.00  0.00    +0.000 OA
BRANCH  11  14
ATOM     14  C   UNL     1       0.775   9.716  20.073  0.00  0.00    +0.000 A 
ATOM     15  C   UNL     1       1.451   8.966  21.045  0.00  0.00    +0.000 A 
ATOM     16  C   UNL     1       1.053   9.058  22.381  0.00  0.00    +0.000 A 
ATOM     17  C   UNL     1       0.001   9.902  22.733  0.00  0.00    +0.000 A 
ATOM     18  C   UNL     1      -0.642  10.657  21.756  0.00  0.00    +0.000 A 
ATOM     19  F   UNL     1      -1.645  11.471  22.106  0.00  0.00    +0.000 F 
ATOM     20  C   UNL     1      -0.262  10.578  20.425  0.00  0.00    +0.000 A 
ENDBRANCH  11  14
ENDBRANCH   7  11
BRANCH   1  21
ATOM     21  C   UNL     1       4.695   3.603  18.892  0.00  0.00    +0.000 C 
BRANCH  21  25
ATOM     22  O   UNL     1       0.575   2.194  18.389  0.00  0.00    +0.000 OA
ATOM     23  C   UNL     1       1.599   2.273  19.070  0.00  0.00    +0.000 C 
ATOM     24  C   UNL     1       2.969   1.825  18.532  0.00  0.00    +0.000 C 
ATOM     25  N   UNL     1       4.162   2.278  19.291  0.00  0.00    +0.000 NA
ATOM     26  C   UNL     1       3.890   2.184  20.742  0.00  0.00    +0.000 C 
ATOM     27  C   UNL     1       2.657   2.985  21.178  0.00  0.00    +0.000 C 
ATOM     28  N   UNL     1       1.501   2.667  20.377  0.00  0.00    +0.000 N 
ATOM     29  H   UNL     1       0.576   2.963  20.667  0.00  0.00    +0.000 HD
ENDBRANCH  21  25
ENDBRANCH   1  21
TORSDOF 4
ENDMDL
MODEL 4
REMARK VINA RESULT:      -8.5      1.247      1.295
REMARK  Name = 
REMARK  4 active torsions:
REMARK  status: ('A' for Active; 'I' for Inactive)
REMARK    1  A    between atoms: N_4  and  C_5
REMARK    2  A    between atoms: C_5  and  C_6
REMARK    3  A    between atoms: C_12  and  S_13
REMARK    4  A    between atoms: S_13  and  C_16
REMARK                            x       y       z     vdW  Elec       q    Type
REMARK                         _______ _______ _______ _____ _____    ______ ____
ROOT
ATOM      1  C   UNL     1       0.313  10.242  19.454  0.00  0.00    +0.000 C 
ATOM      2  C   UNL     1      -0.545   9.825  20.668  0.00  0.00    +0.000 C 
ATOM      3  C   UNL     1       0.310   9.313  21.821  0.00  0.00    +0.000 C 
ATOM      4  C   UNL     1       1.048   8.047  21.408  0.00  0.00    +0.000 C 
ATOM      5  C   UNL     1       1.697   8.153  20.052  0.00  0.00    +0.000 A 
ATOM      6  C   UNL     1       2.597   7.138  19.686  0.00  0.00    +0.000 A 
ATOM      7  C   UNL     1       3.145   7.110  18.404  0.00  0.00    +0.000 A 
ATOM      8  C   UNL     1       2.784   8.075  17.464  0.00  0.00    +0.000 A 
ATOM      9  C   UNL     1       1.898   9.097  17.827  0.00  0.00    +0.000 A 
ATOM     10  C   UNL     1       1.341   9.153  19.120  0.00  0.00    +0.000 A 
ENDROOT
BRANCH   7  11
ATOM     11  S   UNL     1       4.227   5.770  17.963  0.00  0.00    +0.000 S 
ATOM     12  O   UNL     1       4.532   5.895  16.551  0.00  0.00    +0.000 OA
ATOM     13  O   UNL     1       5.297   5.722  18.947  0.00  0.00    +0.000 OA
BRANCH  11  14
ATOM     14  C   UNL     1       3.264   4.281  18.161  0.00  0.00    +0.000 A 
ATOM     15  C   UNL     1       1.866   4.357  18.191  0.00  0.00    +0.000 A 
ATOM     16  C   UNL     1       1.118   3.187  18.343  0.00  0.00    +0.000 A 
ATOM     17  C   UNL     1       1.769   1.959  18.449  0.00  0.00    +0.000 A 
ATOM     18  C   UNL     1       3.159   1.902  18.393  0.00  0.00    +0.000 A 
ATOM     19  F   UNL     1       3.773   0.716  18.488  0.00  0.00    +0.000 F 
ATOM     20  C   UNL     1       3.917   3.052  18.244  0.00  0.00    +0.000 A 
ENDBRANCH  11  14
ENDBRANCH   7  11
BRANCH   1  21
ATOM     21  C   UNL     1       0.971  11.654  19.630  0.00  0.00    +0.000 C 
BRANCH  21  25
ATOM     22  O   UNL     1       2.958  15.538  19.212  0.00  0.00    +0.000 OA
ATOM     23  C   UNL     1       1.974  14.819  19.031  0.00  0.00    +0.000 C 
ATOM     24  C   UNL     1       2.078  13.467  18.305  0.00  0.00    +0.000 C 
ATOM     25  N   UNL     1       0.923  12.545  18.447  0.00  0.00    +0.000 NA
ATOM     26  C   UNL     1      -0.337  13.315  18.362  0.00  0.00    +0.000 C 
ATOM     27  C   UNL     1      -0.430  14.436  19.404  0.00  0.00    +0.000 C 
ATOM     28  N   UNL     1       0.737  15.283  19.387  0.00  0.00    +0.000 N 
ATOM     29  H   UNL     1       0.736  16.172  19.874  0.00  0.00    +0.000 HD
ENDBRANCH  21  25
ENDBRANCH   1  21
TORSDOF 4
ENDMDL
MODEL 5
REMARK VINA RESULT:      -8.4      2.387      3.189
REMARK  Name = 
REMARK  4 active torsions:
REMARK  status: ('A' for Active; 'I' for Inactive)
REMARK    1  A    between atoms: N_4  and  C_5
REMARK    2  A    between atoms: C_5  and  C_6
REMARK    3  A    between atoms: C_12  and  S_13
REMARK    4  A    between atoms: S_13  and  C_16
REMARK                            x       y       z     vdW  Elec       q    Type
REMARK                         _______ _______ _______ _____ _____    ______ ____
ROOT
ATOM      1  C   UNL     1       0.270  10.654  19.705  0.00  0.00    +0.000 C 
ATOM      2  C   UNL     1      -0.604  10.546  20.974  0.00  0.00    +0.000 C 
ATOM      3  C   UNL     1       0.193  10.047  22.173  0.00  0.00    +0.000 C 
ATOM      4  C   UNL     1       0.697   8.633  21.921  0.00  0.00    +0.000 C 
ATOM      5  C   UNL     1       1.307   8.455  20.554  0.00  0.00    +0.000 A 
ATOM      6  C   UNL     1       2.013   7.263  20.313  0.00  0.00    +0.000 A 
ATOM      7  C   UNL     1       2.504   6.981  19.039  0.00  0.00    +0.000 A 
ATOM      8  C   UNL     1       2.276   7.866  17.985  0.00  0.00    +0.000 A 
ATOM      9  C   UNL     1       1.585   9.061  18.223  0.00  0.00    +0.000 A 
ATOM     10  C   UNL     1       1.090   9.374  19.504  0.00  0.00    +0.000 A 
ENDROOT
BRANCH   7  11
ATOM     11  S   UNL     1       3.332   5.432  18.764  0.00  0.00    +0.000 S 
ATOM     12  O   UNL     1       3.302   4.688  20.007  0.00  0.00    +0.000 OA
ATOM     13  O   UNL     1       2.792   4.852  17.544  0.00  0.00    +0.000 OA
BRANCH  11  14
ATOM     14  C   UNL     1       5.038   5.842  18.439  0.00  0.00    +0.000 A 
ATOM     15  C   UNL     1       5.363   6.625  17.324  0.00  0.00    +0.000 A 
ATOM     16  C   UNL     1       6.701   6.945  17.076  0.00  0.00    +0.000 A 
ATOM     17  C   UNL     1       7.692   6.495  17.947  0.00  0.00    +0.000 A 
ATOM     18  C   UNL     1       7.346   5.738  19.063  0.00  0.00    +0.000 A 
ATOM     19  F   UNL     1       8.305   5.319  19.897  0.00  0.00    +0.000 F 
ATOM     20  C   UNL     1       6.025   5.410  19.324  0.00  0.00    +0.000 A 
ENDBRANCH  11  14
ENDBRANCH   7  11
BRANCH   1  21
ATOM     21  C   UNL     1       1.159  11.945  19.686  0.00  0.00    +0.000 C 
BRANCH  21  25
ATOM     22  O   UNL     1       3.553  15.502  18.778  0.00  0.00    +0.000 OA
ATOM     23  C   UNL     1       2.471  14.913  18.763  0.00  0.00    +0.000 C 
ATOM     24  C   UNL     1       2.310  13.525  18.122  0.00  0.00    +0.000 C 
ATOM     25  N   UNL     1       1.075  12.774  18.461  0.00  0.00    +0.000 NA
ATOM     26  C   UNL     1      -0.078  13.701  18.475  0.00  0.00    +0.000 C 
ATOM     27  C   UNL     1       0.104  14.875  19.444  0.00  0.00    +0.000 C 
ATOM     28  N   UNL     1       1.358  15.556  19.232  0.00  0.00    +0.000 N 
ATOM     29  H   UNL     1       1.531  16.461  19.655  0.00  0.00    +0.000 HD
ENDBRANCH  21  25
ENDBRANCH   1  21
TORSDOF 4
ENDMDL
MODEL 6
REMARK VINA RESULT:      -8.4      0.992      1.305
REMARK  Name = 
REMARK  4 active torsions:
REMARK  status: ('A' for Active; 'I' for Inactive)
REMARK    1  A    between atoms: N_4  and  C_5
REMARK    2  A    between atoms: C_5  and  C_6
REMARK    3  A    between atoms: C_12  and  S_13
REMARK    4  A    between atoms: S_13  and  C_16
REMARK                            x       y       z     vdW  Elec       q    Type
REMARK                         _______ _______ _______ _____ _____    ______ ____
ROOT
ATOM      1  C   UNL     1       0.309  10.765  19.109  0.00  0.00    +0.000 C 
ATOM      2  C   UNL     1      -0.694  10.640  20.276  0.00  0.00    +0.000 C 
ATOM      3  C   UNL     1      -0.015  10.190  21.564  0.00  0.00    +0.000 C 
ATOM      4  C   UNL     1       0.565   8.793  21.394  0.00  0.00    +0.000 C 
ATOM      5  C   UNL     1       1.329   8.620  20.105  0.00  0.00    +0.000 A 
ATOM      6  C   UNL     1       2.100   7.454  19.964  0.00  0.00    +0.000 A 
ATOM      7  C   UNL     1       2.739   7.173  18.757  0.00  0.00    +0.000 A 
ATOM      8  C   UNL     1       2.595   8.034  17.668  0.00  0.00    +0.000 A 
ATOM      9  C   UNL     1       1.837   9.204  17.807  0.00  0.00    +0.000 A 
ATOM     10  C   UNL     1       1.194   9.515  19.022  0.00  0.00    +0.000 A 
ENDROOT
BRANCH   7  11
ATOM     11  S   UNL     1       3.650   5.654  18.602  0.00  0.00    +0.000 S 
ATOM     12  O   UNL     1       3.940   5.455  17.195  0.00  0.00    +0.000 OA
ATOM     13  O   UNL     1       4.726   5.682  19.580  0.00  0.00    +0.000 OA
BRANCH  11  14
ATOM     14  C   UNL     1       2.526   4.359  19.094  0.00  0.00    +0.000 A 
ATOM     15  C   UNL     1       1.793   3.669  18.121  0.00  0.00    +0.000 A 
ATOM     16  C   UNL     1       0.916   2.654  18.513  0.00  0.00    +0.000 A 
ATOM     17  C   UNL     1       0.792   2.331  19.863  0.00  0.00    +0.000 A 
ATOM     18  C   UNL     1       1.547   3.013  20.814  0.00  0.00    +0.000 A 
ATOM     19  F   UNL     1       1.426   2.689  22.106  0.00  0.00    +0.000 F 
ATOM     20  C   UNL     1       2.421   4.023  20.444  0.00  0.00    +0.000 A 
ENDBRANCH  11  14
ENDBRANCH   7  11
BRANCH   1  21
ATOM     21  C   UNL     1       1.146  12.090  19.163  0.00  0.00    +0.000 C 
BRANCH  21  25
ATOM     22  O   UNL     1       0.133  16.284  18.398  0.00  0.00    +0.000 OA
ATOM     23  C   UNL     1       0.673  15.429  19.102  0.00  0.00    +0.000 C 
ATOM     24  C   UNL     1      -0.098  14.210  19.635  0.00  0.00    +0.000 C 
ATOM     25  N   UNL     1       0.716  13.089  20.169  0.00  0.00    +0.000 NA
ATOM     26  C   UNL     1       1.845  13.631  20.956  0.00  0.00    +0.000 C 
ATOM     27  C   UNL     1       2.735  14.589  20.156  0.00  0.00    +0.000 C 
ATOM     28  N   UNL     1       1.964  15.624  19.511  0.00  0.00    +0.000 N 
ATOM     29  H   UNL     1       2.422  16.437  19.115  0.00  0.00    +0.000 HD
ENDBRANCH  21  25
ENDBRANCH   1  21
TORSDOF 4
ENDMDL
MODEL 7
REMARK VINA RESULT:      -8.4      1.287      1.803
REMARK  Name = 
REMARK  4 active torsions:
REMARK  status: ('A' for Active; 'I' for Inactive)
REMARK    1  A    between atoms: N_4  and  C_5
REMARK    2  A    between atoms: C_5  and  C_6
REMARK    3  A    between atoms: C_12  and  S_13
REMARK    4  A    between atoms: S_13  and  C_16
REMARK                            x       y       z     vdW  Elec       q    Type
REMARK                         _______ _______ _______ _____ _____    ______ ____
ROOT
ATOM      1  C   UNL     1       0.307  10.675  19.172  0.00  0.00    +0.000 C 
ATOM      2  C   UNL     1      -0.692  10.523  20.340  0.00  0.00    +0.000 C 
ATOM      3  C   UNL     1      -0.004  10.069  21.622  0.00  0.00    +0.000 C 
ATOM      4  C   UNL     1       0.596   8.683  21.435  0.00  0.00    +0.000 C 
ATOM      5  C   UNL     1       1.359   8.534  20.144  0.00  0.00    +0.000 A 
ATOM      6  C   UNL     1       2.147   7.381  19.989  0.00  0.00    +0.000 A 
ATOM      7  C   UNL     1       2.788   7.123  18.778  0.00  0.00    +0.000 A 
ATOM      8  C   UNL     1       2.629   7.993  17.699  0.00  0.00    +0.000 A 
ATOM      9  C   UNL     1       1.855   9.150  17.852  0.00  0.00    +0.000 A 
ATOM     10  C   UNL     1       1.209   9.439  19.070  0.00  0.00    +0.000 A 
ENDROOT
BRANCH   7  11
ATOM     11  S   UNL     1       3.720   5.619  18.605  0.00  0.00    +0.000 S 
ATOM     12  O   UNL     1       3.770   5.291  17.193  0.00  0.00    +0.000 OA
ATOM     13  O   UNL     1       4.947   5.768  19.371  0.00  0.00    +0.000 OA
BRANCH  11  14
ATOM     14  C   UNL     1       2.753   4.351  19.404  0.00  0.00    +0.000 A 
ATOM     15  C   UNL     1       2.954   4.078  20.763  0.00  0.00    +0.000 A 
ATOM     16  C   UNL     1       2.192   3.085  21.384  0.00  0.00    +0.000 A 
ATOM     17  C   UNL     1       1.232   2.390  20.650  0.00  0.00    +0.000 A 
ATOM     18  C   UNL     1       1.031   2.692  19.306  0.00  0.00    +0.000 A 
ATOM     19  F   UNL     1       0.101   2.024  18.613  0.00  0.00    +0.000 F 
ATOM     20  C   UNL     1       1.779   3.672  18.673  0.00  0.00    +0.000 A 
ENDBRANCH  11  14
ENDBRANCH   7  11
BRANCH   1  21
ATOM     21  C   UNL     1       1.124  12.011  19.240  0.00  0.00    +0.000 C 
BRANCH  21  25
ATOM     22  O   UNL     1      -0.330  16.053  18.373  0.00  0.00    +0.000 OA
ATOM     23  C   UNL     1       0.329  15.285  19.076  0.00  0.00    +0.000 C 
ATOM     24  C   UNL     1      -0.290  14.024  19.702  0.00  0.00    +0.000 C 
ATOM     25  N   UNL     1       0.657  13.009  20.230  0.00  0.00    +0.000 NA
ATOM     26  C   UNL     1       1.772  13.689  20.926  0.00  0.00    +0.000 C 
ATOM     27  C   UNL     1       2.518  14.691  20.036  0.00  0.00    +0.000 C 
ATOM     28  N   UNL     1       1.616  15.618  19.399  0.00  0.00    +0.000 N 
ATOM     29  H   UNL     1       1.971  16.452  18.944  0.00  0.00    +0.000 HD
ENDBRANCH  21  25
ENDBRANCH   1  21
TORSDOF 4
ENDMDL
MODEL 8
REMARK VINA RESULT:      -8.2      1.287      1.757
REMARK  Name = 
REMARK  4 active torsions:
REMARK  status: ('A' for Active; 'I' for Inactive)
REMARK    1  A    between atoms: N_4  and  C_5
REMARK    2  A    between atoms: C_5  and  C_6
REMARK    3  A    between atoms: C_12  and  S_13
REMARK    4  A    between atoms: S_13  and  C_16
REMARK                            x       y       z     vdW  Elec       q    Type
REMARK                         _______ _______ _______ _____ _____    ______ ____
ROOT
ATOM      1  C   UNL     1      -0.241  10.934  19.348  0.00  0.00    +0.000 C 
ATOM      2  C   UNL     1      -1.018  10.852  20.680  0.00  0.00    +0.000 C 
ATOM      3  C   UNL     1      -0.095  10.579  21.862  0.00  0.00    +0.000 C 
ATOM      4  C   UNL     1       0.568   9.217  21.709  0.00  0.00    +0.000 C 
ATOM      5  C   UNL     1       1.116   8.975  20.326  0.00  0.00    +0.000 A 
ATOM      6  C   UNL     1       1.951   7.859  20.150  0.00  0.00    +0.000 A 
ATOM      7  C   UNL     1       2.400   7.508  18.877  0.00  0.00    +0.000 A 
ATOM      8  C   UNL     1       2.000   8.247  17.762  0.00  0.00    +0.000 A 
ATOM      9  C   UNL     1       1.178   9.367  17.934  0.00  0.00    +0.000 A 
ATOM     10  C   UNL     1       0.723   9.748  19.212  0.00  0.00    +0.000 A 
ENDROOT
BRANCH   7  11
ATOM     11  S   UNL     1       3.401   6.051  18.691  0.00  0.00    +0.000 S 
ATOM     12  O   UNL     1       3.477   5.745  17.276  0.00  0.00    +0.000 OA
ATOM     13  O   UNL     1       4.613   6.244  19.470  0.00  0.00    +0.000 OA
BRANCH  11  14
ATOM     14  C   UNL     1       2.485   4.729  19.465  0.00  0.00    +0.000 A 
ATOM     15  C   UNL     1       2.573   4.543  20.850  0.00  0.00    +0.000 A 
ATOM     16  C   UNL     1       1.851   3.507  21.450  0.00  0.00    +0.000 A 
ATOM     17  C   UNL     1       1.044   2.683  20.667  0.00  0.00    +0.000 A 
ATOM     18  C   UNL     1       0.951   2.900  19.295  0.00  0.00    +0.000 A 
ATOM     19  F   UNL     1       0.166   2.108  18.555  0.00  0.00    +0.000 F 
ATOM     20  C   UNL     1       1.661   3.921  18.682  0.00  0.00    +0.000 A 
ENDBRANCH  11  14
ENDBRANCH   7  11
BRANCH   1  21
ATOM     21  C   UNL     1       0.475  12.314  19.144  0.00  0.00    +0.000 C 
BRANCH  21  25
ATOM     22  O   UNL     1       2.531  15.432  21.436  0.00  0.00    +0.000 OA
ATOM     23  C   UNL     1       2.510  14.644  20.490  0.00  0.00    +0.000 C 
ATOM     24  C   UNL     1       2.262  13.140  20.691  0.00  0.00    +0.000 C 
ATOM     25  N   UNL     1       1.918  12.354  19.479  0.00  0.00    +0.000 NA
ATOM     26  C   UNL     1       2.756  12.803  18.345  0.00  0.00    +0.000 C 
ATOM     27  C   UNL     1       2.623  14.302  18.053  0.00  0.00    +0.000 C 
ATOM     28  N   UNL     1       2.823  15.099  19.238  0.00  0.00    +0.000 N 
ATOM     29  H   UNL     1       2.962  16.101  19.168  0.00  0.00    +0.000 HD
ENDBRANCH  21  25
ENDBRANCH   1  21
TORSDOF 4
ENDMDL
MODEL 9
REMARK VINA RESULT:      -8.2      2.610      3.494
REMARK  Name = 
REMARK  4 active torsions:
REMARK  status: ('A' for Active; 'I' for Inactive)
REMARK    1  A    between atoms: N_4  and  C_5
REMARK    2  A    between atoms: C_5  and  C_6
REMARK    3  A    between atoms: C_12  and  S_13
REMARK    4  A    between atoms: S_13  and  C_16
REMARK                            x       y       z     vdW  Elec       q    Type
REMARK                         _______ _______ _______ _____ _____    ______ ____
ROOT
ATOM      1  C   UNL     1       0.256  10.593  19.440  0.00  0.00    +0.000 C 
ATOM      2  C   UNL     1      -0.563  10.535  20.748  0.00  0.00    +0.000 C 
ATOM      3  C   UNL     1       0.298  10.135  21.941  0.00  0.00    +0.000 C 
ATOM      4  C   UNL     1       0.837   8.724  21.752  0.00  0.00    +0.000 C 
ATOM      5  C   UNL     1       1.398   8.481  20.374  0.00  0.00    +0.000 A 
ATOM      6  C   UNL     1       2.133   7.300  20.175  0.00  0.00    +0.000 A 
ATOM      7  C   UNL     1       2.582   6.955  18.901  0.00  0.00    +0.000 A 
ATOM      8  C   UNL     1       2.284   7.768  17.806  0.00  0.00    +0.000 A 
ATOM      9  C   UNL     1       1.563   8.953  18.001  0.00  0.00    +0.000 A 
ATOM     10  C   UNL     1       1.109   9.328  19.282  0.00  0.00    +0.000 A 
ENDROOT
BRANCH   7  11
ATOM     11  S   UNL     1       3.450   5.419  18.684  0.00  0.00    +0.000 S 
ATOM     12  O   UNL     1       3.382   4.692  19.937  0.00  0.00    +0.000 OA
ATOM     13  O   UNL     1       2.971   4.811  17.453  0.00  0.00    +0.000 OA
BRANCH  11  14
ATOM     14  C   UNL     1       5.159   5.857  18.424  0.00  0.00    +0.000 A 
ATOM     15  C   UNL     1       5.508   6.679  17.344  0.00  0.00    +0.000 A 
ATOM     16  C   UNL     1       6.849   7.020  17.147  0.00  0.00    +0.000 A 
ATOM     17  C   UNL     1       7.819   6.552  18.033  0.00  0.00    +0.000 A 
ATOM     18  C   UNL     1       7.449   5.756  19.113  0.00  0.00    +0.000 A 
ATOM     19  F   UNL     1       8.387   5.319  19.961  0.00  0.00    +0.000 F 
ATOM     20  C   UNL     1       6.124   5.405  19.323  0.00  0.00    +0.000 A 
ENDBRANCH  11  14
ENDBRANCH   7  11
BRANCH   1  21
ATOM     21  C   UNL     1       1.100  11.907  19.307  0.00  0.00    +0.000 C 
BRANCH  21  25
ATOM     22  O   UNL     1      -0.254  15.973  18.391  0.00  0.00    +0.000 OA
ATOM     23  C   UNL     1       0.445  15.207  19.056  0.00  0.00    +0.000 C 
ATOM     24  C   UNL     1      -0.156  14.012  19.816  0.00  0.00    +0.000 C 
ATOM     25  N   UNL     1       0.798  12.976  20.288  0.00  0.00    +0.000 NA
ATOM     26  C   UNL     1       2.015  13.629  20.816  0.00  0.00    +0.000 C 
ATOM     27  C   UNL     1       2.700  14.545  19.794  0.00  0.00    +0.000 C 
ATOM     28  N   UNL     1       1.775  15.487  19.213  0.00  0.00    +0.000 N 
ATOM     29  H   UNL     1       2.114  16.277  18.677  0.00  0.00    +0.000 HD
ENDBRANCH  21  25
ENDBRANCH   1  21
TORSDOF 4
ENDMDL
