MODEL 1
REMARK VINA RESULT:      -6.1      0.000      0.000
REMARK  Name = 
REMARK  14 active torsions:
REMARK  status: ('A' for Active; 'I' for Inactive)
REMARK    1  A    between atoms: C_1  and  C_2
REMARK    2  A    between atoms: C_2  and  C_3
REMARK    3  A    between atoms: C_3  and  C_4
REMARK    4  A    between atoms: C_4  and  N_5
REMARK    5  A    between atoms: N_5  and  C_6
REMARK    6  A    between atoms: N_5  and  C_10
REMARK    7  A    between atoms: C_6  and  C_7
REMARK    8  A    between atoms: C_7  and  C_8
REMARK    9  A    between atoms: C_8  and  C_9
REMARK   10  A    between atoms: C_10  and  C_11
REMARK   11  A    between atoms: C_11  and  O_12
REMARK   12  A    between atoms: C_11  and  C_13
REMARK   13  A    between atoms: C_13  and  O_14
REMARK   14  A    between atoms: O_14  and  C_15
REMARK                            x       y       z     vdW  Elec       q    Type
REMARK                         _______ _______ _______ _____ _____    ______ ____
ROOT
ATOM      1  C   UNL     1       6.873   4.767  18.285  0.00  0.00    +0.000 C 
ENDROOT
BRANCH   1   2
ATOM      2  O   UNL     1       7.734   5.878  18.264  0.00  0.00    +0.000 OA
ATOM      3  H   UNL     1       7.215   6.658  17.936  0.00  0.00    +0.000 HD
ENDBRANCH   1   2
BRANCH   1   4
ATOM      4  C   UNL     1       6.185   4.566  16.910  0.00  0.00    +0.000 C 
BRANCH   4   5
ATOM      5  N   UNL     1       6.302   5.718  15.978  0.00  0.00    +0.000 NA
BRANCH   5   6
ATOM      6  C   UNL     1       6.651   5.210  14.617  0.00  0.00    +0.000 C 
BRANCH   6   7
ATOM      7  C   UNL     1       5.921   3.921  14.192  0.00  0.00    +0.000 C 
BRANCH   7   9
ATOM      8  C   UNL     1       4.885   3.374  11.914  0.00  0.00    +0.000 C 
ATOM      9  C   UNL     1       6.171   3.503  12.734  0.00  0.00    +0.000 C 
ENDBRANCH   7   9
ENDBRANCH   6   7
ENDBRANCH   5   6
BRANCH   5  10
ATOM     10  C   UNL     1       5.009   6.465  15.932  0.00  0.00    +0.000 C 
BRANCH  10  11
ATOM     11  C   UNL     1       4.617   7.195  17.242  0.00  0.00    +0.000 C 
BRANCH  11  12
ATOM     12  C   UNL     1       3.131   7.037  17.591  0.00  0.00    +0.000 C 
ATOM     13  C   UNL     1       2.451   8.400  17.713  0.00  0.00    +0.000 C 
ENDBRANCH  11  12
ENDBRANCH  10  11
ENDBRANCH   5  10
ENDBRANCH   4   5
ENDBRANCH   1   4
BRANCH   1  14
ATOM     14  C   UNL     1       5.785   4.926  19.348  0.00  0.00    +0.000 C 
BRANCH  14  15
ATOM     15  O   UNL     1       4.963   3.819  19.417  0.00  0.00    +0.000 OA
BRANCH  15  16
ATOM     16  C   UNL     1       3.630   3.898  19.682  0.00  0.00    +0.000 A 
ATOM     17  C   UNL     1       3.081   4.973  20.416  0.00  0.00    +0.000 A 
ATOM     18  C   UNL     1       1.712   5.032  20.671  0.00  0.00    +0.000 A 
ATOM     19  C   UNL     1       0.871   4.026  20.201  0.00  0.00    +0.000 A 
ATOM     20  C   UNL     1       1.398   2.956  19.473  0.00  0.00    +0.000 A 
ATOM     21  C   UNL     1       2.773   2.888  19.210  0.00  0.00    +0.000 A 
ATOM     22 BR   UNL     1       3.455   1.408  18.208  0.00  0.00    +0.000 Br
ENDBRANCH  15  16
ENDBRANCH  14  15
ENDBRANCH   1  14
TORSDOF 12
ENDMDL
MODEL 2
REMARK VINA RESULT:      -5.9      2.060      2.851
REMARK  Name = 
REMARK  14 active torsions:
REMARK  status: ('A' for Active; 'I' for Inactive)
REMARK    1  A    between atoms: C_1  and  C_2
REMARK    2  A    between atoms: C_2  and  C_3
REMARK    3  A    between atoms: C_3  and  C_4
REMARK    4  A    between atoms: C_4  and  N_5
REMARK    5  A    between atoms: N_5  and  C_6
REMARK    6  A    between atoms: N_5  and  C_10
REMARK    7  A    between atoms: C_6  and  C_7
REMARK    8  A    between atoms: C_7  and  C_8
REMARK    9  A    between atoms: C_8  and  C_9
REMARK   10  A    between atoms: C_10  and  C_11
REMARK   11  A    between atoms: C_11  and  O_12
REMARK   12  A    between atoms: C_11  and  C_13
REMARK   13  A    between atoms: C_13  and  O_14
REMARK   14  A    between atoms: O_14  and  C_15
REMARK                            x       y       z     vdW  Elec       q    Type
REMARK                         _______ _______ _______ _____ _____    ______ ____
ROOT
ATOM      1  C   UNL     1       3.939   4.878  17.448  0.00  0.00    +0.000 C 
ENDROOT
BRANCH   1   2
ATOM      2  O   UNL     1       3.119   5.997  17.679  0.00  0.00    +0.000 OA
ATOM      3  H   UNL     1       3.193   6.235  18.640  0.00  0.00    +0.000 HD
ENDBRANCH   1   2
BRANCH   1   4
ATOM      4  C   UNL     1       5.029   5.189  16.389  0.00  0.00    +0.000 C 
BRANCH   4   5
ATOM      5  N   UNL     1       6.126   4.190  16.311  0.00  0.00    +0.000 NA
BRANCH   5   6
ATOM      6  C   UNL     1       6.203   3.659  14.916  0.00  0.00    +0.000 C 
BRANCH   6   7
ATOM      7  C   UNL     1       6.748   4.650  13.868  0.00  0.00    +0.000 C 
BRANCH   7   9
ATOM      8  C   UNL     1       5.692   3.156  12.075  0.00  0.00    +0.000 C 
ATOM      9  C   UNL     1       6.860   4.072  12.448  0.00  0.00    +0.000 C 
ENDBRANCH   7   9
ENDBRANCH   6   7
ENDBRANCH   5   6
BRANCH   5  10
ATOM     10  C   UNL     1       7.422   4.831  16.690  0.00  0.00    +0.000 C 
BRANCH  10  11
ATOM     11  C   UNL     1       7.687   4.942  18.212  0.00  0.00    +0.000 C 
BRANCH  11  12
ATOM     12  C   UNL     1       7.816   6.395  18.690  0.00  0.00    +0.000 C 
ATOM     13  C   UNL     1       7.592   7.371  17.535  0.00  0.00    +0.000 C 
ENDBRANCH  11  12
ENDBRANCH  10  11
ENDBRANCH   5  10
ENDBRANCH   4   5
ENDBRANCH   1   4
BRANCH   1  14
ATOM     14  C   UNL     1       3.122   3.681  16.959  0.00  0.00    +0.000 C 
BRANCH  14  15
ATOM     15  O   UNL     1       3.087   2.664  17.892  0.00  0.00    +0.000 OA
BRANCH  15  16
ATOM     16  C   UNL     1       2.476   2.785  19.103  0.00  0.00    +0.000 A 
ATOM     17  C   UNL     1       1.135   3.214  19.218  0.00  0.00    +0.000 A 
ATOM     18  C   UNL     1       0.530   3.327  20.468  0.00  0.00    +0.000 A 
ATOM     19  C   UNL     1       1.248   3.015  21.620  0.00  0.00    +0.000 A 
ATOM     20  C   UNL     1       2.576   2.589  21.524  0.00  0.00    +0.000 A 
ATOM     21  C   UNL     1       3.192   2.472  20.271  0.00  0.00    +0.000 A 
ATOM     22 BR   UNL     1       5.010   1.883  20.181  0.00  0.00    +0.000 Br
ENDBRANCH  15  16
ENDBRANCH  14  15
ENDBRANCH   1  14
TORSDOF 12
ENDMDL
MODEL 3
REMARK VINA RESULT:      -5.9      1.490      1.897
REMARK  Name = 
REMARK  14 active torsions:
REMARK  status: ('A' for Active; 'I' for Inactive)
REMARK    1  A    between atoms: C_1  and  C_2
REMARK    2  A    between atoms: C_2  and  C_3
REMARK    3  A    between atoms: C_3  and  C_4
REMARK    4  A    between atoms: C_4  and  N_5
REMARK    5  A    between atoms: N_5  and  C_6
REMARK    6  A    between atoms: N_5  and  C_10
REMARK    7  A    between atoms: C_6  and  C_7
REMARK    8  A    between atoms: C_7  and  C_8
REMARK    9  A    between atoms: C_8  and  C_9
REMARK   10  A    between atoms: C_10  and  C_11
REMARK   11  A    between atoms: C_11  and  O_12
REMARK   12  A    between atoms: C_11  and  C_13
REMARK   13  A    between atoms: C_13  and  O_14
REMARK   14  A    between atoms: O_14  and  C_15
REMARK                            x       y       z     vdW  Elec       q    Type
REMARK                         _______ _______ _______ _____ _____    ______ ____
ROOT
ATOM      1  C   UNL     1       6.791   4.710  18.312  0.00  0.00    +0.000 C 
ENDROOT
BRANCH   1   2
ATOM      2  O   UNL     1       8.092   4.609  18.836  0.00  0.00    +0.000 OA
ATOM      3  H   UNL     1       8.334   5.492  19.220  0.00  0.00    +0.000 HD
ENDBRANCH   1   2
BRANCH   1   4
ATOM      4  C   UNL     1       6.565   6.087  17.636  0.00  0.00    +0.000 C 
BRANCH   4   5
ATOM      5  N   UNL     1       6.271   6.027  16.179  0.00  0.00    +0.000 NA
BRANCH   5   6
ATOM      6  C   UNL     1       6.315   4.602  15.732  0.00  0.00    +0.000 C 
BRANCH   6   7
ATOM      7  C   UNL     1       5.518   4.293  14.449  0.00  0.00    +0.000 C 
BRANCH   7   9
ATOM      8  C   UNL     1       5.664   3.163  12.156  0.00  0.00    +0.000 C 
ATOM      9  C   UNL     1       6.389   3.988  13.220  0.00  0.00    +0.000 C 
ENDBRANCH   7   9
ENDBRANCH   6   7
ENDBRANCH   5   6
BRANCH   5  10
ATOM     10  C   UNL     1       4.921   6.610  15.911  0.00  0.00    +0.000 C 
BRANCH  10  11
ATOM     11  C   UNL     1       4.388   7.577  16.997  0.00  0.00    +0.000 C 
BRANCH  11  12
ATOM     12  C   UNL     1       2.907   7.346  17.326  0.00  0.00    +0.000 C 
ATOM     13  C   UNL     1       2.247   8.639  17.805  0.00  0.00    +0.000 C 
ENDBRANCH  11  12
ENDBRANCH  10  11
ENDBRANCH   5  10
ENDBRANCH   4   5
ENDBRANCH   1   4
BRANCH   1  14
ATOM     14  C   UNL     1       5.736   4.533  19.406  0.00  0.00    +0.000 C 
BRANCH  14  15
ATOM     15  O   UNL     1       4.485   4.938  18.988  0.00  0.00    +0.000 OA
BRANCH  15  16
ATOM     16  C   UNL     1       3.443   4.077  18.817  0.00  0.00    +0.000 A 
ATOM     17  C   UNL     1       3.539   2.954  17.965  0.00  0.00    +0.000 A 
ATOM     18  C   UNL     1       2.460   2.087  17.810  0.00  0.00    +0.000 A 
ATOM     19  C   UNL     1       1.272   2.321  18.499  0.00  0.00    +0.000 A 
ATOM     20  C   UNL     1       1.161   3.427  19.346  0.00  0.00    +0.000 A 
ATOM     21  C   UNL     1       2.241   4.305  19.509  0.00  0.00    +0.000 A 
ATOM     22 BR   UNL     1       2.050   5.806  20.680  0.00  0.00    +0.000 Br
ENDBRANCH  15  16
ENDBRANCH  14  15
ENDBRANCH   1  14
TORSDOF 12
ENDMDL
MODEL 4
REMARK VINA RESULT:      -5.9      1.776      2.739
REMARK  Name = 
REMARK  14 active torsions:
REMARK  status: ('A' for Active; 'I' for Inactive)
REMARK    1  A    between atoms: C_1  and  C_2
REMARK    2  A    between atoms: C_2  and  C_3
REMARK    3  A    between atoms: C_3  and  C_4
REMARK    4  A    between atoms: C_4  and  N_5
REMARK    5  A    between atoms: N_5  and  C_6
REMARK    6  A    between atoms: N_5  and  C_10
REMARK    7  A    between atoms: C_6  and  C_7
REMARK    8  A    between atoms: C_7  and  C_8
REMARK    9  A    between atoms: C_8  and  C_9
REMARK   10  A    between atoms: C_10  and  C_11
REMARK   11  A    between atoms: C_11  and  O_12
REMARK   12  A    between atoms: C_11  and  C_13
REMARK   13  A    between atoms: C_13  and  O_14
REMARK   14  A    between atoms: O_14  and  C_15
REMARK                            x       y       z     vdW  Elec       q    Type
REMARK                         _______ _______ _______ _____ _____    ______ ____
ROOT
ATOM      1  C   UNL     1       4.490   6.813  17.493  0.00  0.00    +0.000 C 
ENDROOT
BRANCH   1   2
ATOM      2  O   UNL     1       3.286   7.463  17.171  0.00  0.00    +0.000 OA
ATOM      3  H   UNL     1       2.636   6.771  16.880  0.00  0.00    +0.000 HD
ENDBRANCH   1   2
BRANCH   1   4
ATOM      4  C   UNL     1       5.046   6.027  16.277  0.00  0.00    +0.000 C 
BRANCH   4   5
ATOM      5  N   UNL     1       5.783   4.782  16.622  0.00  0.00    +0.000 NA
BRANCH   5   6
ATOM      6  C   UNL     1       5.568   3.773  15.542  0.00  0.00    +0.000 C 
BRANCH   6   7
ATOM      7  C   UNL     1       6.202   4.126  14.181  0.00  0.00    +0.000 C 
BRANCH   7   9
ATOM      8  C   UNL     1       5.887   2.892  11.959  0.00  0.00    +0.000 C 
ATOM      9  C   UNL     1       5.289   3.871  12.972  0.00  0.00    +0.000 C 
ENDBRANCH   7   9
ENDBRANCH   6   7
ENDBRANCH   5   6
BRANCH   5  10
ATOM     10  C   UNL     1       7.240   5.081  16.766  0.00  0.00    +0.000 C 
BRANCH  10  11
ATOM     11  C   UNL     1       7.858   4.732  18.143  0.00  0.00    +0.000 C 
BRANCH  11  12
ATOM     12  C   UNL     1       7.895   5.930  19.101  0.00  0.00    +0.000 C 
ATOM     13  C   UNL     1       8.031   7.242  18.328  0.00  0.00    +0.000 C 
ENDBRANCH  11  12
ENDBRANCH  10  11
ENDBRANCH   5  10
ENDBRANCH   4   5
ENDBRANCH   1   4
BRANCH   1  14
ATOM     14  C   UNL     1       4.300   5.833  18.652  0.00  0.00    +0.000 C 
BRANCH  14  15
ATOM     15  O   UNL     1       2.966   5.582  18.903  0.00  0.00    +0.000 OA
BRANCH  15  16
ATOM     16  C   UNL     1       2.536   4.541  19.669  0.00  0.00    +0.000 A 
ATOM     17  C   UNL     1       2.395   4.658  21.070  0.00  0.00    +0.000 A 
ATOM     18  C   UNL     1       1.950   3.580  21.831  0.00  0.00    +0.000 A 
ATOM     19  C   UNL     1       1.639   2.371  21.213  0.00  0.00    +0.000 A 
ATOM     20  C   UNL     1       1.775   2.238  19.829  0.00  0.00    +0.000 A 
ATOM     21  C   UNL     1       2.220   3.317  19.054  0.00  0.00    +0.000 A 
ATOM     22 BR   UNL     1       2.389   3.096  17.161  0.00  0.00    +0.000 Br
ENDBRANCH  15  16
ENDBRANCH  14  15
ENDBRANCH   1  14
TORSDOF 12
ENDMDL
MODEL 5
REMARK VINA RESULT:      -5.8      2.213      3.508
REMARK  Name = 
REMARK  14 active torsions:
REMARK  status: ('A' for Active; 'I' for Inactive)
REMARK    1  A    between atoms: C_1  and  C_2
REMARK    2  A    between atoms: C_2  and  C_3
REMARK    3  A    between atoms: C_3  and  C_4
REMARK    4  A    between atoms: C_4  and  N_5
REMARK    5  A    between atoms: N_5  and  C_6
REMARK    6  A    between atoms: N_5  and  C_10
REMARK    7  A    between atoms: C_6  and  C_7
REMARK    8  A    between atoms: C_7  and  C_8
REMARK    9  A    between atoms: C_8  and  C_9
REMARK   10  A    between atoms: C_10  and  C_11
REMARK   11  A    between atoms: C_11  and  O_12
REMARK   12  A    between atoms: C_11  and  C_13
REMARK   13  A    between atoms: C_13  and  O_14
REMARK   14  A    between atoms: O_14  and  C_15
REMARK                            x       y       z     vdW  Elec       q    Type
REMARK                         _______ _______ _______ _____ _____    ______ ____
ROOT
ATOM      1  C   UNL     1       4.182   3.457  17.026  0.00  0.00    +0.000 C 
ENDROOT
BRANCH   1   2
ATOM      2  O   UNL     1       4.080   2.187  17.619  0.00  0.00    +0.000 OA
ATOM      3  H   UNL     1       4.854   2.075  18.232  0.00  0.00    +0.000 HD
ENDBRANCH   1   2
BRANCH   1   4
ATOM      4  C   UNL     1       5.568   4.096  17.303  0.00  0.00    +0.000 C 
BRANCH   4   5
ATOM      5  N   UNL     1       6.477   4.149  16.128  0.00  0.00    +0.000 NA
BRANCH   5   6
ATOM      6  C   UNL     1       5.665   4.047  14.879  0.00  0.00    +0.000 C 
BRANCH   6   7
ATOM      7  C   UNL     1       6.447   4.273  13.570  0.00  0.00    +0.000 C 
BRANCH   7   9
ATOM      8  C   UNL     1       4.742   3.370  11.886  0.00  0.00    +0.000 C 
ATOM      9  C   UNL     1       6.151   3.243  12.468  0.00  0.00    +0.000 C 
ENDBRANCH   7   9
ENDBRANCH   6   7
ENDBRANCH   5   6
BRANCH   5  10
ATOM     10  C   UNL     1       7.246   5.430  16.141  0.00  0.00    +0.000 C 
BRANCH  10  11
ATOM     11  C   UNL     1       6.471   6.664  16.668  0.00  0.00    +0.000 C 
BRANCH  11  12
ATOM     12  C   UNL     1       7.301   7.521  17.634  0.00  0.00    +0.000 C 
ATOM     13  C   UNL     1       8.033   6.643  18.649  0.00  0.00    +0.000 C 
ENDBRANCH  11  12
ENDBRANCH  10  11
ENDBRANCH   5  10
ENDBRANCH   4   5
ENDBRANCH   1   4
BRANCH   1  14
ATOM     14  C   UNL     1       3.102   4.405  17.553  0.00  0.00    +0.000 C 
BRANCH  14  15
ATOM     15  O   UNL     1       3.635   5.415  18.328  0.00  0.00    +0.000 OA
BRANCH  15  16
ATOM     16  C   UNL     1       2.973   6.575  18.595  0.00  0.00    +0.000 A 
ATOM     17  C   UNL     1       3.035   7.684  17.723  0.00  0.00    +0.000 A 
ATOM     18  C   UNL     1       2.346   8.859  18.017  0.00  0.00    +0.000 A 
ATOM     19  C   UNL     1       1.586   8.949  19.181  0.00  0.00    +0.000 A 
ATOM     20  C   UNL     1       1.514   7.861  20.055  0.00  0.00    +0.000 A 
ATOM     21  C   UNL     1       2.202   6.675  19.767  0.00  0.00    +0.000 A 
ATOM     22 BR   UNL     1       2.076   5.207  20.988  0.00  0.00    +0.000 Br
ENDBRANCH  15  16
ENDBRANCH  14  15
ENDBRANCH   1  14
TORSDOF 12
ENDMDL
MODEL 6
REMARK VINA RESULT:      -5.7      2.377      4.435
REMARK  Name = 
REMARK  14 active torsions:
REMARK  status: ('A' for Active; 'I' for Inactive)
REMARK    1  A    between atoms: C_1  and  C_2
REMARK    2  A    between atoms: C_2  and  C_3
REMARK    3  A    between atoms: C_3  and  C_4
REMARK    4  A    between atoms: C_4  and  N_5
REMARK    5  A    between atoms: N_5  and  C_6
REMARK    6  A    between atoms: N_5  and  C_10
REMARK    7  A    between atoms: C_6  and  C_7
REMARK    8  A    between atoms: C_7  and  C_8
REMARK    9  A    between atoms: C_8  and  C_9
REMARK   10  A    between atoms: C_10  and  C_11
REMARK   11  A    between atoms: C_11  and  O_12
REMARK   12  A    between atoms: C_11  and  C_13
REMARK   13  A    between atoms: C_13  and  O_14
REMARK   14  A    between atoms: O_14  and  C_15
REMARK                            x       y       z     vdW  Elec       q    Type
REMARK                         _______ _______ _______ _____ _____    ______ ____
ROOT
ATOM      1  C   UNL     1       4.564   6.646  17.536  0.00  0.00    +0.000 C 
ENDROOT
BRANCH   1   2
ATOM      2  O   UNL     1       3.508   7.573  17.565  0.00  0.00    +0.000 OA
ATOM      3  H   UNL     1       3.329   7.858  16.630  0.00  0.00    +0.000 HD
ENDBRANCH   1   2
BRANCH   1   4
ATOM      4  C   UNL     1       5.247   6.615  16.144  0.00  0.00    +0.000 C 
BRANCH   4   5
ATOM      5  N   UNL     1       6.728   6.489  16.178  0.00  0.00    +0.000 NA
BRANCH   5   6
ATOM      6  C   UNL     1       7.231   7.004  17.487  0.00  0.00    +0.000 C 
BRANCH   6   7
ATOM      7  C   UNL     1       7.799   8.436  17.452  0.00  0.00    +0.000 C 
BRANCH   7   9
ATOM      8  C   UNL     1       9.078  10.277  18.692  0.00  0.00    +0.000 C 
ATOM      9  C   UNL     1       8.672   8.802  18.663  0.00  0.00    +0.000 C 
ENDBRANCH   7   9
ENDBRANCH   6   7
ENDBRANCH   5   6
BRANCH   5  10
ATOM     10  C   UNL     1       7.117   5.057  16.003  0.00  0.00    +0.000 C 
BRANCH  10  11
ATOM     11  C   UNL     1       6.262   4.254  14.990  0.00  0.00    +0.000 C 
BRANCH  11  12
ATOM     12  C   UNL     1       6.764   4.391  13.547  0.00  0.00    +0.000 C 
ATOM     13  C   UNL     1       6.000   3.452  12.613  0.00  0.00    +0.000 C 
ENDBRANCH  11  12
ENDBRANCH  10  11
ENDBRANCH   5  10
ENDBRANCH   4   5
ENDBRANCH   1   4
BRANCH   1  14
ATOM     14  C   UNL     1       4.073   5.234  17.862  0.00  0.00    +0.000 C 
BRANCH  14  15
ATOM     15  O   UNL     1       2.832   5.244  18.467  0.00  0.00    +0.000 OA
BRANCH  15  16
ATOM     16  C   UNL     1       2.485   4.386  19.466  0.00  0.00    +0.000 A 
ATOM     17  C   UNL     1       2.318   4.826  20.798  0.00  0.00    +0.000 A 
ATOM     18  C   UNL     1       1.958   3.929  21.802  0.00  0.00    +0.000 A 
ATOM     19  C   UNL     1       1.760   2.585  21.497  0.00  0.00    +0.000 A 
ATOM     20  C   UNL     1       1.921   2.133  20.185  0.00  0.00    +0.000 A 
ATOM     21  C   UNL     1       2.281   3.028  19.168  0.00  0.00    +0.000 A 
ATOM     22 BR   UNL     1       2.490   2.371  17.383  0.00  0.00    +0.000 Br
ENDBRANCH  15  16
ENDBRANCH  14  15
ENDBRANCH   1  14
TORSDOF 12
ENDMDL
MODEL 7
REMARK VINA RESULT:      -5.7      2.323      2.946
REMARK  Name = 
REMARK  14 active torsions:
REMARK  status: ('A' for Active; 'I' for Inactive)
REMARK    1  A    between atoms: C_1  and  C_2
REMARK    2  A    between atoms: C_2  and  C_3
REMARK    3  A    between atoms: C_3  and  C_4
REMARK    4  A    between atoms: C_4  and  N_5
REMARK    5  A    between atoms: N_5  and  C_6
REMARK    6  A    between atoms: N_5  and  C_10
REMARK    7  A    between atoms: C_6  and  C_7
REMARK    8  A    between atoms: C_7  and  C_8
REMARK    9  A    between atoms: C_8  and  C_9
REMARK   10  A    between atoms: C_10  and  C_11
REMARK   11  A    between atoms: C_11  and  O_12
REMARK   12  A    between atoms: C_11  and  C_13
REMARK   13  A    between atoms: C_13  and  O_14
REMARK   14  A    between atoms: O_14  and  C_15
REMARK                            x       y       z     vdW  Elec       q    Type
REMARK                         _______ _______ _______ _____ _____    ______ ____
ROOT
ATOM      1  C   UNL     1       5.393   4.268  17.651  0.00  0.00    +0.000 C 
ENDROOT
BRANCH   1   2
ATOM      2  O   UNL     1       4.975   3.005  17.196  0.00  0.00    +0.000 OA
ATOM      3  H   UNL     1       5.510   2.781  16.390  0.00  0.00    +0.000 HD
ENDBRANCH   1   2
BRANCH   1   4
ATOM      4  C   UNL     1       6.760   4.663  17.036  0.00  0.00    +0.000 C 
BRANCH   4   5
ATOM      5  N   UNL     1       6.737   5.892  16.199  0.00  0.00    +0.000 NA
BRANCH   5   6
ATOM      6  C   UNL     1       5.634   5.779  15.198  0.00  0.00    +0.000 C 
BRANCH   6   7
ATOM      7  C   UNL     1       5.793   4.636  14.176  0.00  0.00    +0.000 C 
BRANCH   7   9
ATOM      8  C   UNL     1       7.427   5.052  12.248  0.00  0.00    +0.000 C 
ATOM      9  C   UNL     1       7.223   4.456  13.643  0.00  0.00    +0.000 C 
ENDBRANCH   7   9
ENDBRANCH   6   7
ENDBRANCH   5   6
BRANCH   5  10
ATOM     10  C   UNL     1       6.525   7.090  17.067  0.00  0.00    +0.000 C 
BRANCH  10  11
ATOM     11  C   UNL     1       7.770   7.568  17.856  0.00  0.00    +0.000 C 
BRANCH  11  12
ATOM     12  C   UNL     1       8.034   9.071  17.700  0.00  0.00    +0.000 C 
ATOM     13  C   UNL     1       8.911   9.592  18.839  0.00  0.00    +0.000 C 
ENDBRANCH  11  12
ENDBRANCH  10  11
ENDBRANCH   5  10
ENDBRANCH   4   5
ENDBRANCH   1   4
BRANCH   1  14
ATOM     14  C   UNL     1       5.526   4.294  19.175  0.00  0.00    +0.000 C 
BRANCH  14  15
ATOM     15  O   UNL     1       4.476   4.960  19.774  0.00  0.00    +0.000 OA
BRANCH  15  16
ATOM     16  C   UNL     1       3.278   4.370  20.043  0.00  0.00    +0.000 A 
ATOM     17  C   UNL     1       3.170   2.982  20.284  0.00  0.00    +0.000 A 
ATOM     18  C   UNL     1       1.933   2.403  20.559  0.00  0.00    +0.000 A 
ATOM     19  C   UNL     1       0.787   3.194  20.599  0.00  0.00    +0.000 A 
ATOM     20  C   UNL     1       0.876   4.568  20.362  0.00  0.00    +0.000 A 
ATOM     21  C   UNL     1       2.115   5.159  20.085  0.00  0.00    +0.000 A 
ATOM     22 BR   UNL     1       2.196   7.045  19.769  0.00  0.00    +0.000 Br
ENDBRANCH  15  16
ENDBRANCH  14  15
ENDBRANCH   1  14
TORSDOF 12
ENDMDL
MODEL 8
REMARK VINA RESULT:      -5.7      2.113      4.599
REMARK  Name = 
REMARK  14 active torsions:
REMARK  status: ('A' for Active; 'I' for Inactive)
REMARK    1  A    between atoms: C_1  and  C_2
REMARK    2  A    between atoms: C_2  and  C_3
REMARK    3  A    between atoms: C_3  and  C_4
REMARK    4  A    between atoms: C_4  and  N_5
REMARK    5  A    between atoms: N_5  and  C_6
REMARK    6  A    between atoms: N_5  and  C_10
REMARK    7  A    between atoms: C_6  and  C_7
REMARK    8  A    between atoms: C_7  and  C_8
REMARK    9  A    between atoms: C_8  and  C_9
REMARK   10  A    between atoms: C_10  and  C_11
REMARK   11  A    between atoms: C_11  and  O_12
REMARK   12  A    between atoms: C_11  and  C_13
REMARK   13  A    between atoms: C_13  and  O_14
REMARK   14  A    between atoms: O_14  and  C_15
REMARK                            x       y       z     vdW  Elec       q    Type
REMARK                         _______ _______ _______ _____ _____    ______ ____
ROOT
ATOM      1  C   UNL     1       4.502   3.868  18.106  0.00  0.00    +0.000 C 
ENDROOT
BRANCH   1   2
ATOM      2  O   UNL     1       5.264   3.266  19.122  0.00  0.00    +0.000 OA
ATOM      3  H   UNL     1       6.041   2.818  18.694  0.00  0.00    +0.000 HD
ENDBRANCH   1   2
BRANCH   1   4
ATOM      4  C   UNL     1       5.198   3.731  16.726  0.00  0.00    +0.000 C 
BRANCH   4   5
ATOM      5  N   UNL     1       5.614   5.016  16.106  0.00  0.00    +0.000 NA
BRANCH   5   6
ATOM      6  C   UNL     1       6.996   5.352  16.562  0.00  0.00    +0.000 C 
BRANCH   6   7
ATOM      7  C   UNL     1       7.176   6.783  17.107  0.00  0.00    +0.000 C 
BRANCH   7   9
ATOM      8  C   UNL     1       7.717   5.759  19.391  0.00  0.00    +0.000 C 
ATOM      9  C   UNL     1       8.023   6.872  18.386  0.00  0.00    +0.000 C 
ENDBRANCH   7   9
ENDBRANCH   6   7
ENDBRANCH   5   6
BRANCH   5  10
ATOM     10  C   UNL     1       5.578   4.894  14.617  0.00  0.00    +0.000 C 
BRANCH  10  11
ATOM     11  C   UNL     1       6.775   4.143  13.983  0.00  0.00    +0.000 C 
BRANCH  11  12
ATOM     12  C   UNL     1       6.645   3.991  12.461  0.00  0.00    +0.000 C 
ATOM     13  C   UNL     1       5.349   3.268  12.094  0.00  0.00    +0.000 C 
ENDBRANCH  11  12
ENDBRANCH  10  11
ENDBRANCH   5  10
ENDBRANCH   4   5
ENDBRANCH   1   4
BRANCH   1  14
ATOM     14  C   UNL     1       4.280   5.356  18.385  0.00  0.00    +0.000 C 
BRANCH  14  15
ATOM     15  O   UNL     1       2.960   5.722  18.217  0.00  0.00    +0.000 OA
BRANCH  15  16
ATOM     16  C   UNL     1       2.381   6.751  18.896  0.00  0.00    +0.000 A 
ATOM     17  C   UNL     1       2.263   8.041  18.331  0.00  0.00    +0.000 A 
ATOM     18  C   UNL     1       1.664   9.076  19.045  0.00  0.00    +0.000 A 
ATOM     19  C   UNL     1       1.173   8.846  20.327  0.00  0.00    +0.000 A 
ATOM     20  C   UNL     1       1.281   7.577  20.901  0.00  0.00    +0.000 A 
ATOM     21  C   UNL     1       1.882   6.528  20.191  0.00  0.00    +0.000 A 
ATOM     22 BR   UNL     1       2.009   4.804  21.010  0.00  0.00    +0.000 Br
ENDBRANCH  15  16
ENDBRANCH  14  15
ENDBRANCH   1  14
TORSDOF 12
ENDMDL
MODEL 9
REMARK VINA RESULT:      -5.7      1.779      3.036
REMARK  Name = 
REMARK  14 active torsions:
REMARK  status: ('A' for Active; 'I' for Inactive)
REMARK    1  A    between atoms: C_1  and  C_2
REMARK    2  A    between atoms: C_2  and  C_3
REMARK    3  A    between atoms: C_3  and  C_4
REMARK    4  A    between atoms: C_4  and  N_5
REMARK    5  A    between atoms: N_5  and  C_6
REMARK    6  A    between atoms: N_5  and  C_10
REMARK    7  A    between atoms: C_6  and  C_7
REMARK    8  A    between atoms: C_7  and  C_8
REMARK    9  A    between atoms: C_8  and  C_9
REMARK   10  A    between atoms: C_10  and  C_11
REMARK   11  A    between atoms: C_11  and  O_12
REMARK   12  A    between atoms: C_11  and  C_13
REMARK   13  A    between atoms: C_13  and  O_14
REMARK   14  A    between atoms: O_14  and  C_15
REMARK                            x       y       z     vdW  Elec       q    Type
REMARK                         _______ _______ _______ _____ _____    ______ ____
ROOT
ATOM      1  C   UNL     1       4.327   2.818  17.680  0.00  0.00    +0.000 C 
ENDROOT
BRANCH   1   2
ATOM      2  O   UNL     1       5.123   3.228  18.764  0.00  0.00    +0.000 OA
ATOM      3  H   UNL     1       5.498   2.413  19.190  0.00  0.00    +0.000 HD
ENDBRANCH   1   2
BRANCH   1   4
ATOM      4  C   UNL     1       4.417   3.826  16.505  0.00  0.00    +0.000 C 
BRANCH   4   5
ATOM      5  N   UNL     1       5.798   4.246  16.146  0.00  0.00    +0.000 NA
BRANCH   5   6
ATOM      6  C   UNL     1       6.152   3.668  14.815  0.00  0.00    +0.000 C 
BRANCH   6   7
ATOM      7  C   UNL     1       6.850   4.641  13.844  0.00  0.00    +0.000 C 
BRANCH   7   9
ATOM      8  C   UNL     1       5.778   3.153  12.057  0.00  0.00    +0.000 C 
ATOM      9  C   UNL     1       6.874   4.169  12.381  0.00  0.00    +0.000 C 
ENDBRANCH   7   9
ENDBRANCH   6   7
ENDBRANCH   5   6
BRANCH   5  10
ATOM     10  C   UNL     1       5.876   5.737  16.099  0.00  0.00    +0.000 C 
BRANCH  10  11
ATOM     11  C   UNL     1       6.705   6.395  17.230  0.00  0.00    +0.000 C 
BRANCH  11  12
ATOM     12  C   UNL     1       7.617   5.398  17.958  0.00  0.00    +0.000 C 
ATOM     13  C   UNL     1       7.789   5.789  19.426  0.00  0.00    +0.000 C 
ENDBRANCH  11  12
ENDBRANCH  10  11
ENDBRANCH   5  10
ENDBRANCH   4   5
ENDBRANCH   1   4
BRANCH   1  14
ATOM     14  C   UNL     1       2.858   2.686  18.088  0.00  0.00    +0.000 C 
BRANCH  14  15
ATOM     15  O   UNL     1       2.131   3.815  17.772  0.00  0.00    +0.000 OA
BRANCH  15  16
ATOM     16  C   UNL     1       2.117   4.933  18.549  0.00  0.00    +0.000 A 
ATOM     17  C   UNL     1       2.491   6.197  18.038  0.00  0.00    +0.000 A 
ATOM     18  C   UNL     1       2.466   7.327  18.853  0.00  0.00    +0.000 A 
ATOM     19  C   UNL     1       2.070   7.219  20.184  0.00  0.00    +0.000 A 
ATOM     20  C   UNL     1       1.697   5.976  20.704  0.00  0.00    +0.000 A 
ATOM     21  C   UNL     1       1.718   4.834  19.893  0.00  0.00    +0.000 A 
ATOM     22 BR   UNL     1       1.198   3.152  20.642  0.00  0.00    +0.000 Br
ENDBRANCH  15  16
ENDBRANCH  14  15
ENDBRANCH   1  14
TORSDOF 12
ENDMDL
