MODEL 1
REMARK VINA RESULT:      -8.1      0.000      0.000
REMARK  Name = 
REMARK  1 active torsions:
REMARK  status: ('A' for Active; 'I' for Inactive)
REMARK    1  A    between atoms: C_2  and  C_9
REMARK                            x       y       z     vdW  Elec       q    Type
REMARK                         _______ _______ _______ _____ _____    ______ ____
ROOT
ATOM      1  C   UNL     1       1.513   8.407  20.305  0.00  0.00    +0.000 A 
ATOM      2  C   UNL     1       1.928   8.767  19.022  0.00  0.00    +0.000 A 
ATOM      3  C   UNL     1       2.343   7.785  18.120  0.00  0.00    +0.000 A 
ATOM      4  C   UNL     1       2.353   6.435  18.520  0.00  0.00    +0.000 A 
ATOM      5  C   UNL     1       2.668   5.231  17.853  0.00  0.00    +0.000 A 
ATOM      6  C   UNL     1       2.577   4.181  18.750  0.00  0.00    +0.000 A 
ATOM      7  N   UNL     1       2.153   4.719  19.952  0.00  0.00    +0.000 N 
ATOM      8  C   UNL     1       1.994   6.095  19.823  0.00  0.00    +0.000 A 
ATOM      9  C   UNL     1       1.561   7.072  20.739  0.00  0.00    +0.000 A 
ATOM     10  C   UNL     1       1.844   3.999  21.179  0.00  0.00    +0.000 C 
ATOM     11  C   UNL     1       2.575   2.690  21.488  0.00  0.00    +0.000 C 
ATOM     12  C   UNL     1       3.866   2.502  20.716  0.00  0.00    +0.000 C 
ATOM     13  N   UNL     1       3.556   2.075  19.376  0.00  0.00    +0.000 N 
ATOM     14  C   UNL     1       2.894   2.809  18.432  0.00  0.00    +0.000 C 
ATOM     15  O   UNL     1       2.661   2.295  17.341  0.00  0.00    +0.000 OA
ATOM     16  H   UNL     1       3.786   1.136  19.077  0.00  0.00    +0.000 HD
ENDROOT
BRANCH   1  18
ATOM     17  O   UNL     1       1.295   9.326  22.433  0.00  0.00    +0.000 OA
ATOM     18  C   UNL     1       0.995   9.430  21.251  0.00  0.00    +0.000 C 
ATOM     19  N   UNL     1       0.150  10.348  20.670  0.00  0.00    +0.000 N 
ATOM     20  C   UNL     1      -0.475  11.315  21.401  0.00  0.00    +0.000 A 
ATOM     21  N   UNL     1      -0.260  11.693  22.634  0.00  0.00    +0.000 NA
ATOM     22  C   UNL     1      -1.179  12.660  22.982  0.00  0.00    +0.000 A 
ATOM     23  C   UNL     1      -2.083  13.002  21.998  0.00  0.00    +0.000 A 
ATOM     24  S   UNL     1      -1.730  12.122  20.567  0.00  0.00    +0.000 S 
ATOM     25  H   UNL     1      -0.162  10.231  19.717  0.00  0.00    +0.000 HD
ENDBRANCH   1  18
TORSDOF 1
ENDMDL
MODEL 2
REMARK VINA RESULT:      -7.8      1.926      2.301
REMARK  Name = 
REMARK  1 active torsions:
REMARK  status: ('A' for Active; 'I' for Inactive)
REMARK    1  A    between atoms: C_2  and  C_9
REMARK                            x       y       z     vdW  Elec       q    Type
REMARK                         _______ _______ _______ _____ _____    ______ ____
ROOT
ATOM      1  C   UNL     1       2.574   8.090  18.100  0.00  0.00    +0.000 A 
ATOM      2  C   UNL     1       3.714   7.946  17.308  0.00  0.00    +0.000 A 
ATOM      3  C   UNL     1       4.309   6.691  17.160  0.00  0.00    +0.000 A 
ATOM      4  C   UNL     1       3.759   5.579  17.827  0.00  0.00    +0.000 A 
ATOM      5  C   UNL     1       4.087   4.206  17.850  0.00  0.00    +0.000 A 
ATOM      6  C   UNL     1       3.250   3.558  18.741  0.00  0.00    +0.000 A 
ATOM      7  N   UNL     1       2.369   4.509  19.226  0.00  0.00    +0.000 N 
ATOM      8  C   UNL     1       2.656   5.747  18.661  0.00  0.00    +0.000 A 
ATOM      9  C   UNL     1       2.038   7.003  18.811  0.00  0.00    +0.000 A 
ATOM     10  C   UNL     1       1.256   4.294  20.138  0.00  0.00    +0.000 C 
ATOM     11  C   UNL     1       1.335   3.165  21.169  0.00  0.00    +0.000 C 
ATOM     12  C   UNL     1       2.741   2.670  21.443  0.00  0.00    +0.000 C 
ATOM     13  N   UNL     1       3.149   1.795  20.374  0.00  0.00    +0.000 N 
ATOM     14  C   UNL     1       3.342   2.155  19.070  0.00  0.00    +0.000 C 
ATOM     15  O   UNL     1       3.648   1.287  18.257  0.00  0.00    +0.000 OA
ATOM     16  H   UNL     1       3.268   0.805  20.547  0.00  0.00    +0.000 HD
ENDROOT
BRANCH   1  18
ATOM     17  O   UNL     1       2.186  10.280  17.411  0.00  0.00    +0.000 OA
ATOM     18  C   UNL     1       1.883   9.402  18.207  0.00  0.00    +0.000 C 
ATOM     19  N   UNL     1       1.020   9.489  19.277  0.00  0.00    +0.000 N 
ATOM     20  C   UNL     1       0.355  10.643  19.572  0.00  0.00    +0.000 A 
ATOM     21  N   UNL     1       0.220  11.730  18.859  0.00  0.00    +0.000 NA
ATOM     22  C   UNL     1      -0.477  12.671  19.586  0.00  0.00    +0.000 A 
ATOM     23  C   UNL     1      -0.862  12.277  20.851  0.00  0.00    +0.000 A 
ATOM     24  S   UNL     1      -0.385  10.649  21.113  0.00  0.00    +0.000 S 
ATOM     25  H   UNL     1       0.981   8.756  19.970  0.00  0.00    +0.000 HD
ENDBRANCH   1  18
TORSDOF 1
ENDMDL
MODEL 3
REMARK VINA RESULT:      -7.8      1.420      1.532
REMARK  Name = 
REMARK  1 active torsions:
REMARK  status: ('A' for Active; 'I' for Inactive)
REMARK    1  A    between atoms: C_2  and  C_9
REMARK                            x       y       z     vdW  Elec       q    Type
REMARK                         _______ _______ _______ _____ _____    ______ ____
ROOT
ATOM      1  C   UNL     1       1.882   8.427  18.940  0.00  0.00    +0.000 A 
ATOM      2  C   UNL     1       2.821   8.524  17.913  0.00  0.00    +0.000 A 
ATOM      3  C   UNL     1       3.458   7.375  17.437  0.00  0.00    +0.000 A 
ATOM      4  C   UNL     1       3.155   6.126  18.011  0.00  0.00    +0.000 A 
ATOM      5  C   UNL     1       3.581   4.807  17.736  0.00  0.00    +0.000 A 
ATOM      6  C   UNL     1       3.016   3.950  18.663  0.00  0.00    +0.000 A 
ATOM      7  N   UNL     1       2.200   4.719  19.474  0.00  0.00    +0.000 N 
ATOM      8  C   UNL     1       2.260   6.050  19.075  0.00  0.00    +0.000 A 
ATOM      9  C   UNL     1       1.601   7.197  19.558  0.00  0.00    +0.000 A 
ATOM     10  C   UNL     1       1.340   4.254  20.552  0.00  0.00    +0.000 C 
ATOM     11  C   UNL     1       1.732   3.003  21.342  0.00  0.00    +0.000 C 
ATOM     12  C   UNL     1       3.195   2.629  21.227  0.00  0.00    +0.000 C 
ATOM     13  N   UNL     1       3.415   1.967  19.966  0.00  0.00    +0.000 N 
ATOM     14  C   UNL     1       3.282   2.532  18.729  0.00  0.00    +0.000 C 
ATOM     15  O   UNL     1       3.460   1.830  17.737  0.00  0.00    +0.000 OA
ATOM     16  H   UNL     1       3.642   0.981  19.943  0.00  0.00    +0.000 HD
ENDROOT
BRANCH   1  18
ATOM     17  O   UNL     1       1.224  10.652  18.745  0.00  0.00    +0.000 OA
ATOM     18  C   UNL     1       1.139   9.627  19.407  0.00  0.00    +0.000 C 
ATOM     19  N   UNL     1       0.494   9.447  20.611  0.00  0.00    +0.000 N 
ATOM     20  C   UNL     1      -0.177  10.464  21.225  0.00  0.00    +0.000 A 
ATOM     21  N   UNL     1      -0.519  11.636  20.759  0.00  0.00    +0.000 NA
ATOM     22  C   UNL     1      -1.125  12.367  21.758  0.00  0.00    +0.000 A 
ATOM     23  C   UNL     1      -1.232  11.730  22.978  0.00  0.00    +0.000 A 
ATOM     24  S   UNL     1      -0.606  10.137  22.848  0.00  0.00    +0.000 S 
ATOM     25  H   UNL     1       0.637   8.609  21.153  0.00  0.00    +0.000 HD
ENDBRANCH   1  18
TORSDOF 1
ENDMDL
MODEL 4
REMARK VINA RESULT:      -7.5      2.809      7.868
REMARK  Name = 
REMARK  1 active torsions:
REMARK  status: ('A' for Active; 'I' for Inactive)
REMARK    1  A    between atoms: C_2  and  C_9
REMARK                            x       y       z     vdW  Elec       q    Type
REMARK                         _______ _______ _______ _____ _____    ______ ____
ROOT
ATOM      1  C   UNL     1       2.320   7.569  18.652  0.00  0.00    +0.000 A 
ATOM      2  C   UNL     1       2.158   8.437  17.571  0.00  0.00    +0.000 A 
ATOM      3  C   UNL     1       1.651   9.722  17.776  0.00  0.00    +0.000 A 
ATOM      4  C   UNL     1       1.291  10.127  19.075  0.00  0.00    +0.000 A 
ATOM      5  C   UNL     1       0.802  11.340  19.609  0.00  0.00    +0.000 A 
ATOM      6  C   UNL     1       0.546  11.167  20.958  0.00  0.00    +0.000 A 
ATOM      7  N   UNL     1       0.926   9.875  21.275  0.00  0.00    +0.000 N 
ATOM      8  C   UNL     1       1.401   9.231  20.136  0.00  0.00    +0.000 A 
ATOM      9  C   UNL     1       1.922   7.938  19.948  0.00  0.00    +0.000 A 
ATOM     10  C   UNL     1       0.912   9.249  22.589  0.00  0.00    +0.000 C 
ATOM     11  C   UNL     1      -0.124   9.696  23.623  0.00  0.00    +0.000 C 
ATOM     12  C   UNL     1      -1.318  10.420  23.035  0.00  0.00    +0.000 C 
ATOM     13  N   UNL     1      -0.946  11.781  22.742  0.00  0.00    +0.000 N 
ATOM     14  C   UNL     1      -0.026  12.179  21.814  0.00  0.00    +0.000 C 
ATOM     15  O   UNL     1       0.221  13.378  21.705  0.00  0.00    +0.000 OA
ATOM     16  H   UNL     1      -1.340  12.542  23.281  0.00  0.00    +0.000 HD
ENDROOT
BRANCH   1  18
ATOM     17  O   UNL     1       4.013   6.158  17.901  0.00  0.00    +0.000 OA
ATOM     18  C   UNL     1       2.929   6.227  18.465  0.00  0.00    +0.000 C 
ATOM     19  N   UNL     1       2.129   5.190  18.891  0.00  0.00    +0.000 N 
ATOM     20  C   UNL     1       2.497   3.885  18.731  0.00  0.00    +0.000 A 
ATOM     21  N   UNL     1       3.655   3.384  18.390  0.00  0.00    +0.000 NA
ATOM     22  C   UNL     1       3.546   2.014  18.284  0.00  0.00    +0.000 A 
ATOM     23  C   UNL     1       2.296   1.495  18.549  0.00  0.00    +0.000 A 
ATOM     24  S   UNL     1       1.235   2.765  19.006  0.00  0.00    +0.000 S 
ATOM     25  H   UNL     1       1.178   5.357  19.183  0.00  0.00    +0.000 HD
ENDBRANCH   1  18
TORSDOF 1
ENDMDL
MODEL 5
REMARK VINA RESULT:      -7.5      2.188      3.078
REMARK  Name = 
REMARK  1 active torsions:
REMARK  status: ('A' for Active; 'I' for Inactive)
REMARK    1  A    between atoms: C_2  and  C_9
REMARK                            x       y       z     vdW  Elec       q    Type
REMARK                         _______ _______ _______ _____ _____    ______ ____
ROOT
ATOM      1  C   UNL     1       1.585   8.723  19.332  0.00  0.00    +0.000 A 
ATOM      2  C   UNL     1       0.986   8.178  20.468  0.00  0.00    +0.000 A 
ATOM      3  C   UNL     1       1.333   6.894  20.895  0.00  0.00    +0.000 A 
ATOM      4  C   UNL     1       2.278   6.152  20.162  0.00  0.00    +0.000 A 
ATOM      5  C   UNL     1       2.861   4.878  20.346  0.00  0.00    +0.000 A 
ATOM      6  C   UNL     1       3.692   4.604  19.274  0.00  0.00    +0.000 A 
ATOM      7  N   UNL     1       3.671   5.720  18.456  0.00  0.00    +0.000 N 
ATOM      8  C   UNL     1       2.825   6.684  18.996  0.00  0.00    +0.000 A 
ATOM      9  C   UNL     1       2.495   7.981  18.561  0.00  0.00    +0.000 A 
ATOM     10  C   UNL     1       4.442   5.937  17.241  0.00  0.00    +0.000 C 
ATOM     11  C   UNL     1       4.838   4.736  16.378  0.00  0.00    +0.000 C 
ATOM     12  C   UNL     1       4.011   3.492  16.627  0.00  0.00    +0.000 C 
ATOM     13  N   UNL     1       4.476   2.849  17.829  0.00  0.00    +0.000 N 
ATOM     14  C   UNL     1       4.403   3.361  19.093  0.00  0.00    +0.000 C 
ATOM     15  O   UNL     1       4.884   2.715  20.020  0.00  0.00    +0.000 OA
ATOM     16  H   UNL     1       4.950   1.956  17.775  0.00  0.00    +0.000 HD
ENDROOT
BRANCH   1  18
ATOM     17  O   UNL     1       1.951  10.599  18.003  0.00  0.00    +0.000 OA
ATOM     18  C   UNL     1       1.285  10.116  18.908  0.00  0.00    +0.000 C 
ATOM     19  N   UNL     1       0.318  10.732  19.670  0.00  0.00    +0.000 N 
ATOM     20  C   UNL     1      -0.034  12.035  19.470  0.00  0.00    +0.000 A 
ATOM     21  N   UNL     1       0.263  12.833  18.478  0.00  0.00    +0.000 NA
ATOM     22  C   UNL     1      -0.250  14.087  18.730  0.00  0.00    +0.000 A 
ATOM     23  C   UNL     1      -0.934  14.220  19.921  0.00  0.00    +0.000 A 
ATOM     24  S   UNL     1      -0.986  12.703  20.723  0.00  0.00    +0.000 S 
ATOM     25  H   UNL     1      -0.041  10.292  20.505  0.00  0.00    +0.000 HD
ENDBRANCH   1  18
TORSDOF 1
ENDMDL
MODEL 6
REMARK VINA RESULT:      -7.4      3.400      8.345
REMARK  Name = 
REMARK  1 active torsions:
REMARK  status: ('A' for Active; 'I' for Inactive)
REMARK    1  A    between atoms: C_2  and  C_9
REMARK                            x       y       z     vdW  Elec       q    Type
REMARK                         _______ _______ _______ _____ _____    ______ ____
ROOT
ATOM      1  C   UNL     1       2.496   6.468  18.974  0.00  0.00    +0.000 A 
ATOM      2  C   UNL     1       2.128   5.921  20.204  0.00  0.00    +0.000 A 
ATOM      3  C   UNL     1       1.438   6.698  21.137  0.00  0.00    +0.000 A 
ATOM      4  C   UNL     1       1.132   8.039  20.833  0.00  0.00    +0.000 A 
ATOM      5  C   UNL     1       0.428   9.051  21.523  0.00  0.00    +0.000 A 
ATOM      6  C   UNL     1       0.486  10.221  20.787  0.00  0.00    +0.000 A 
ATOM      7  N   UNL     1       1.172   9.927  19.622  0.00  0.00    +0.000 N 
ATOM      8  C   UNL     1       1.558   8.590  19.627  0.00  0.00    +0.000 A 
ATOM      9  C   UNL     1       2.242   7.816  18.671  0.00  0.00    +0.000 A 
ATOM     10  C   UNL     1       1.426  10.819  18.501  0.00  0.00    +0.000 C 
ATOM     11  C   UNL     1       1.561  12.324  18.752  0.00  0.00    +0.000 C 
ATOM     12  C   UNL     1       1.865  12.689  20.190  0.00  0.00    +0.000 C 
ATOM     13  N   UNL     1       0.651  12.614  20.962  0.00  0.00    +0.000 N 
ATOM     14  C   UNL     1      -0.069  11.482  21.219  0.00  0.00    +0.000 C 
ATOM     15  O   UNL     1      -1.113  11.579  21.858  0.00  0.00    +0.000 OA
ATOM     16  H   UNL     1       0.229  13.459  21.327  0.00  0.00    +0.000 HD
ENDROOT
BRANCH   1  18
ATOM     17  O   UNL     1       2.583   4.631  17.547  0.00  0.00    +0.000 OA
ATOM     18  C   UNL     1       3.162   5.634  17.940  0.00  0.00    +0.000 C 
ATOM     19  N   UNL     1       4.426   6.069  17.606  0.00  0.00    +0.000 N 
ATOM     20  C   UNL     1       5.213   5.384  16.726  0.00  0.00    +0.000 A 
ATOM     21  N   UNL     1       4.899   4.404  15.920  0.00  0.00    +0.000 NA
ATOM     22  C   UNL     1       6.032   3.971  15.264  0.00  0.00    +0.000 A 
ATOM     23  C   UNL     1       7.197   4.636  15.590  0.00  0.00    +0.000 A 
ATOM     24  S   UNL     1       6.846   5.888  16.711  0.00  0.00    +0.000 S 
ATOM     25  H   UNL     1       4.870   6.812  18.124  0.00  0.00    +0.000 HD
ENDBRANCH   1  18
TORSDOF 1
ENDMDL
MODEL 7
REMARK VINA RESULT:      -7.4      2.316      2.509
REMARK  Name = 
REMARK  1 active torsions:
REMARK  status: ('A' for Active; 'I' for Inactive)
REMARK    1  A    between atoms: C_2  and  C_9
REMARK                            x       y       z     vdW  Elec       q    Type
REMARK                         _______ _______ _______ _____ _____    ______ ____
ROOT
ATOM      1  C   UNL     1       2.173   8.232  18.303  0.00  0.00    +0.000 A 
ATOM      2  C   UNL     1       3.304   8.216  17.487  0.00  0.00    +0.000 A 
ATOM      3  C   UNL     1       3.995   7.021  17.272  0.00  0.00    +0.000 A 
ATOM      4  C   UNL     1       3.551   5.840  17.898  0.00  0.00    +0.000 A 
ATOM      5  C   UNL     1       3.989   4.498  17.854  0.00  0.00    +0.000 A 
ATOM      6  C   UNL     1       3.225   3.746  18.729  0.00  0.00    +0.000 A 
ATOM      7  N   UNL     1       2.281   4.600  19.271  0.00  0.00    +0.000 N 
ATOM      8  C   UNL     1       2.455   5.882  18.758  0.00  0.00    +0.000 A 
ATOM      9  C   UNL     1       1.741   7.075  18.974  0.00  0.00    +0.000 A 
ATOM     10  C   UNL     1       1.207   4.256  20.191  0.00  0.00    +0.000 C 
ATOM     11  C   UNL     1       1.398   3.094  21.169  0.00  0.00    +0.000 C 
ATOM     12  C   UNL     1       2.845   2.704  21.397  0.00  0.00    +0.000 C 
ATOM     13  N   UNL     1       3.300   1.912  20.283  0.00  0.00    +0.000 N 
ATOM     14  C   UNL     1       3.436   2.343  18.994  0.00  0.00    +0.000 C 
ATOM     15  O   UNL     1       3.795   1.538  18.137  0.00  0.00    +0.000 OA
ATOM     16  H   UNL     1       3.502   0.928  20.409  0.00  0.00    +0.000 HD
ENDROOT
BRANCH   1  18
ATOM     17  O   UNL     1       1.838  10.353  19.203  0.00  0.00    +0.000 OA
ATOM     18  C   UNL     1       1.382   9.477  18.481  0.00  0.00    +0.000 C 
ATOM     19  N   UNL     1       0.155   9.450  17.854  0.00  0.00    +0.000 N 
ATOM     20  C   UNL     1      -0.734  10.478  17.970  0.00  0.00    +0.000 A 
ATOM     21  N   UNL     1      -0.557  11.680  18.452  0.00  0.00    +0.000 NA
ATOM     22  C   UNL     1      -1.755  12.362  18.434  0.00  0.00    +0.000 A 
ATOM     23  C   UNL     1      -2.831  11.657  17.934  0.00  0.00    +0.000 A 
ATOM     24  S   UNL     1      -2.307  10.107  17.413  0.00  0.00    +0.000 S 
ATOM     25  H   UNL     1      -0.188   8.602  17.429  0.00  0.00    +0.000 HD
ENDBRANCH   1  18
TORSDOF 1
ENDMDL
MODEL 8
REMARK VINA RESULT:      -7.3      1.199      1.245
REMARK  Name = 
REMARK  1 active torsions:
REMARK  status: ('A' for Active; 'I' for Inactive)
REMARK    1  A    between atoms: C_2  and  C_9
REMARK                            x       y       z     vdW  Elec       q    Type
REMARK                         _______ _______ _______ _____ _____    ______ ____
ROOT
ATOM      1  C   UNL     1       1.246   8.448  20.134  0.00  0.00    +0.000 A 
ATOM      2  C   UNL     1       1.810   9.163  19.077  0.00  0.00    +0.000 A 
ATOM      3  C   UNL     1       2.594   8.505  18.126  0.00  0.00    +0.000 A 
ATOM      4  C   UNL     1       2.822   7.122  18.252  0.00  0.00    +0.000 A 
ATOM      5  C   UNL     1       3.514   6.179  17.460  0.00  0.00    +0.000 A 
ATOM      6  C   UNL     1       3.484   4.950  18.093  0.00  0.00    +0.000 A 
ATOM      7  N   UNL     1       2.731   5.110  19.243  0.00  0.00    +0.000 N 
ATOM      8  C   UNL     1       2.304   6.430  19.345  0.00  0.00    +0.000 A 
ATOM      9  C   UNL     1       1.501   7.076  20.304  0.00  0.00    +0.000 A 
ATOM     10  C   UNL     1       2.359   4.082  20.202  0.00  0.00    +0.000 C 
ATOM     11  C   UNL     1       3.285   2.882  20.417  0.00  0.00    +0.000 C 
ATOM     12  C   UNL     1       4.709   3.104  19.948  0.00  0.00    +0.000 C 
ATOM     13  N   UNL     1       4.761   2.956  18.516  0.00  0.00    +0.000 N 
ATOM     14  C   UNL     1       4.148   3.765  17.602  0.00  0.00    +0.000 C 
ATOM     15  O   UNL     1       4.245   3.488  16.409  0.00  0.00    +0.000 OA
ATOM     16  H   UNL     1       5.243   2.167  18.105  0.00  0.00    +0.000 HD
ENDROOT
BRANCH   1  18
ATOM     17  O   UNL     1      -0.470   8.428  21.707  0.00  0.00    +0.000 OA
ATOM     18  C   UNL     1       0.347   9.116  21.111  0.00  0.00    +0.000 C 
ATOM     19  N   UNL     1       0.500  10.483  21.161  0.00  0.00    +0.000 N 
ATOM     20  C   UNL     1      -0.291  11.267  21.949  0.00  0.00    +0.000 A 
ATOM     21  N   UNL     1      -1.121  10.922  22.898  0.00  0.00    +0.000 NA
ATOM     22  C   UNL     1      -1.761  12.045  23.376  0.00  0.00    +0.000 A 
ATOM     23  C   UNL     1      -1.402  13.234  22.776  0.00  0.00    +0.000 A 
ATOM     24  S   UNL     1      -0.175  12.939  21.612  0.00  0.00    +0.000 S 
ATOM     25  H   UNL     1       1.088  10.962  20.495  0.00  0.00    +0.000 HD
ENDBRANCH   1  18
TORSDOF 1
ENDMDL
MODEL 9
REMARK VINA RESULT:      -7.3      3.122      8.667
REMARK  Name = 
REMARK  1 active torsions:
REMARK  status: ('A' for Active; 'I' for Inactive)
REMARK    1  A    between atoms: C_2  and  C_9
REMARK                            x       y       z     vdW  Elec       q    Type
REMARK                         _______ _______ _______ _____ _____    ______ ____
ROOT
ATOM      1  C   UNL     1       1.162   8.561  20.776  0.00  0.00    +0.000 A 
ATOM      2  C   UNL     1       0.844   8.536  22.135  0.00  0.00    +0.000 A 
ATOM      3  C   UNL     1       0.042   9.538  22.685  0.00  0.00    +0.000 A 
ATOM      4  C   UNL     1      -0.429  10.580  21.862  0.00  0.00    +0.000 A 
ATOM      5  C   UNL     1      -1.270  11.690  22.094  0.00  0.00    +0.000 A 
ATOM      6  C   UNL     1      -1.350  12.444  20.937  0.00  0.00    +0.000 A 
ATOM      7  N   UNL     1      -0.610  11.779  19.974  0.00  0.00    +0.000 N 
ATOM      8  C   UNL     1      -0.055  10.626  20.521  0.00  0.00    +0.000 A 
ATOM      9  C   UNL     1       0.741   9.616  19.949  0.00  0.00    +0.000 A 
ATOM     10  C   UNL     1      -0.452  12.146  18.575  0.00  0.00    +0.000 C 
ATOM     11  C   UNL     1      -0.518  13.622  18.173  0.00  0.00    +0.000 C 
ATOM     12  C   UNL     1      -0.291  14.589  19.316  0.00  0.00    +0.000 C 
ATOM     13  N   UNL     1      -1.499  14.692  20.094  0.00  0.00    +0.000 N 
ATOM     14  C   UNL     1      -2.071  13.689  20.825  0.00  0.00    +0.000 C 
ATOM     15  O   UNL     1      -3.131  13.913  21.404  0.00  0.00    +0.000 OA
ATOM     16  H   UNL     1      -2.033  15.551  20.089  0.00  0.00    +0.000 HD
ENDROOT
BRANCH   1  18
ATOM     17  O   UNL     1       2.472   7.668  19.072  0.00  0.00    +0.000 OA
ATOM     18  C   UNL     1       1.949   7.463  20.159  0.00  0.00    +0.000 C 
ATOM     19  N   UNL     1       1.920   6.287  20.876  0.00  0.00    +0.000 N 
ATOM     20  C   UNL     1       2.528   5.153  20.423  0.00  0.00    +0.000 A 
ATOM     21  N   UNL     1       3.372   5.000  19.437  0.00  0.00    +0.000 NA
ATOM     22  C   UNL     1       3.672   3.661  19.295  0.00  0.00    +0.000 A 
ATOM     23  C   UNL     1       3.043   2.815  20.184  0.00  0.00    +0.000 A 
ATOM     24  S   UNL     1       2.090   3.737  21.274  0.00  0.00    +0.000 S 
ATOM     25  H   UNL     1       1.312   6.184  21.674  0.00  0.00    +0.000 HD
ENDBRANCH   1  18
TORSDOF 1
ENDMDL
