MODEL 1
REMARK VINA RESULT:      -7.4      0.000      0.000
REMARK  Name = 
REMARK  1 active torsions:
REMARK  status: ('A' for Active; 'I' for Inactive)
REMARK    1  A    between atoms: C_4  and  C_5
REMARK                            x       y       z     vdW  Elec       q    Type
REMARK                         _______ _______ _______ _____ _____    ______ ____
ROOT
ATOM      1  O   UNL     1       6.478   5.053  19.436  0.00  0.00    +0.000 OA
ATOM      2  C   UNL     1       5.906   4.690  18.417  0.00  0.00    +0.000 A 
ATOM      3  C   UNL     1       6.638   4.543  17.148  0.00  0.00    +0.000 A 
ATOM      4  C   UNL     1       5.983   4.150  16.046  0.00  0.00    +0.000 A 
ATOM      5  O   UNL     1       4.620   3.878  16.016  0.00  0.00    +0.000 OA
ATOM      6  C   UNL     1       3.901   3.988  17.180  0.00  0.00    +0.000 A 
ATOM      7  C   UNL     1       2.539   3.691  17.120  0.00  0.00    +0.000 A 
ATOM      8  C   UNL     1       1.760   3.771  18.277  0.00  0.00    +0.000 A 
ATOM      9  C   UNL     1       2.345   4.150  19.488  0.00  0.00    +0.000 A 
ATOM     10 CL   UNL     1       1.383   4.234  20.910  0.00  0.00    +0.000 Cl
ATOM     11  C   UNL     1       3.703   4.457  19.552  0.00  0.00    +0.000 A 
ATOM     12  C   UNL     1       4.474   4.374  18.389  0.00  0.00    +0.000 A 
ENDROOT
BRANCH   4  13
ATOM     13  C   UNL     1       6.686   3.966  14.724  0.00  0.00    +0.000 C 
ATOM     14  C   UNL     1       5.739   3.623  13.574  0.00  0.00    +0.000 C 
ATOM     15  C   UNL     1       6.550   3.934  12.324  0.00  0.00    +0.000 C 
ATOM     16  C   UNL     1       7.517   5.049  12.714  0.00  0.00    +0.000 C 
ATOM     17  C   UNL     1       7.399   5.224  14.226  0.00  0.00    +0.000 C 
ENDBRANCH   4  13
TORSDOF 1
ENDMDL
MODEL 2
REMARK VINA RESULT:      -7.4      1.366      1.436
REMARK  Name = 
REMARK  1 active torsions:
REMARK  status: ('A' for Active; 'I' for Inactive)
REMARK    1  A    between atoms: C_4  and  C_5
REMARK                            x       y       z     vdW  Elec       q    Type
REMARK                         _______ _______ _______ _____ _____    ______ ____
ROOT
ATOM      1  O   UNL     1       3.944   7.014  17.571  0.00  0.00    +0.000 OA
ATOM      2  C   UNL     1       4.199   5.879  17.195  0.00  0.00    +0.000 A 
ATOM      3  C   UNL     1       5.153   5.638  16.099  0.00  0.00    +0.000 A 
ATOM      4  C   UNL     1       5.406   4.382  15.704  0.00  0.00    +0.000 A 
ATOM      5  O   UNL     1       4.802   3.261  16.264  0.00  0.00    +0.000 OA
ATOM      6  C   UNL     1       3.917   3.438  17.297  0.00  0.00    +0.000 A 
ATOM      7  C   UNL     1       3.342   2.293  17.848  0.00  0.00    +0.000 A 
ATOM      8  C   UNL     1       2.445   2.411  18.914  0.00  0.00    +0.000 A 
ATOM      9  C   UNL     1       2.125   3.673  19.420  0.00  0.00    +0.000 A 
ATOM     10 CL   UNL     1       1.030   3.810  20.739  0.00  0.00    +0.000 Cl
ATOM     11  C   UNL     1       2.689   4.821  18.867  0.00  0.00    +0.000 A 
ATOM     12  C   UNL     1       3.585   4.693  17.802  0.00  0.00    +0.000 A 
ENDROOT
BRANCH   4  13
ATOM     13  C   UNL     1       6.387   4.077  14.599  0.00  0.00    +0.000 C 
ATOM     14  C   UNL     1       5.717   3.691  13.280  0.00  0.00    +0.000 C 
ATOM     15  C   UNL     1       6.813   3.880  12.241  0.00  0.00    +0.000 C 
ATOM     16  C   UNL     1       7.722   4.981  12.781  0.00  0.00    +0.000 C 
ATOM     17  C   UNL     1       7.264   5.268  14.209  0.00  0.00    +0.000 C 
ENDBRANCH   4  13
TORSDOF 1
ENDMDL
MODEL 3
REMARK VINA RESULT:      -7.4      0.905      1.327
REMARK  Name = 
REMARK  1 active torsions:
REMARK  status: ('A' for Active; 'I' for Inactive)
REMARK    1  A    between atoms: C_4  and  C_5
REMARK                            x       y       z     vdW  Elec       q    Type
REMARK                         _______ _______ _______ _____ _____    ______ ____
ROOT
ATOM      1  O   UNL     1       6.211   4.745  19.607  0.00  0.00    +0.000 OA
ATOM      2  C   UNL     1       5.525   4.508  18.623  0.00  0.00    +0.000 A 
ATOM      3  C   UNL     1       6.007   4.821  17.268  0.00  0.00    +0.000 A 
ATOM      4  C   UNL     1       5.229   4.556  16.209  0.00  0.00    +0.000 A 
ATOM      5  O   UNL     1       3.957   4.003  16.306  0.00  0.00    +0.000 OA
ATOM      6  C   UNL     1       3.473   3.682  17.549  0.00  0.00    +0.000 A 
ATOM      7  C   UNL     1       2.200   3.114  17.611  0.00  0.00    +0.000 A 
ATOM      8  C   UNL     1       1.662   2.752  18.849  0.00  0.00    +0.000 A 
ATOM      9  C   UNL     1       2.396   2.963  20.018  0.00  0.00    +0.000 A 
ATOM     10 CL   UNL     1       1.732   2.504  21.537  0.00  0.00    +0.000 Cl
ATOM     11  C   UNL     1       3.664   3.540  19.963  0.00  0.00    +0.000 A 
ATOM     12  C   UNL     1       4.194   3.899  18.721  0.00  0.00    +0.000 A 
ENDROOT
BRANCH   4  13
ATOM     13  C   UNL     1       5.681   4.840  14.797  0.00  0.00    +0.000 C 
ATOM     14  C   UNL     1       7.188   5.072  14.676  0.00  0.00    +0.000 C 
ATOM     15  C   UNL     1       7.472   4.878  13.194  0.00  0.00    +0.000 C 
ATOM     16  C   UNL     1       6.423   3.890  12.688  0.00  0.00    +0.000 C 
ATOM     17  C   UNL     1       5.426   3.687  13.825  0.00  0.00    +0.000 C 
ENDBRANCH   4  13
TORSDOF 1
ENDMDL
MODEL 4
REMARK VINA RESULT:      -7.2      2.782      5.896
REMARK  Name = 
REMARK  1 active torsions:
REMARK  status: ('A' for Active; 'I' for Inactive)
REMARK    1  A    between atoms: C_4  and  C_5
REMARK                            x       y       z     vdW  Elec       q    Type
REMARK                         _______ _______ _______ _____ _____    ______ ____
ROOT
ATOM      1  O   UNL     1       7.772   5.234  18.602  0.00  0.00    +0.000 OA
ATOM      2  C   UNL     1       6.674   4.849  18.226  0.00  0.00    +0.000 A 
ATOM      3  C   UNL     1       5.612   4.522  19.193  0.00  0.00    +0.000 A 
ATOM      4  C   UNL     1       4.421   4.096  18.750  0.00  0.00    +0.000 A 
ATOM      5  O   UNL     1       4.115   3.923  17.405  0.00  0.00    +0.000 OA
ATOM      6  C   UNL     1       5.070   4.229  16.469  0.00  0.00    +0.000 A 
ATOM      7  C   UNL     1       4.727   4.060  15.127  0.00  0.00    +0.000 A 
ATOM      8  C   UNL     1       5.654   4.371  14.129  0.00  0.00    +0.000 A 
ATOM      9  C   UNL     1       6.922   4.844  14.477  0.00  0.00    +0.000 A 
ATOM     10 CL   UNL     1       8.054   5.236  13.243  0.00  0.00    +0.000 Cl
ATOM     11  C   UNL     1       7.274   5.005  15.815  0.00  0.00    +0.000 A 
ATOM     12  C   UNL     1       6.339   4.692  16.806  0.00  0.00    +0.000 A 
ENDROOT
BRANCH   4  13
ATOM     13  C   UNL     1       3.292   3.765  19.695  0.00  0.00    +0.000 C 
ATOM     14  C   UNL     1       2.407   4.967  20.029  0.00  0.00    +0.000 C 
ATOM     15  C   UNL     1       1.133   4.343  20.581  0.00  0.00    +0.000 C 
ATOM     16  C   UNL     1       1.002   2.980  19.905  0.00  0.00    +0.000 C 
ATOM     17  C   UNL     1       2.299   2.746  19.135  0.00  0.00    +0.000 C 
ENDBRANCH   4  13
TORSDOF 1
ENDMDL
MODEL 5
REMARK VINA RESULT:      -7.1      1.345      1.371
REMARK  Name = 
REMARK  1 active torsions:
REMARK  status: ('A' for Active; 'I' for Inactive)
REMARK    1  A    between atoms: C_4  and  C_5
REMARK                            x       y       z     vdW  Elec       q    Type
REMARK                         _______ _______ _______ _____ _____    ______ ____
ROOT
ATOM      1  O   UNL     1       5.775   7.382  17.612  0.00  0.00    +0.000 OA
ATOM      2  C   UNL     1       5.373   6.328  17.140  0.00  0.00    +0.000 A 
ATOM      3  C   UNL     1       6.030   5.721  15.970  0.00  0.00    +0.000 A 
ATOM      4  C   UNL     1       5.561   4.568  15.471  0.00  0.00    +0.000 A 
ATOM      5  O   UNL     1       4.460   3.895  15.988  0.00  0.00    +0.000 OA
ATOM      6  C   UNL     1       3.826   4.418  17.086  0.00  0.00    +0.000 A 
ATOM      7  C   UNL     1       2.734   3.710  17.591  0.00  0.00    +0.000 A 
ATOM      8  C   UNL     1       2.059   4.186  18.718  0.00  0.00    +0.000 A 
ATOM      9  C   UNL     1       2.476   5.369  19.332  0.00  0.00    +0.000 A 
ATOM     10 CL   UNL     1       1.648   5.943  20.726  0.00  0.00    +0.000 Cl
ATOM     11  C   UNL     1       3.559   6.086  18.828  0.00  0.00    +0.000 A 
ATOM     12  C   UNL     1       4.228   5.601  17.700  0.00  0.00    +0.000 A 
ENDROOT
BRANCH   4  13
ATOM     13  C   UNL     1       6.207   3.893  14.286  0.00  0.00    +0.000 C 
ATOM     14  C   UNL     1       5.207   3.465  13.211  0.00  0.00    +0.000 C 
ATOM     15  C   UNL     1       6.066   3.252  11.973  0.00  0.00    +0.000 C 
ATOM     16  C   UNL     1       7.256   4.199  12.115  0.00  0.00    +0.000 C 
ATOM     17  C   UNL     1       7.179   4.792  13.520  0.00  0.00    +0.000 C 
ENDBRANCH   4  13
TORSDOF 1
ENDMDL
MODEL 6
REMARK VINA RESULT:      -7.0      1.710      2.181
REMARK  Name = 
REMARK  1 active torsions:
REMARK  status: ('A' for Active; 'I' for Inactive)
REMARK    1  A    between atoms: C_4  and  C_5
REMARK                            x       y       z     vdW  Elec       q    Type
REMARK                         _______ _______ _______ _____ _____    ______ ____
ROOT
ATOM      1  O   UNL     1       3.028   6.970  19.133  0.00  0.00    +0.000 OA
ATOM      2  C   UNL     1       3.419   6.020  18.470  0.00  0.00    +0.000 A 
ATOM      3  C   UNL     1       4.230   6.223  17.258  0.00  0.00    +0.000 A 
ATOM      4  C   UNL     1       4.637   5.160  16.548  0.00  0.00    +0.000 A 
ATOM      5  O   UNL     1       4.327   3.846  16.879  0.00  0.00    +0.000 OA
ATOM      6  C   UNL     1       3.586   3.611  18.009  0.00  0.00    +0.000 A 
ATOM      7  C   UNL     1       3.306   2.280  18.324  0.00  0.00    +0.000 A 
ATOM      8  C   UNL     1       2.568   1.979  19.471  0.00  0.00    +0.000 A 
ATOM      9  C   UNL     1       2.110   3.008  20.297  0.00  0.00    +0.000 A 
ATOM     10 CL   UNL     1       1.213   2.629  21.714  0.00  0.00    +0.000 Cl
ATOM     11  C   UNL     1       2.378   4.340  19.983  0.00  0.00    +0.000 A 
ATOM     12  C   UNL     1       3.117   4.631  18.833  0.00  0.00    +0.000 A 
ENDROOT
BRANCH   4  13
ATOM     13  C   UNL     1       5.485   5.309  15.309  0.00  0.00    +0.000 C 
ATOM     14  C   UNL     1       6.984   5.174  15.578  0.00  0.00    +0.000 C 
ATOM     15  C   UNL     1       7.581   4.898  14.205  0.00  0.00    +0.000 C 
ATOM     16  C   UNL     1       6.494   4.181  13.408  0.00  0.00    +0.000 C 
ATOM     17  C   UNL     1       5.223   4.236  14.251  0.00  0.00    +0.000 C 
ENDBRANCH   4  13
TORSDOF 1
ENDMDL
MODEL 7
REMARK VINA RESULT:      -6.8      1.195      1.226
REMARK  Name = 
REMARK  1 active torsions:
REMARK  status: ('A' for Active; 'I' for Inactive)
REMARK    1  A    between atoms: C_4  and  C_5
REMARK                            x       y       z     vdW  Elec       q    Type
REMARK                         _______ _______ _______ _____ _____    ______ ____
ROOT
ATOM      1  O   UNL     1       4.872   5.995  19.310  0.00  0.00    +0.000 OA
ATOM      2  C   UNL     1       4.742   5.069  18.521  0.00  0.00    +0.000 A 
ATOM      3  C   UNL     1       5.565   4.988  17.303  0.00  0.00    +0.000 A 
ATOM      4  C   UNL     1       5.394   3.965  16.453  0.00  0.00    +0.000 A 
ATOM      5  O   UNL     1       4.457   2.955  16.642  0.00  0.00    +0.000 OA
ATOM      6  C   UNL     1       3.678   2.983  17.771  0.00  0.00    +0.000 A 
ATOM      7  C   UNL     1       2.759   1.947  17.939  0.00  0.00    +0.000 A 
ATOM      8  C   UNL     1       1.950   1.915  19.077  0.00  0.00    +0.000 A 
ATOM      9  C   UNL     1       2.060   2.921  20.040  0.00  0.00    +0.000 A 
ATOM     10 CL   UNL     1       1.069   2.868  21.445  0.00  0.00    +0.000 Cl
ATOM     11  C   UNL     1       2.968   3.964  19.873  0.00  0.00    +0.000 A 
ATOM     12  C   UNL     1       3.774   3.987  18.731  0.00  0.00    +0.000 A 
ENDROOT
BRANCH   4  13
ATOM     13  C   UNL     1       6.222   3.823  15.201  0.00  0.00    +0.000 C 
ATOM     14  C   UNL     1       5.388   3.804  13.919  0.00  0.00    +0.000 C 
ATOM     15  C   UNL     1       6.394   4.117  12.820  0.00  0.00    +0.000 C 
ATOM     16  C   UNL     1       7.473   4.981  13.468  0.00  0.00    +0.000 C 
ATOM     17  C   UNL     1       7.191   4.984  14.968  0.00  0.00    +0.000 C 
ENDBRANCH   4  13
TORSDOF 1
ENDMDL
MODEL 8
REMARK VINA RESULT:      -6.7      3.304      4.061
REMARK  Name = 
REMARK  1 active torsions:
REMARK  status: ('A' for Active; 'I' for Inactive)
REMARK    1  A    between atoms: C_4  and  C_5
REMARK                            x       y       z     vdW  Elec       q    Type
REMARK                         _______ _______ _______ _____ _____    ______ ____
ROOT
ATOM      1  O   UNL     1       2.764   4.867  20.755  0.00  0.00    +0.000 OA
ATOM      2  C   UNL     1       2.935   5.588  19.782  0.00  0.00    +0.000 A 
ATOM      3  C   UNL     1       3.778   5.156  18.655  0.00  0.00    +0.000 A 
ATOM      4  C   UNL     1       3.952   5.973  17.605  0.00  0.00    +0.000 A 
ATOM      5  O   UNL     1       3.386   7.240  17.513  0.00  0.00    +0.000 OA
ATOM      6  C   UNL     1       2.582   7.677  18.534  0.00  0.00    +0.000 A 
ATOM      7  C   UNL     1       2.016   8.946  18.403  0.00  0.00    +0.000 A 
ATOM      8  C   UNL     1       1.175   9.438  19.405  0.00  0.00    +0.000 A 
ATOM      9  C   UNL     1       0.908   8.661  20.535  0.00  0.00    +0.000 A 
ATOM     10 CL   UNL     1      -0.137   9.268  21.758  0.00  0.00    +0.000 Cl
ATOM     11  C   UNL     1       1.478   7.397  20.676  0.00  0.00    +0.000 A 
ATOM     12  C   UNL     1       2.317   6.914  19.668  0.00  0.00    +0.000 A 
ENDROOT
BRANCH   4  13
ATOM     13  C   UNL     1       4.790   5.574  16.416  0.00  0.00    +0.000 C 
ATOM     14  C   UNL     1       6.261   5.969  16.549  0.00  0.00    +0.000 C 
ATOM     15  C   UNL     1       6.970   5.101  15.519  0.00  0.00    +0.000 C 
ATOM     16  C   UNL     1       6.136   3.829  15.392  0.00  0.00    +0.000 C 
ATOM     17  C   UNL     1       4.854   4.063  16.188  0.00  0.00    +0.000 C 
ENDBRANCH   4  13
TORSDOF 1
ENDMDL
MODEL 9
REMARK VINA RESULT:      -6.7      4.831      6.193
REMARK  Name = 
REMARK  1 active torsions:
REMARK  status: ('A' for Active; 'I' for Inactive)
REMARK    1  A    between atoms: C_4  and  C_5
REMARK                            x       y       z     vdW  Elec       q    Type
REMARK                         _______ _______ _______ _____ _____    ______ ____
ROOT
ATOM      1  O   UNL     1       1.806  10.053  17.422  0.00  0.00    +0.000 OA
ATOM      2  C   UNL     1       1.860   9.145  18.240  0.00  0.00    +0.000 A 
ATOM      3  C   UNL     1       2.443   7.840  17.887  0.00  0.00    +0.000 A 
ATOM      4  C   UNL     1       2.481   6.861  18.804  0.00  0.00    +0.000 A 
ATOM      5  O   UNL     1       1.981   6.994  20.094  0.00  0.00    +0.000 OA
ATOM      6  C   UNL     1       1.442   8.198  20.470  0.00  0.00    +0.000 A 
ATOM      7  C   UNL     1       0.965   8.304  21.777  0.00  0.00    +0.000 A 
ATOM      8  C   UNL     1       0.419   9.511  22.221  0.00  0.00    +0.000 A 
ATOM      9  C   UNL     1       0.349  10.605  21.355  0.00  0.00    +0.000 A 
ATOM     10 CL   UNL     1      -0.313  12.091  21.912  0.00  0.00    +0.000 Cl
ATOM     11  C   UNL     1       0.815  10.503  20.046  0.00  0.00    +0.000 A 
ATOM     12  C   UNL     1       1.359   9.291  19.611  0.00  0.00    +0.000 A 
ENDROOT
BRANCH   4  13
ATOM     13  C   UNL     1       3.083   5.511  18.502  0.00  0.00    +0.000 C 
ATOM     14  C   UNL     1       2.084   4.519  17.905  0.00  0.00    +0.000 C 
ATOM     15  C   UNL     1       2.961   3.447  17.274  0.00  0.00    +0.000 C 
ATOM     16  C   UNL     1       4.257   4.146  16.870  0.00  0.00    +0.000 C 
ATOM     17  C   UNL     1       4.198   5.554  17.456  0.00  0.00    +0.000 C 
ENDBRANCH   4  13
TORSDOF 1
ENDMDL
