MODEL 1
REMARK VINA RESULT:      -8.3      0.000      0.000
REMARK  Name = 
REMARK  10 active torsions:
REMARK  status: ('A' for Active; 'I' for Inactive)
REMARK    1  A    between atoms: C_1  and  O_2
REMARK    2  A    between atoms: O_2  and  C_3
REMARK    3  A    between atoms: C_6  and  N_7
REMARK    4  A    between atoms: N_7  and  C_8
REMARK    5  A    between atoms: N_7  and  C_9
REMARK    6  A    between atoms: N_12  and  C_13
REMARK    7  A    between atoms: C_13  and  C_14
REMARK    8  A    between atoms: C_14  and  N_15
REMARK    9  A    between atoms: C_21  and  C_22
REMARK   10  A    between atoms: C_25  and  C_26
REMARK                            x       y       z     vdW  Elec       q    Type
REMARK                         _______ _______ _______ _____ _____    ______ ____
ROOT
ATOM      1  N   UNL     1       0.498   9.705  20.590  0.00  0.00    +0.000 N 
ATOM      2  C   UNL     1       0.724   9.459  21.934  0.00  0.00    +0.000 A 
ATOM      3  O   UNL     1       1.559   8.684  22.396  0.00  0.00    +0.000 OA
ATOM      4  C   UNL     1      -0.129  10.218  22.904  0.00  0.00    +0.000 A 
ATOM      5  N   UNL     1      -1.053  11.048  22.549  0.00  0.00    +0.000 NA
ATOM      6  C   UNL     1      -1.230  11.276  21.165  0.00  0.00    +0.000 A 
ATOM      7  C   UNL     1      -2.124  12.211  20.675  0.00  0.00    +0.000 A 
ATOM      8  N   UNL     1      -2.345  12.427  19.354  0.00  0.00    +0.000 NA
ATOM      9  C   UNL     1      -1.588  11.741  18.503  0.00  0.00    +0.000 A 
ATOM     10  N   UNL     1      -1.715  12.037  17.167  0.00  0.00    +0.000 N 
ATOM     11  N   UNL     1      -0.690  10.822  18.857  0.00  0.00    +0.000 NA
ATOM     12  C   UNL     1      -0.510  10.611  20.179  0.00  0.00    +0.000 A 
ATOM     13  H   UNL     1      -2.590  12.486  16.948  0.00  0.00    +0.000 HD
ATOM     14  H   UNL     1      -1.362  11.315  16.558  0.00  0.00    +0.000 HD
ENDROOT
BRANCH   7  15
ATOM     15  C   UNL     1      -2.850  13.129  21.542  0.00  0.00    +0.000 A 
ATOM     16  C   UNL     1      -2.600  14.397  22.025  0.00  0.00    +0.000 A 
ATOM     17  C   UNL     1      -3.658  14.711  22.909  0.00  0.00    +0.000 A 
ATOM     18  C   UNL     1      -4.497  13.615  22.917  0.00  0.00    +0.000 A 
ATOM     19  C   UNL     1      -5.745  13.293  23.639  0.00  0.00    +0.000 C 
ATOM     20  O   UNL     1      -4.009  12.652  22.094  0.00  0.00    +0.000 OA
ENDBRANCH   7  15
BRANCH   1  21
ATOM     21  C   UNL     1       1.378   9.091  19.605  0.00  0.00    +0.000 C 
BRANCH  21  22
ATOM     22  C   UNL     1       1.770   7.644  19.961  0.00  0.00    +0.000 C 
BRANCH  22  26
ATOM     23  C   UNL     1       2.895   4.678  19.152  0.00  0.00    +0.000 C 
ATOM     24  C   UNL     1       1.959   5.219  18.064  0.00  0.00    +0.000 C 
ATOM     25  C   UNL     1       2.415   6.651  17.832  0.00  0.00    +0.000 C 
ATOM     26  N   UNL     1       2.890   7.133  19.141  0.00  0.00    +0.000 NA
ATOM     27  C   UNL     1       3.549   5.946  19.742  0.00  0.00    +0.000 C 
BRANCH  23  28
ATOM     28  N   UNL     1       3.887   3.687  18.648  0.00  0.00    +0.000 N 
ATOM     29  C   UNL     1       3.527   2.271  18.806  0.00  0.00    +0.000 C 
BRANCH  28  33
ATOM     30  C   UNL     1       6.924   4.875  15.866  0.00  0.00    +0.000 A 
ATOM     31  C   UNL     1       5.683   4.428  15.421  0.00  0.00    +0.000 A 
ATOM     32  C   UNL     1       4.678   4.048  16.332  0.00  0.00    +0.000 A 
ATOM     33  C   UNL     1       4.878   4.048  17.724  0.00  0.00    +0.000 A 
ATOM     34  C   UNL     1       6.156   4.482  18.130  0.00  0.00    +0.000 A 
ATOM     35  C   UNL     1       7.159   4.895  17.231  0.00  0.00    +0.000 A 
BRANCH  30  37
ATOM     36  C   UNL     1       7.400   5.021  13.556  0.00  0.00    +0.000 C 
ATOM     37  O   UNL     1       7.827   5.217  14.902  0.00  0.00    +0.000 OA
ENDBRANCH  30  37
ENDBRANCH  28  33
ENDBRANCH  23  28
ENDBRANCH  22  26
ENDBRANCH  21  22
ENDBRANCH   1  21
TORSDOF 7
ENDMDL
MODEL 2
REMARK VINA RESULT:      -8.2      1.507      1.828
REMARK  Name = 
REMARK  10 active torsions:
REMARK  status: ('A' for Active; 'I' for Inactive)
REMARK    1  A    between atoms: C_1  and  O_2
REMARK    2  A    between atoms: O_2  and  C_3
REMARK    3  A    between atoms: C_6  and  N_7
REMARK    4  A    between atoms: N_7  and  C_8
REMARK    5  A    between atoms: N_7  and  C_9
REMARK    6  A    between atoms: N_12  and  C_13
REMARK    7  A    between atoms: C_13  and  C_14
REMARK    8  A    between atoms: C_14  and  N_15
REMARK    9  A    between atoms: C_21  and  C_22
REMARK   10  A    between atoms: C_25  and  C_26
REMARK                            x       y       z     vdW  Elec       q    Type
REMARK                         _______ _______ _______ _____ _____    ______ ____
ROOT
ATOM      1  N   UNL     1      -0.356  11.302  20.047  0.00  0.00    +0.000 N 
ATOM      2  C   UNL     1       0.173  11.462  21.317  0.00  0.00    +0.000 A 
ATOM      3  O   UNL     1       1.324  11.198  21.659  0.00  0.00    +0.000 OA
ATOM      4  C   UNL     1      -0.750  12.016  22.360  0.00  0.00    +0.000 A 
ATOM      5  N   UNL     1      -1.986  12.318  22.136  0.00  0.00    +0.000 NA
ATOM      6  C   UNL     1      -2.470  12.151  20.818  0.00  0.00    +0.000 A 
ATOM      7  C   UNL     1      -3.747  12.529  20.442  0.00  0.00    +0.000 A 
ATOM      8  N   UNL     1      -4.255  12.349  19.198  0.00  0.00    +0.000 NA
ATOM      9  C   UNL     1      -3.428  11.849  18.284  0.00  0.00    +0.000 A 
ATOM     10  N   UNL     1      -3.889  11.774  16.991  0.00  0.00    +0.000 N 
ATOM     11  N   UNL     1      -2.177  11.458  18.525  0.00  0.00    +0.000 NA
ATOM     12  C   UNL     1      -1.708  11.626  19.779  0.00  0.00    +0.000 A 
ATOM     13  H   UNL     1      -4.896  11.784  16.934  0.00  0.00    +0.000 HD
ATOM     14  H   UNL     1      -3.367  11.136  16.412  0.00  0.00    +0.000 HD
ENDROOT
BRANCH   7  15
ATOM     15  C   UNL     1      -4.643  13.252  21.335  0.00  0.00    +0.000 A 
ATOM     16  C   UNL     1      -4.885  14.588  21.580  0.00  0.00    +0.000 A 
ATOM     17  C   UNL     1      -5.815  14.645  22.644  0.00  0.00    +0.000 A 
ATOM     18  C   UNL     1      -6.087  13.337  22.992  0.00  0.00    +0.000 A 
ATOM     19  C   UNL     1      -6.939  12.715  24.026  0.00  0.00    +0.000 C 
ATOM     20  O   UNL     1      -5.377  12.490  22.204  0.00  0.00    +0.000 OA
ENDBRANCH   7  15
BRANCH   1  21
ATOM     21  C   UNL     1       0.526  10.886  18.966  0.00  0.00    +0.000 C 
BRANCH  21  22
ATOM     22  C   UNL     1       0.655   9.355  18.843  0.00  0.00    +0.000 C 
BRANCH  22  26
ATOM     23  C   UNL     1       2.095   6.419  19.003  0.00  0.00    +0.000 C 
ATOM     24  C   UNL     1       2.230   7.015  17.596  0.00  0.00    +0.000 C 
ATOM     25  C   UNL     1       2.673   8.452  17.819  0.00  0.00    +0.000 C 
ATOM     26  N   UNL     1       2.033   8.873  19.078  0.00  0.00    +0.000 NA
ATOM     27  C   UNL     1       2.080   7.656  19.928  0.00  0.00    +0.000 C 
BRANCH  23  28
ATOM     28  N   UNL     1       3.169   5.445  19.344  0.00  0.00    +0.000 N 
ATOM     29  C   UNL     1       2.839   4.451  20.374  0.00  0.00    +0.000 C 
BRANCH  28  33
ATOM     30  C   UNL     1       6.472   4.822  16.684  0.00  0.00    +0.000 A 
ATOM     31  C   UNL     1       5.251   4.189  16.468  0.00  0.00    +0.000 A 
ATOM     32  C   UNL     1       4.160   4.401  17.332  0.00  0.00    +0.000 A 
ATOM     33  C   UNL     1       4.247   5.211  18.479  0.00  0.00    +0.000 A 
ATOM     34  C   UNL     1       5.507   5.810  18.675  0.00  0.00    +0.000 A 
ATOM     35  C   UNL     1       6.598   5.632  17.800  0.00  0.00    +0.000 A 
BRANCH  30  37
ATOM     36  C   UNL     1       7.150   4.790  14.420  0.00  0.00    +0.000 C 
ATOM     37  O   UNL     1       7.465   4.547  15.789  0.00  0.00    +0.000 OA
ENDBRANCH  30  37
ENDBRANCH  28  33
ENDBRANCH  23  28
ENDBRANCH  22  26
ENDBRANCH  21  22
ENDBRANCH   1  21
TORSDOF 7
ENDMDL
MODEL 3
REMARK VINA RESULT:      -8.1      1.247      1.515
REMARK  Name = 
REMARK  10 active torsions:
REMARK  status: ('A' for Active; 'I' for Inactive)
REMARK    1  A    between atoms: C_1  and  O_2
REMARK    2  A    between atoms: O_2  and  C_3
REMARK    3  A    between atoms: C_6  and  N_7
REMARK    4  A    between atoms: N_7  and  C_8
REMARK    5  A    between atoms: N_7  and  C_9
REMARK    6  A    between atoms: N_12  and  C_13
REMARK    7  A    between atoms: C_13  and  C_14
REMARK    8  A    between atoms: C_14  and  N_15
REMARK    9  A    between atoms: C_21  and  C_22
REMARK   10  A    between atoms: C_25  and  C_26
REMARK                            x       y       z     vdW  Elec       q    Type
REMARK                         _______ _______ _______ _____ _____    ______ ____
ROOT
ATOM      1  N   UNL     1      -0.023  10.397  21.099  0.00  0.00    +0.000 N 
ATOM      2  C   UNL     1      -0.045  10.342  22.483  0.00  0.00    +0.000 A 
ATOM      3  O   UNL     1       0.753   9.733  23.193  0.00  0.00    +0.000 OA
ATOM      4  C   UNL     1      -1.141  11.102  23.164  0.00  0.00    +0.000 A 
ATOM      5  N   UNL     1      -2.052  11.766  22.533  0.00  0.00    +0.000 NA
ATOM      6  C   UNL     1      -1.973  11.805  21.122  0.00  0.00    +0.000 A 
ATOM      7  C   UNL     1      -2.838  12.560  20.350  0.00  0.00    +0.000 A 
ATOM      8  N   UNL     1      -2.813  12.590  18.995  0.00  0.00    +0.000 NA
ATOM      9  C   UNL     1      -1.840  11.904  18.401  0.00  0.00    +0.000 A 
ATOM     10  N   UNL     1      -1.728  12.022  17.037  0.00  0.00    +0.000 N 
ATOM     11  N   UNL     1      -0.946  11.149  19.039  0.00  0.00    +0.000 NA
ATOM     12  C   UNL     1      -1.012  11.120  20.387  0.00  0.00    +0.000 A 
ATOM     13  H   UNL     1      -2.582  12.333  16.600  0.00  0.00    +0.000 HD
ATOM     14  H   UNL     1      -1.194  11.282  16.610  0.00  0.00    +0.000 HD
ENDROOT
BRANCH   7  15
ATOM     15  C   UNL     1      -3.806  13.480  20.933  0.00  0.00    +0.000 A 
ATOM     16  C   UNL     1      -5.106  13.355  21.375  0.00  0.00    +0.000 A 
ATOM     17  C   UNL     1      -5.536  14.651  21.748  0.00  0.00    +0.000 A 
ATOM     18  C   UNL     1      -4.471  15.496  21.510  0.00  0.00    +0.000 A 
ATOM     19  C   UNL     1      -4.275  16.952  21.657  0.00  0.00    +0.000 C 
ATOM     20  O   UNL     1      -3.422  14.792  21.012  0.00  0.00    +0.000 OA
ENDBRANCH   7  15
BRANCH   1  21
ATOM     21  C   UNL     1       1.089   9.782  20.388  0.00  0.00    +0.000 C 
BRANCH  21  22
ATOM     22  C   UNL     1       0.946   8.254  20.245  0.00  0.00    +0.000 C 
BRANCH  22  26
ATOM     23  C   UNL     1       1.889   5.267  19.292  0.00  0.00    +0.000 C 
ATOM     24  C   UNL     1       1.915   6.248  18.113  0.00  0.00    +0.000 C 
ATOM     25  C   UNL     1       2.617   7.486  18.647  0.00  0.00    +0.000 C 
ATOM     26  N   UNL     1       2.245   7.569  20.070  0.00  0.00    +0.000 NA
ATOM     27  C   UNL     1       2.213   6.153  20.515  0.00  0.00    +0.000 C 
BRANCH  23  28
ATOM     28  N   UNL     1       2.825   4.119  19.135  0.00  0.00    +0.000 N 
ATOM     29  C   UNL     1       2.280   2.791  19.449  0.00  0.00    +0.000 C 
BRANCH  28  33
ATOM     30  C   UNL     1       6.380   4.526  16.775  0.00  0.00    +0.000 A 
ATOM     31  C   UNL     1       5.208   4.020  16.219  0.00  0.00    +0.000 A 
ATOM     32  C   UNL     1       4.034   3.896  16.988  0.00  0.00    +0.000 A 
ATOM     33  C   UNL     1       3.986   4.222  18.355  0.00  0.00    +0.000 A 
ATOM     34  C   UNL     1       5.201   4.705  18.883  0.00  0.00    +0.000 A 
ATOM     35  C   UNL     1       6.373   4.863  18.117  0.00  0.00    +0.000 A 
BRANCH  30  37
ATOM     36  C   UNL     1       7.167   4.761  14.559  0.00  0.00    +0.000 C 
ATOM     37  O   UNL     1       7.460   4.603  15.944  0.00  0.00    +0.000 OA
ENDBRANCH  30  37
ENDBRANCH  28  33
ENDBRANCH  23  28
ENDBRANCH  22  26
ENDBRANCH  21  22
ENDBRANCH   1  21
TORSDOF 7
ENDMDL
MODEL 4
REMARK VINA RESULT:      -8.1      2.447      3.147
REMARK  Name = 
REMARK  10 active torsions:
REMARK  status: ('A' for Active; 'I' for Inactive)
REMARK    1  A    between atoms: C_1  and  O_2
REMARK    2  A    between atoms: O_2  and  C_3
REMARK    3  A    between atoms: C_6  and  N_7
REMARK    4  A    between atoms: N_7  and  C_8
REMARK    5  A    between atoms: N_7  and  C_9
REMARK    6  A    between atoms: N_12  and  C_13
REMARK    7  A    between atoms: C_13  and  C_14
REMARK    8  A    between atoms: C_14  and  N_15
REMARK    9  A    between atoms: C_21  and  C_22
REMARK   10  A    between atoms: C_25  and  C_26
REMARK                            x       y       z     vdW  Elec       q    Type
REMARK                         _______ _______ _______ _____ _____    ______ ____
ROOT
ATOM      1  N   UNL     1       1.185   9.944  19.369  0.00  0.00    +0.000 N 
ATOM      2  C   UNL     1       1.903  10.423  18.287  0.00  0.00    +0.000 A 
ATOM      3  O   UNL     1       2.362   9.746  17.369  0.00  0.00    +0.000 OA
ATOM      4  C   UNL     1       2.129  11.903  18.237  0.00  0.00    +0.000 A 
ATOM      5  N   UNL     1       1.715  12.723  19.146  0.00  0.00    +0.000 NA
ATOM      6  C   UNL     1       0.971  12.184  20.221  0.00  0.00    +0.000 A 
ATOM      7  C   UNL     1       0.401  12.977  21.201  0.00  0.00    +0.000 A 
ATOM      8  N   UNL     1      -0.286  12.490  22.264  0.00  0.00    +0.000 NA
ATOM      9  C   UNL     1      -0.473  11.174  22.301  0.00  0.00    +0.000 A 
ATOM     10  N   UNL     1      -1.269  10.679  23.305  0.00  0.00    +0.000 N 
ATOM     11  N   UNL     1       0.021  10.312  21.412  0.00  0.00    +0.000 NA
ATOM     12  C   UNL     1       0.721  10.825  20.378  0.00  0.00    +0.000 A 
ATOM     13  H   UNL     1      -1.345  11.307  24.090  0.00  0.00    +0.000 HD
ATOM     14  H   UNL     1      -1.143   9.693  23.472  0.00  0.00    +0.000 HD
ENDROOT
BRANCH   7  15
ATOM     15  C   UNL     1       0.402  14.432  21.127  0.00  0.00    +0.000 A 
ATOM     16  C   UNL     1       1.079  15.428  21.799  0.00  0.00    +0.000 A 
ATOM     17  C   UNL     1       0.562  16.659  21.330  0.00  0.00    +0.000 A 
ATOM     18  C   UNL     1      -0.405  16.344  20.397  0.00  0.00    +0.000 A 
ATOM     19  C   UNL     1      -1.324  17.152  19.571  0.00  0.00    +0.000 C 
ATOM     20  O   UNL     1      -0.509  14.996  20.274  0.00  0.00    +0.000 OA
ENDBRANCH   7  15
BRANCH   1  21
ATOM     21  C   UNL     1       0.828   8.533  19.408  0.00  0.00    +0.000 C 
BRANCH  21  22
ATOM     22  C   UNL     1       1.952   7.638  19.965  0.00  0.00    +0.000 C 
BRANCH  22  26
ATOM     23  C   UNL     1       3.432   4.740  19.608  0.00  0.00    +0.000 C 
ATOM     24  C   UNL     1       2.034   4.719  18.975  0.00  0.00    +0.000 C 
ATOM     25  C   UNL     1       1.952   6.001  18.162  0.00  0.00    +0.000 C 
ATOM     26  N   UNL     1       2.752   6.992  18.902  0.00  0.00    +0.000 NA
ATOM     27  C   UNL     1       3.891   6.205  19.438  0.00  0.00    +0.000 C 
BRANCH  23  28
ATOM     28  N   UNL     1       4.375   3.756  19.006  0.00  0.00    +0.000 N 
ATOM     29  C   UNL     1       4.106   2.341  19.294  0.00  0.00    +0.000 C 
BRANCH  28  33
ATOM     30  C   UNL     1       6.893   4.880  15.723  0.00  0.00    +0.000 A 
ATOM     31  C   UNL     1       5.581   4.466  15.509  0.00  0.00    +0.000 A 
ATOM     32  C   UNL     1       4.746   4.108  16.585  0.00  0.00    +0.000 A 
ATOM     33  C   UNL     1       5.193   4.096  17.919  0.00  0.00    +0.000 A 
ATOM     34  C   UNL     1       6.534   4.496  18.088  0.00  0.00    +0.000 A 
ATOM     35  C   UNL     1       7.369   4.887  17.023  0.00  0.00    +0.000 A 
BRANCH  30  37
ATOM     36  C   UNL     1       7.186   4.598  13.395  0.00  0.00    +0.000 C 
ATOM     37  O   UNL     1       7.616   5.202  14.612  0.00  0.00    +0.000 OA
ENDBRANCH  30  37
ENDBRANCH  28  33
ENDBRANCH  23  28
ENDBRANCH  22  26
ENDBRANCH  21  22
ENDBRANCH   1  21
TORSDOF 7
ENDMDL
MODEL 5
REMARK VINA RESULT:      -8.1      2.515      3.024
REMARK  Name = 
REMARK  10 active torsions:
REMARK  status: ('A' for Active; 'I' for Inactive)
REMARK    1  A    between atoms: C_1  and  O_2
REMARK    2  A    between atoms: O_2  and  C_3
REMARK    3  A    between atoms: C_6  and  N_7
REMARK    4  A    between atoms: N_7  and  C_8
REMARK    5  A    between atoms: N_7  and  C_9
REMARK    6  A    between atoms: N_12  and  C_13
REMARK    7  A    between atoms: C_13  and  C_14
REMARK    8  A    between atoms: C_14  and  N_15
REMARK    9  A    between atoms: C_21  and  C_22
REMARK   10  A    between atoms: C_25  and  C_26
REMARK                            x       y       z     vdW  Elec       q    Type
REMARK                         _______ _______ _______ _____ _____    ______ ____
ROOT
ATOM      1  N   UNL     1       0.529   9.791  20.220  0.00  0.00    +0.000 N 
ATOM      2  C   UNL     1      -0.112   9.463  21.402  0.00  0.00    +0.000 A 
ATOM      3  O   UNL     1      -0.477   8.338  21.738  0.00  0.00    +0.000 OA
ATOM      4  C   UNL     1      -0.374  10.590  22.354  0.00  0.00    +0.000 A 
ATOM      5  N   UNL     1      -0.058  11.819  22.115  0.00  0.00    +0.000 NA
ATOM      6  C   UNL     1       0.611  12.097  20.901  0.00  0.00    +0.000 A 
ATOM      7  C   UNL     1       1.079  13.359  20.583  0.00  0.00    +0.000 A 
ATOM      8  N   UNL     1       1.691  13.667  19.412  0.00  0.00    +0.000 NA
ATOM      9  C   UNL     1       1.910  12.660  18.572  0.00  0.00    +0.000 A 
ATOM     10  N   UNL     1       2.635  12.933  17.437  0.00  0.00    +0.000 N 
ATOM     11  N   UNL     1       1.514  11.403  18.773  0.00  0.00    +0.000 NA
ATOM     12  C   UNL     1       0.885  11.133  19.937  0.00  0.00    +0.000 A 
ATOM     13  H   UNL     1       2.631  13.912  17.196  0.00  0.00    +0.000 HD
ATOM     14  H   UNL     1       2.524  12.244  16.710  0.00  0.00    +0.000 HD
ENDROOT
BRANCH   7  15
ATOM     15  C   UNL     1       1.044  14.468  21.528  0.00  0.00    +0.000 A 
ATOM     16  C   UNL     1       0.032  15.175  22.144  0.00  0.00    +0.000 A 
ATOM     17  C   UNL     1       0.651  16.208  22.886  0.00  0.00    +0.000 A 
ATOM     18  C   UNL     1       2.009  16.073  22.680  0.00  0.00    +0.000 A 
ATOM     19  C   UNL     1       3.189  16.835  23.138  0.00  0.00    +0.000 C 
ATOM     20  O   UNL     1       2.252  15.024  21.855  0.00  0.00    +0.000 OA
ENDBRANCH   7  15
BRANCH   1  21
ATOM     21  C   UNL     1       0.921   8.722  19.312  0.00  0.00    +0.000 C 
BRANCH  21  22
ATOM     22  C   UNL     1       1.961   7.762  19.920  0.00  0.00    +0.000 C 
BRANCH  22  26
ATOM     23  C   UNL     1       3.425   4.837  19.776  0.00  0.00    +0.000 C 
ATOM     24  C   UNL     1       2.009   4.766  19.190  0.00  0.00    +0.000 C 
ATOM     25  C   UNL     1       1.904   5.971  18.269  0.00  0.00    +0.000 C 
ATOM     26  N   UNL     1       2.728   7.020  18.895  0.00  0.00    +0.000 NA
ATOM     27  C   UNL     1       3.882   6.279  19.463  0.00  0.00    +0.000 C 
BRANCH  23  28
ATOM     28  N   UNL     1       4.348   3.800  19.235  0.00  0.00    +0.000 N 
ATOM     29  C   UNL     1       4.045   2.409  19.600  0.00  0.00    +0.000 C 
BRANCH  28  33
ATOM     30  C   UNL     1       6.897   4.683  15.903  0.00  0.00    +0.000 A 
ATOM     31  C   UNL     1       5.617   4.171  15.708  0.00  0.00    +0.000 A 
ATOM     32  C   UNL     1       4.772   3.891  16.799  0.00  0.00    +0.000 A 
ATOM     33  C   UNL     1       5.179   4.059  18.135  0.00  0.00    +0.000 A 
ATOM     34  C   UNL     1       6.489   4.554  18.288  0.00  0.00    +0.000 A 
ATOM     35  C   UNL     1       7.333   4.868  17.204  0.00  0.00    +0.000 A 
BRANCH  30  37
ATOM     36  C   UNL     1       6.979   4.651  13.542  0.00  0.00    +0.000 C 
ATOM     37  O   UNL     1       7.634   4.917  14.779  0.00  0.00    +0.000 OA
ENDBRANCH  30  37
ENDBRANCH  28  33
ENDBRANCH  23  28
ENDBRANCH  22  26
ENDBRANCH  21  22
ENDBRANCH   1  21
TORSDOF 7
ENDMDL
MODEL 6
REMARK VINA RESULT:      -8.0      1.699      2.831
REMARK  Name = 
REMARK  10 active torsions:
REMARK  status: ('A' for Active; 'I' for Inactive)
REMARK    1  A    between atoms: C_1  and  O_2
REMARK    2  A    between atoms: O_2  and  C_3
REMARK    3  A    between atoms: C_6  and  N_7
REMARK    4  A    between atoms: N_7  and  C_8
REMARK    5  A    between atoms: N_7  and  C_9
REMARK    6  A    between atoms: N_12  and  C_13
REMARK    7  A    between atoms: C_13  and  C_14
REMARK    8  A    between atoms: C_14  and  N_15
REMARK    9  A    between atoms: C_21  and  C_22
REMARK   10  A    between atoms: C_25  and  C_26
REMARK                            x       y       z     vdW  Elec       q    Type
REMARK                         _______ _______ _______ _____ _____    ______ ____
ROOT
ATOM      1  N   UNL     1       1.498   8.716  19.836  0.00  0.00    +0.000 N 
ATOM      2  C   UNL     1       1.494   9.077  18.499  0.00  0.00    +0.000 A 
ATOM      3  O   UNL     1       2.086   8.495  17.592  0.00  0.00    +0.000 OA
ATOM      4  C   UNL     1       0.686  10.285  18.137  0.00  0.00    +0.000 A 
ATOM      5  N   UNL     1       0.032  10.995  18.996  0.00  0.00    +0.000 NA
ATOM      6  C   UNL     1       0.055  10.572  20.345  0.00  0.00    +0.000 A 
ATOM      7  C   UNL     1      -0.681  11.201  21.333  0.00  0.00    +0.000 A 
ATOM      8  N   UNL     1      -0.653  10.844  22.641  0.00  0.00    +0.000 NA
ATOM      9  C   UNL     1       0.075   9.776  22.951  0.00  0.00    +0.000 A 
ATOM     10  N   UNL     1       0.018   9.330  24.250  0.00  0.00    +0.000 N 
ATOM     11  N   UNL     1       0.819   9.086  22.086  0.00  0.00    +0.000 NA
ATOM     12  C   UNL     1       0.789   9.480  20.795  0.00  0.00    +0.000 A 
ATOM     13  H   UNL     1      -0.289  10.042  24.894  0.00  0.00    +0.000 HD
ATOM     14  H   UNL     1       0.786   8.729  24.505  0.00  0.00    +0.000 HD
ENDROOT
BRANCH   7  15
ATOM     15  C   UNL     1      -1.643  12.256  21.040  0.00  0.00    +0.000 A 
ATOM     16  C   UNL     1      -1.656  13.623  21.223  0.00  0.00    +0.000 A 
ATOM     17  C   UNL     1      -2.932  14.075  20.813  0.00  0.00    +0.000 A 
ATOM     18  C   UNL     1      -3.628  12.956  20.403  0.00  0.00    +0.000 A 
ATOM     19  C   UNL     1      -4.998  12.738  19.897  0.00  0.00    +0.000 C 
ATOM     20  O   UNL     1      -2.853  11.851  20.543  0.00  0.00    +0.000 OA
ENDBRANCH   7  15
BRANCH   1  21
ATOM     21  C   UNL     1       2.163   7.481  20.229  0.00  0.00    +0.000 C 
BRANCH  21  22
ATOM     22  C   UNL     1       1.186   6.310  20.450  0.00  0.00    +0.000 C 
BRANCH  22  26
ATOM     23  C   UNL     1       3.599   4.340  19.442  0.00  0.00    +0.000 C 
ATOM     24  C   UNL     1       2.718   3.634  20.482  0.00  0.00    +0.000 C 
ATOM     25  C   UNL     1       1.290   3.911  20.039  0.00  0.00    +0.000 C 
ATOM     26  N   UNL     1       1.319   5.250  19.426  0.00  0.00    +0.000 NA
ATOM     27  C   UNL     1       2.623   5.293  18.719  0.00  0.00    +0.000 C 
BRANCH  23  28
ATOM     28  N   UNL     1       4.298   3.404  18.518  0.00  0.00    +0.000 N 
ATOM     29  C   UNL     1       3.705   2.067  18.378  0.00  0.00    +0.000 C 
BRANCH  28  33
ATOM     30  C   UNL     1       7.008   4.915  15.560  0.00  0.00    +0.000 A 
ATOM     31  C   UNL     1       5.951   4.082  15.202  0.00  0.00    +0.000 A 
ATOM     32  C   UNL     1       5.051   3.594  16.169  0.00  0.00    +0.000 A 
ATOM     33  C   UNL     1       5.191   3.869  17.541  0.00  0.00    +0.000 A 
ATOM     34  C   UNL     1       6.289   4.692  17.862  0.00  0.00    +0.000 A 
ATOM     35  C   UNL     1       7.177   5.213  16.901  0.00  0.00    +0.000 A 
BRANCH  30  37
ATOM     36  C   UNL     1       7.420   4.951  13.233  0.00  0.00    +0.000 C 
ATOM     37  O   UNL     1       7.822   5.331  14.547  0.00  0.00    +0.000 OA
ENDBRANCH  30  37
ENDBRANCH  28  33
ENDBRANCH  23  28
ENDBRANCH  22  26
ENDBRANCH  21  22
ENDBRANCH   1  21
TORSDOF 7
ENDMDL
MODEL 7
REMARK VINA RESULT:      -8.0      3.225     10.519
REMARK  Name = 
REMARK  10 active torsions:
REMARK  status: ('A' for Active; 'I' for Inactive)
REMARK    1  A    between atoms: C_1  and  O_2
REMARK    2  A    between atoms: O_2  and  C_3
REMARK    3  A    between atoms: C_6  and  N_7
REMARK    4  A    between atoms: N_7  and  C_8
REMARK    5  A    between atoms: N_7  and  C_9
REMARK    6  A    between atoms: N_12  and  C_13
REMARK    7  A    between atoms: C_13  and  C_14
REMARK    8  A    between atoms: C_14  and  N_15
REMARK    9  A    between atoms: C_21  and  C_22
REMARK   10  A    between atoms: C_25  and  C_26
REMARK                            x       y       z     vdW  Elec       q    Type
REMARK                         _______ _______ _______ _____ _____    ______ ____
ROOT
ATOM      1  N   UNL     1       3.432   5.271  18.495  0.00  0.00    +0.000 N 
ATOM      2  C   UNL     1       2.594   4.192  18.266  0.00  0.00    +0.000 A 
ATOM      3  O   UNL     1       1.629   3.868  18.955  0.00  0.00    +0.000 OA
ATOM      4  C   UNL     1       2.898   3.355  17.061  0.00  0.00    +0.000 A 
ATOM      5  N   UNL     1       3.892   3.576  16.266  0.00  0.00    +0.000 NA
ATOM      6  C   UNL     1       4.705   4.701  16.535  0.00  0.00    +0.000 A 
ATOM      7  C   UNL     1       5.739   5.087  15.700  0.00  0.00    +0.000 A 
ATOM      8  N   UNL     1       6.560   6.137  15.948  0.00  0.00    +0.000 NA
ATOM      9  C   UNL     1       6.285   6.868  17.025  0.00  0.00    +0.000 A 
ATOM     10  N   UNL     1       7.032   8.004  17.223  0.00  0.00    +0.000 N 
ATOM     11  N   UNL     1       5.313   6.599  17.897  0.00  0.00    +0.000 NA
ATOM     12  C   UNL     1       4.527   5.533  17.636  0.00  0.00    +0.000 A 
ATOM     13  H   UNL     1       7.914   7.982  16.735  0.00  0.00    +0.000 HD
ATOM     14  H   UNL     1       6.999   8.350  18.169  0.00  0.00    +0.000 HD
ENDROOT
BRANCH   7  15
ATOM     15  C   UNL     1       5.981   4.452  14.411  0.00  0.00    +0.000 A 
ATOM     16  C   UNL     1       7.116   4.150  13.687  0.00  0.00    +0.000 A 
ATOM     17  C   UNL     1       6.679   3.616  12.452  0.00  0.00    +0.000 A 
ATOM     18  C   UNL     1       5.299   3.624  12.492  0.00  0.00    +0.000 A 
ATOM     19  C   UNL     1       4.251   3.232  11.528  0.00  0.00    +0.000 C 
ATOM     20  O   UNL     1       4.872   4.133  13.675  0.00  0.00    +0.000 OA
ENDBRANCH   7  15
BRANCH   1  21
ATOM     21  C   UNL     1       3.113   6.192  19.577  0.00  0.00    +0.000 C 
BRANCH  21  22
ATOM     22  C   UNL     1       1.901   7.093  19.269  0.00  0.00    +0.000 C 
BRANCH  22  26
ATOM     23  C   UNL     1       0.319   9.907  18.728  0.00  0.00    +0.000 C 
ATOM     24  C   UNL     1      -0.037   9.340  20.108  0.00  0.00    +0.000 C 
ATOM     25  C   UNL     1       1.296   8.948  20.727  0.00  0.00    +0.000 C 
ATOM     26  N   UNL     1       2.142   8.514  19.601  0.00  0.00    +0.000 NA
ATOM     27  C   UNL     1       1.770   9.434  18.497  0.00  0.00    +0.000 C 
BRANCH  23  28
ATOM     28  N   UNL     1       0.161  11.385  18.631  0.00  0.00    +0.000 N 
ATOM     29  C   UNL     1      -1.218  11.887  18.565  0.00  0.00    +0.000 C 
BRANCH  28  33
ATOM     30  C   UNL     1       3.262  14.110  19.787  0.00  0.00    +0.000 A 
ATOM     31  C   UNL     1       3.098  13.736  18.455  0.00  0.00    +0.000 A 
ATOM     32  C   UNL     1       2.073  12.852  18.070  0.00  0.00    +0.000 A 
ATOM     33  C   UNL     1       1.196  12.258  18.996  0.00  0.00    +0.000 A 
ATOM     34  C   UNL     1       1.414  12.642  20.334  0.00  0.00    +0.000 A 
ATOM     35  C   UNL     1       2.416  13.551  20.729  0.00  0.00    +0.000 A 
BRANCH  30  37
ATOM     36  C   UNL     1       4.189  15.690  21.280  0.00  0.00    +0.000 C 
ATOM     37  O   UNL     1       4.287  14.970  20.053  0.00  0.00    +0.000 OA
ENDBRANCH  30  37
ENDBRANCH  28  33
ENDBRANCH  23  28
ENDBRANCH  22  26
ENDBRANCH  21  22
ENDBRANCH   1  21
TORSDOF 7
ENDMDL
MODEL 8
REMARK VINA RESULT:      -7.9      2.263     11.303
REMARK  Name = 
REMARK  10 active torsions:
REMARK  status: ('A' for Active; 'I' for Inactive)
REMARK    1  A    between atoms: C_1  and  O_2
REMARK    2  A    between atoms: O_2  and  C_3
REMARK    3  A    between atoms: C_6  and  N_7
REMARK    4  A    between atoms: N_7  and  C_8
REMARK    5  A    between atoms: N_7  and  C_9
REMARK    6  A    between atoms: N_12  and  C_13
REMARK    7  A    between atoms: C_13  and  C_14
REMARK    8  A    between atoms: C_14  and  N_15
REMARK    9  A    between atoms: C_21  and  C_22
REMARK   10  A    between atoms: C_25  and  C_26
REMARK                            x       y       z     vdW  Elec       q    Type
REMARK                         _______ _______ _______ _____ _____    ______ ____
ROOT
ATOM      1  N   UNL     1       3.500   5.063  18.544  0.00  0.00    +0.000 N 
ATOM      2  C   UNL     1       2.655   3.995  18.292  0.00  0.00    +0.000 A 
ATOM      3  O   UNL     1       1.703   3.649  18.990  0.00  0.00    +0.000 OA
ATOM      4  C   UNL     1       2.931   3.202  17.052  0.00  0.00    +0.000 A 
ATOM      5  N   UNL     1       3.909   3.451  16.245  0.00  0.00    +0.000 NA
ATOM      6  C   UNL     1       4.731   4.563  16.538  0.00  0.00    +0.000 A 
ATOM      7  C   UNL     1       5.748   4.978  15.697  0.00  0.00    +0.000 A 
ATOM      8  N   UNL     1       6.577   6.016  15.966  0.00  0.00    +0.000 NA
ATOM      9  C   UNL     1       6.326   6.707  17.074  0.00  0.00    +0.000 A 
ATOM     10  N   UNL     1       7.081   7.834  17.299  0.00  0.00    +0.000 N 
ATOM     11  N   UNL     1       5.372   6.409  17.956  0.00  0.00    +0.000 NA
ATOM     12  C   UNL     1       4.578   5.354  17.672  0.00  0.00    +0.000 A 
ATOM     13  H   UNL     1       7.952   7.828  16.792  0.00  0.00    +0.000 HD
ATOM     14  H   UNL     1       7.068   8.145  18.257  0.00  0.00    +0.000 HD
ENDROOT
BRANCH   7  15
ATOM     15  C   UNL     1       5.962   4.390  14.381  0.00  0.00    +0.000 A 
ATOM     16  C   UNL     1       7.079   4.123  13.618  0.00  0.00    +0.000 A 
ATOM     17  C   UNL     1       6.615   3.628  12.376  0.00  0.00    +0.000 A 
ATOM     18  C   UNL     1       5.237   3.624  12.451  0.00  0.00    +0.000 A 
ATOM     19  C   UNL     1       4.167   3.257  11.501  0.00  0.00    +0.000 C 
ATOM     20  O   UNL     1       4.837   4.088  13.662  0.00  0.00    +0.000 OA
ENDBRANCH   7  15
BRANCH   1  21
ATOM     21  C   UNL     1       3.206   5.944  19.665  0.00  0.00    +0.000 C 
BRANCH  21  22
ATOM     22  C   UNL     1       2.030   6.902  19.392  0.00  0.00    +0.000 C 
BRANCH  22  26
ATOM     23  C   UNL     1       0.209   9.609  19.674  0.00  0.00    +0.000 C 
ATOM     24  C   UNL     1       0.052   8.715  20.911  0.00  0.00    +0.000 C 
ATOM     25  C   UNL     1       1.469   8.319  21.292  0.00  0.00    +0.000 C 
ATOM     26  N   UNL     1       2.210   8.228  20.022  0.00  0.00    +0.000 NA
ATOM     27  C   UNL     1       1.655   9.335  19.203  0.00  0.00    +0.000 C 
BRANCH  23  28
ATOM     28  N   UNL     1      -0.058  11.050  19.940  0.00  0.00    +0.000 N 
ATOM     29  C   UNL     1       0.324  11.987  18.876  0.00  0.00    +0.000 C 
BRANCH  28  33
ATOM     30  C   UNL     1      -2.846  12.380  22.913  0.00  0.00    +0.000 A 
ATOM     31  C   UNL     1      -1.724  11.635  23.267  0.00  0.00    +0.000 A 
ATOM     32  C   UNL     1      -0.799  11.207  22.296  0.00  0.00    +0.000 A 
ATOM     33  C   UNL     1      -0.974  11.456  20.922  0.00  0.00    +0.000 A 
ATOM     34  C   UNL     1      -2.135  12.188  20.605  0.00  0.00    +0.000 A 
ATOM     35  C   UNL     1      -3.051  12.650  21.571  0.00  0.00    +0.000 A 
BRANCH  30  37
ATOM     36  C   UNL     1      -3.895  14.143  24.085  0.00  0.00    +0.000 C 
ATOM     37  O   UNL     1      -3.679  12.743  23.931  0.00  0.00    +0.000 OA
ENDBRANCH  30  37
ENDBRANCH  28  33
ENDBRANCH  23  28
ENDBRANCH  22  26
ENDBRANCH  21  22
ENDBRANCH   1  21
TORSDOF 7
ENDMDL
MODEL 9
REMARK VINA RESULT:      -7.9      2.003      3.018
REMARK  Name = 
REMARK  10 active torsions:
REMARK  status: ('A' for Active; 'I' for Inactive)
REMARK    1  A    between atoms: C_1  and  O_2
REMARK    2  A    between atoms: O_2  and  C_3
REMARK    3  A    between atoms: C_6  and  N_7
REMARK    4  A    between atoms: N_7  and  C_8
REMARK    5  A    between atoms: N_7  and  C_9
REMARK    6  A    between atoms: N_12  and  C_13
REMARK    7  A    between atoms: C_13  and  C_14
REMARK    8  A    between atoms: C_14  and  N_15
REMARK    9  A    between atoms: C_21  and  C_22
REMARK   10  A    between atoms: C_25  and  C_26
REMARK                            x       y       z     vdW  Elec       q    Type
REMARK                         _______ _______ _______ _____ _____    ______ ____
ROOT
ATOM      1  N   UNL     1      -1.041  10.966  18.580  0.00  0.00    +0.000 N 
ATOM      2  C   UNL     1      -1.856  10.453  17.585  0.00  0.00    +0.000 A 
ATOM      3  O   UNL     1      -1.502   9.702  16.678  0.00  0.00    +0.000 OA
ATOM      4  C   UNL     1      -3.299  10.850  17.633  0.00  0.00    +0.000 A 
ATOM      5  N   UNL     1      -3.795  11.646  18.523  0.00  0.00    +0.000 NA
ATOM      6  C   UNL     1      -2.923  12.128  19.526  0.00  0.00    +0.000 A 
ATOM      7  C   UNL     1      -3.362  12.909  20.580  0.00  0.00    +0.000 A 
ATOM      8  N   UNL     1      -2.547  13.418  21.537  0.00  0.00    +0.000 NA
ATOM      9  C   UNL     1      -1.267  13.064  21.478  0.00  0.00    +0.000 A 
ATOM     10  N   UNL     1      -0.453  13.471  22.508  0.00  0.00    +0.000 N 
ATOM     11  N   UNL     1      -0.730  12.311  20.518  0.00  0.00    +0.000 NA
ATOM     12  C   UNL     1      -1.563  11.840  19.565  0.00  0.00    +0.000 A 
ATOM     13  H   UNL     1      -0.824  14.264  23.009  0.00  0.00    +0.000 HD
ATOM     14  H   UNL     1       0.529  13.444  22.282  0.00  0.00    +0.000 HD
ENDROOT
BRANCH   7  15
ATOM     15  C   UNL     1      -4.774  13.182  20.815  0.00  0.00    +0.000 A 
ATOM     16  C   UNL     1      -5.621  14.219  20.486  0.00  0.00    +0.000 A 
ATOM     17  C   UNL     1      -6.868  13.935  21.092  0.00  0.00    +0.000 A 
ATOM     18  C   UNL     1      -6.710  12.737  21.760  0.00  0.00    +0.000 A 
ATOM     19  C   UNL     1      -7.604  11.916  22.602  0.00  0.00    +0.000 C 
ATOM     20  O   UNL     1      -5.442  12.280  21.599  0.00  0.00    +0.000 OA
ENDBRANCH   7  15
BRANCH   1  21
ATOM     21  C   UNL     1       0.342  10.516  18.658  0.00  0.00    +0.000 C 
BRANCH  21  22
ATOM     22  C   UNL     1       0.508   9.198  19.438  0.00  0.00    +0.000 C 
BRANCH  22  26
ATOM     23  C   UNL     1       2.103   6.357  19.115  0.00  0.00    +0.000 C 
ATOM     24  C   UNL     1       2.139   7.152  17.804  0.00  0.00    +0.000 C 
ATOM     25  C   UNL     1       2.518   8.567  18.214  0.00  0.00    +0.000 C 
ATOM     26  N   UNL     1       1.920   8.767  19.545  0.00  0.00    +0.000 NA
ATOM     27  C   UNL     1       2.070   7.447  20.208  0.00  0.00    +0.000 C 
BRANCH  23  28
ATOM     28  N   UNL     1       3.240   5.407  19.269  0.00  0.00    +0.000 N 
ATOM     29  C   UNL     1       3.047   4.315  20.232  0.00  0.00    +0.000 C 
BRANCH  28  33
ATOM     30  C   UNL     1       6.294   4.976  16.291  0.00  0.00    +0.000 A 
ATOM     31  C   UNL     1       6.486   5.799  17.398  0.00  0.00    +0.000 A 
ATOM     32  C   UNL     1       5.490   5.934  18.385  0.00  0.00    +0.000 A 
ATOM     33  C   UNL     1       4.239   5.297  18.291  0.00  0.00    +0.000 A 
ATOM     34  C   UNL     1       4.077   4.496  17.143  0.00  0.00    +0.000 A 
ATOM     35  C   UNL     1       5.077   4.327  16.165  0.00  0.00    +0.000 A 
BRANCH  30  37
ATOM     36  C   UNL     1       6.942   4.749  14.030  0.00  0.00    +0.000 C 
ATOM     37  O   UNL     1       7.320   4.918  15.394  0.00  0.00    +0.000 OA
ENDBRANCH  30  37
ENDBRANCH  28  33
ENDBRANCH  23  28
ENDBRANCH  22  26
ENDBRANCH  21  22
ENDBRANCH   1  21
TORSDOF 7
ENDMDL
