MODEL 1
REMARK VINA RESULT:      -7.1      0.000      0.000
REMARK  Name = 
REMARK  2 active torsions:
REMARK  status: ('A' for Active; 'I' for Inactive)
REMARK    1  A    between atoms: N_9  and  C_10
REMARK    2  A    between atoms: C_13  and  N_14
REMARK                            x       y       z     vdW  Elec       q    Type
REMARK                         _______ _______ _______ _____ _____    ______ ____
ROOT
ATOM      1  O   UNL     1       3.350   6.302  18.250  0.00  0.00    +0.000 OA
ATOM      2  C   UNL     1       3.507   5.152  18.668  0.00  0.00    +0.000 A 
ATOM      3  C   UNL     1       2.760   4.723  19.890  0.00  0.00    +0.000 A 
ATOM      4 CL   UNL     1       1.752   5.908  20.650  0.00  0.00    +0.000 Cl
ATOM      5  C   UNL     1       2.874   3.479  20.353  0.00  0.00    +0.000 A 
ATOM      6 CL   UNL     1       2.089   2.843  21.739  0.00  0.00    +0.000 Cl
ATOM      7  C   UNL     1       3.734   2.572  19.595  0.00  0.00    +0.000 A 
ATOM      8  N   UNL     1       4.399   2.872  18.530  0.00  0.00    +0.000 NA
ATOM      9  N   UNL     1       4.320   4.173  18.068  0.00  0.00    +0.000 N 
ENDROOT
BRANCH   9  10
ATOM     10  C   UNL     1       5.158   4.428  16.928  0.00  0.00    +0.000 A 
ATOM     11  C   UNL     1       6.476   4.894  17.059  0.00  0.00    +0.000 A 
ATOM     12  C   UNL     1       7.290   5.112  15.941  0.00  0.00    +0.000 A 
ATOM     13  C   UNL     1       6.786   4.874  14.661  0.00  0.00    +0.000 A 
ATOM     14  C   UNL     1       5.477   4.416  14.496  0.00  0.00    +0.000 A 
ATOM     15  C   UNL     1       4.678   4.187  15.625  0.00  0.00    +0.000 A 
BRANCH  13  16
ATOM     16  N   UNL     1       7.642   5.095  13.488  0.00  0.00    +0.000 N 
ATOM     17  O   UNL     1       8.609   5.859  13.616  0.00  0.00    +0.000 OA
ATOM     18  O   UNL     1       7.349   4.500  12.441  0.00  0.00    +0.000 OA
ENDBRANCH  13  16
ENDBRANCH   9  10
TORSDOF 2
ENDMDL
MODEL 2
REMARK VINA RESULT:      -7.1      0.127      1.144
REMARK  Name = 
REMARK  2 active torsions:
REMARK  status: ('A' for Active; 'I' for Inactive)
REMARK    1  A    between atoms: N_9  and  C_10
REMARK    2  A    between atoms: C_13  and  N_14
REMARK                            x       y       z     vdW  Elec       q    Type
REMARK                         _______ _______ _______ _____ _____    ______ ____
ROOT
ATOM      1  O   UNL     1       3.448   6.336  18.130  0.00  0.00    +0.000 OA
ATOM      2  C   UNL     1       3.594   5.198  18.582  0.00  0.00    +0.000 A 
ATOM      3  C   UNL     1       2.857   4.818  19.827  0.00  0.00    +0.000 A 
ATOM      4 CL   UNL     1       1.876   6.041  20.562  0.00  0.00    +0.000 Cl
ATOM      5  C   UNL     1       2.960   3.588  20.327  0.00  0.00    +0.000 A 
ATOM      6 CL   UNL     1       2.184   3.007  21.742  0.00  0.00    +0.000 Cl
ATOM      7  C   UNL     1       3.798   2.645  19.587  0.00  0.00    +0.000 A 
ATOM      8  N   UNL     1       4.453   2.902  18.506  0.00  0.00    +0.000 NA
ATOM      9  N   UNL     1       4.385   4.189  18.004  0.00  0.00    +0.000 N 
ENDROOT
BRANCH   9  10
ATOM     10  C   UNL     1       5.212   4.397  16.845  0.00  0.00    +0.000 A 
ATOM     11  C   UNL     1       4.766   4.102  15.547  0.00  0.00    +0.000 A 
ATOM     12  C   UNL     1       5.571   4.336  14.425  0.00  0.00    +0.000 A 
ATOM     13  C   UNL     1       6.853   4.863  14.591  0.00  0.00    +0.000 A 
ATOM     14  C   UNL     1       7.329   5.162  15.871  0.00  0.00    +0.000 A 
ATOM     15  C   UNL     1       6.505   4.939  16.983  0.00  0.00    +0.000 A 
BRANCH  13  16
ATOM     16  N   UNL     1       7.695   5.116  13.415  0.00  0.00    +0.000 N 
ATOM     17  O   UNL     1       8.646   5.898  13.544  0.00  0.00    +0.000 OA
ATOM     18  O   UNL     1       7.405   4.528  12.363  0.00  0.00    +0.000 OA
ENDBRANCH  13  16
ENDBRANCH   9  10
TORSDOF 2
ENDMDL
MODEL 3
REMARK VINA RESULT:      -6.8      1.427      1.527
REMARK  Name = 
REMARK  2 active torsions:
REMARK  status: ('A' for Active; 'I' for Inactive)
REMARK    1  A    between atoms: N_9  and  C_10
REMARK    2  A    between atoms: C_13  and  N_14
REMARK                            x       y       z     vdW  Elec       q    Type
REMARK                         _______ _______ _______ _____ _____    ______ ____
ROOT
ATOM      1  O   UNL     1       2.483   3.210  16.624  0.00  0.00    +0.000 OA
ATOM      2  C   UNL     1       3.100   3.278  17.690  0.00  0.00    +0.000 A 
ATOM      3  C   UNL     1       2.383   2.942  18.959  0.00  0.00    +0.000 A 
ATOM      4 CL   UNL     1       0.710   2.517  18.826  0.00  0.00    +0.000 Cl
ATOM      5  C   UNL     1       3.023   2.969  20.127  0.00  0.00    +0.000 A 
ATOM      6 CL   UNL     1       2.340   2.616  21.660  0.00  0.00    +0.000 Cl
ATOM      7  C   UNL     1       4.444   3.313  20.090  0.00  0.00    +0.000 A 
ATOM      8  N   UNL     1       5.125   3.605  19.034  0.00  0.00    +0.000 NA
ATOM      9  N   UNL     1       4.458   3.621  17.823  0.00  0.00    +0.000 N 
ENDROOT
BRANCH   9  10
ATOM     10  C   UNL     1       5.282   4.035  16.719  0.00  0.00    +0.000 A 
ATOM     11  C   UNL     1       6.554   4.599  16.908  0.00  0.00    +0.000 A 
ATOM     12  C   UNL     1       7.358   4.972  15.823  0.00  0.00    +0.000 A 
ATOM     13  C   UNL     1       6.888   4.794  14.521  0.00  0.00    +0.000 A 
ATOM     14  C   UNL     1       5.624   4.242  14.299  0.00  0.00    +0.000 A 
ATOM     15  C   UNL     1       4.837   3.857  15.394  0.00  0.00    +0.000 A 
BRANCH  13  16
ATOM     16  N   UNL     1       7.733   5.178  13.383  0.00  0.00    +0.000 N 
ATOM     17  O   UNL     1       8.708   5.908  13.610  0.00  0.00    +0.000 OA
ATOM     18  O   UNL     1       7.423   4.747  12.263  0.00  0.00    +0.000 OA
ENDBRANCH  13  16
ENDBRANCH   9  10
TORSDOF 2
ENDMDL
MODEL 4
REMARK VINA RESULT:      -6.8      1.417      1.903
REMARK  Name = 
REMARK  2 active torsions:
REMARK  status: ('A' for Active; 'I' for Inactive)
REMARK    1  A    between atoms: N_9  and  C_10
REMARK    2  A    between atoms: C_13  and  N_14
REMARK                            x       y       z     vdW  Elec       q    Type
REMARK                         _______ _______ _______ _____ _____    ______ ____
ROOT
ATOM      1  O   UNL     1       2.471   3.201  16.586  0.00  0.00    +0.000 OA
ATOM      2  C   UNL     1       3.100   3.292  17.643  0.00  0.00    +0.000 A 
ATOM      3  C   UNL     1       2.392   3.004  18.929  0.00  0.00    +0.000 A 
ATOM      4 CL   UNL     1       0.711   2.599  18.825  0.00  0.00    +0.000 Cl
ATOM      5  C   UNL     1       3.044   3.057  20.089  0.00  0.00    +0.000 A 
ATOM      6 CL   UNL     1       2.371   2.760  21.639  0.00  0.00    +0.000 Cl
ATOM      7  C   UNL     1       4.469   3.380  20.028  0.00  0.00    +0.000 A 
ATOM      8  N   UNL     1       5.143   3.631  18.957  0.00  0.00    +0.000 NA
ATOM      9  N   UNL     1       4.463   3.620  17.752  0.00  0.00    +0.000 N 
ENDROOT
BRANCH   9  10
ATOM     10  C   UNL     1       5.282   3.990  16.629  0.00  0.00    +0.000 A 
ATOM     11  C   UNL     1       4.852   3.818  15.303  0.00  0.00    +0.000 A 
ATOM     12  C   UNL     1       5.648   4.209  14.219  0.00  0.00    +0.000 A 
ATOM     13  C   UNL     1       6.903   4.773  14.450  0.00  0.00    +0.000 A 
ATOM     14  C   UNL     1       7.363   4.952  15.758  0.00  0.00    +0.000 A 
ATOM     15  C   UNL     1       6.548   4.572  16.834  0.00  0.00    +0.000 A 
BRANCH  13  16
ATOM     16  N   UNL     1       7.735   5.190  13.314  0.00  0.00    +0.000 N 
ATOM     17  O   UNL     1       8.688   5.947  13.544  0.00  0.00    +0.000 OA
ATOM     18  O   UNL     1       7.435   4.757  12.192  0.00  0.00    +0.000 OA
ENDBRANCH  13  16
ENDBRANCH   9  10
TORSDOF 2
ENDMDL
MODEL 5
REMARK VINA RESULT:      -6.5      1.396      2.312
REMARK  Name = 
REMARK  2 active torsions:
REMARK  status: ('A' for Active; 'I' for Inactive)
REMARK    1  A    between atoms: N_9  and  C_10
REMARK    2  A    between atoms: C_13  and  N_14
REMARK                            x       y       z     vdW  Elec       q    Type
REMARK                         _______ _______ _______ _____ _____    ______ ____
ROOT
ATOM      1  O   UNL     1       3.823   2.093  17.391  0.00  0.00    +0.000 OA
ATOM      2  C   UNL     1       3.803   3.122  18.070  0.00  0.00    +0.000 A 
ATOM      3  C   UNL     1       2.970   3.149  19.312  0.00  0.00    +0.000 A 
ATOM      4 CL   UNL     1       2.057   1.723  19.675  0.00  0.00    +0.000 Cl
ATOM      5  C   UNL     1       2.950   4.228  20.091  0.00  0.00    +0.000 A 
ATOM      6 CL   UNL     1       2.044   4.412  21.537  0.00  0.00    +0.000 Cl
ATOM      7  C   UNL     1       3.793   5.351  19.683  0.00  0.00    +0.000 A 
ATOM      8  N   UNL     1       4.541   5.392  18.632  0.00  0.00    +0.000 NA
ATOM      9  N   UNL     1       4.534   4.292  17.795  0.00  0.00    +0.000 N 
ENDROOT
BRANCH   9  10
ATOM     10  C   UNL     1       5.334   4.466  16.612  0.00  0.00    +0.000 A 
ATOM     11  C   UNL     1       4.806   4.299  15.322  0.00  0.00    +0.000 A 
ATOM     12  C   UNL     1       5.590   4.499  14.178  0.00  0.00    +0.000 A 
ATOM     13  C   UNL     1       6.930   4.863  14.313  0.00  0.00    +0.000 A 
ATOM     14  C   UNL     1       7.488   5.032  15.583  0.00  0.00    +0.000 A 
ATOM     15  C   UNL     1       6.687   4.844  16.719  0.00  0.00    +0.000 A 
BRANCH  13  16
ATOM     16  N   UNL     1       7.750   5.081  13.115  0.00  0.00    +0.000 N 
ATOM     17  O   UNL     1       7.431   4.479  12.081  0.00  0.00    +0.000 OA
ATOM     18  O   UNL     1       8.711   5.858  13.208  0.00  0.00    +0.000 OA
ENDBRANCH  13  16
ENDBRANCH   9  10
TORSDOF 2
ENDMDL
MODEL 6
REMARK VINA RESULT:      -6.5      1.409      1.871
REMARK  Name = 
REMARK  2 active torsions:
REMARK  status: ('A' for Active; 'I' for Inactive)
REMARK    1  A    between atoms: N_9  and  C_10
REMARK    2  A    between atoms: C_13  and  N_14
REMARK                            x       y       z     vdW  Elec       q    Type
REMARK                         _______ _______ _______ _____ _____    ______ ____
ROOT
ATOM      1  O   UNL     1       3.799   2.157  17.276  0.00  0.00    +0.000 OA
ATOM      2  C   UNL     1       3.787   3.156  17.999  0.00  0.00    +0.000 A 
ATOM      3  C   UNL     1       2.940   3.142  19.232  0.00  0.00    +0.000 A 
ATOM      4 CL   UNL     1       2.002   1.716  19.522  0.00  0.00    +0.000 Cl
ATOM      5  C   UNL     1       2.927   4.187  20.058  0.00  0.00    +0.000 A 
ATOM      6 CL   UNL     1       2.007   4.321  21.500  0.00  0.00    +0.000 Cl
ATOM      7  C   UNL     1       3.792   5.313  19.708  0.00  0.00    +0.000 A 
ATOM      8  N   UNL     1       4.552   5.388  18.668  0.00  0.00    +0.000 NA
ATOM      9  N   UNL     1       4.539   4.325  17.784  0.00  0.00    +0.000 N 
ENDROOT
BRANCH   9  10
ATOM     10  C   UNL     1       5.355   4.538  16.619  0.00  0.00    +0.000 A 
ATOM     11  C   UNL     1       6.709   4.900  16.712  0.00  0.00    +0.000 A 
ATOM     12  C   UNL     1       7.500   5.077  15.569  0.00  0.00    +0.000 A 
ATOM     13  C   UNL     1       6.936   4.903  14.304  0.00  0.00    +0.000 A 
ATOM     14  C   UNL     1       5.590   4.548  14.177  0.00  0.00    +0.000 A 
ATOM     15  C   UNL     1       4.815   4.358  15.330  0.00  0.00    +0.000 A 
BRANCH  13  16
ATOM     16  N   UNL     1       7.766   5.080  13.106  0.00  0.00    +0.000 N 
ATOM     17  O   UNL     1       8.735   5.848  13.185  0.00  0.00    +0.000 OA
ATOM     18  O   UNL     1       7.451   4.449  12.087  0.00  0.00    +0.000 OA
ENDBRANCH  13  16
ENDBRANCH   9  10
TORSDOF 2
ENDMDL
MODEL 7
REMARK VINA RESULT:      -6.4      4.358      7.176
REMARK  Name = 
REMARK  2 active torsions:
REMARK  status: ('A' for Active; 'I' for Inactive)
REMARK    1  A    between atoms: N_9  and  C_10
REMARK    2  A    between atoms: C_13  and  N_14
REMARK                            x       y       z     vdW  Elec       q    Type
REMARK                         _______ _______ _______ _____ _____    ______ ____
ROOT
ATOM      1  O   UNL     1       1.865   4.619  18.710  0.00  0.00    +0.000 OA
ATOM      2  C   UNL     1       2.814   5.096  18.084  0.00  0.00    +0.000 A 
ATOM      3  C   UNL     1       3.741   4.169  17.364  0.00  0.00    +0.000 A 
ATOM      4 CL   UNL     1       3.418   2.473  17.504  0.00  0.00    +0.000 Cl
ATOM      5  C   UNL     1       4.756   4.646  16.647  0.00  0.00    +0.000 A 
ATOM      6 CL   UNL     1       5.901   3.713  15.774  0.00  0.00    +0.000 Cl
ATOM      7  C   UNL     1       4.893   6.101  16.588  0.00  0.00    +0.000 A 
ATOM      8  N   UNL     1       4.128   6.957  17.176  0.00  0.00    +0.000 NA
ATOM      9  N   UNL     1       3.096   6.468  17.956  0.00  0.00    +0.000 N 
ENDROOT
BRANCH   9  10
ATOM     10  C   UNL     1       2.352   7.497  18.633  0.00  0.00    +0.000 A 
ATOM     11  C   UNL     1       2.068   7.431  20.006  0.00  0.00    +0.000 A 
ATOM     12  C   UNL     1       1.366   8.453  20.658  0.00  0.00    +0.000 A 
ATOM     13  C   UNL     1       0.926   9.562  19.933  0.00  0.00    +0.000 A 
ATOM     14  C   UNL     1       1.189   9.654  18.564  0.00  0.00    +0.000 A 
ATOM     15  C   UNL     1       1.906   8.632  17.928  0.00  0.00    +0.000 A 
BRANCH  13  16
ATOM     16  N   UNL     1       0.198  10.637  20.618  0.00  0.00    +0.000 N 
ATOM     17  O   UNL     1      -0.876  11.010  20.126  0.00  0.00    +0.000 OA
ATOM     18  O   UNL     1       0.700  11.106  21.650  0.00  0.00    +0.000 OA
ENDBRANCH  13  16
ENDBRANCH   9  10
TORSDOF 2
ENDMDL
MODEL 8
REMARK VINA RESULT:      -6.4      1.613      2.025
REMARK  Name = 
REMARK  2 active torsions:
REMARK  status: ('A' for Active; 'I' for Inactive)
REMARK    1  A    between atoms: N_9  and  C_10
REMARK    2  A    between atoms: C_13  and  N_14
REMARK                            x       y       z     vdW  Elec       q    Type
REMARK                         _______ _______ _______ _____ _____    ______ ____
ROOT
ATOM      1  O   UNL     1       2.459   2.870  16.570  0.00  0.00    +0.000 OA
ATOM      2  C   UNL     1       2.863   3.422  17.597  0.00  0.00    +0.000 A 
ATOM      3  C   UNL     1       2.034   3.327  18.838  0.00  0.00    +0.000 A 
ATOM      4 CL   UNL     1       0.534   2.471  18.716  0.00  0.00    +0.000 Cl
ATOM      5  C   UNL     1       2.451   3.878  19.976  0.00  0.00    +0.000 A 
ATOM      6 CL   UNL     1       1.613   3.859  21.473  0.00  0.00    +0.000 Cl
ATOM      7  C   UNL     1       3.753   4.544  19.946  0.00  0.00    +0.000 A 
ATOM      8  N   UNL     1       4.522   4.655  18.916  0.00  0.00    +0.000 NA
ATOM      9  N   UNL     1       4.076   4.122  17.720  0.00  0.00    +0.000 N 
ENDROOT
BRANCH   9  10
ATOM     10  C   UNL     1       4.965   4.368  16.616  0.00  0.00    +0.000 A 
ATOM     11  C   UNL     1       5.668   3.333  15.979  0.00  0.00    +0.000 A 
ATOM     12  C   UNL     1       6.509   3.583  14.887  0.00  0.00    +0.000 A 
ATOM     13  C   UNL     1       6.667   4.889  14.420  0.00  0.00    +0.000 A 
ATOM     14  C   UNL     1       5.986   5.942  15.036  0.00  0.00    +0.000 A 
ATOM     15  C   UNL     1       5.135   5.675  16.118  0.00  0.00    +0.000 A 
BRANCH  13  16
ATOM     16  N   UNL     1       7.542   5.150  13.271  0.00  0.00    +0.000 N 
ATOM     17  O   UNL     1       7.250   4.617  12.191  0.00  0.00    +0.000 OA
ATOM     18  O   UNL     1       8.519   5.891  13.448  0.00  0.00    +0.000 OA
ENDBRANCH  13  16
ENDBRANCH   9  10
TORSDOF 2
ENDMDL
MODEL 9
REMARK VINA RESULT:      -6.3      4.390      7.245
REMARK  Name = 
REMARK  2 active torsions:
REMARK  status: ('A' for Active; 'I' for Inactive)
REMARK    1  A    between atoms: N_9  and  C_10
REMARK    2  A    between atoms: C_13  and  N_14
REMARK                            x       y       z     vdW  Elec       q    Type
REMARK                         _______ _______ _______ _____ _____    ______ ____
ROOT
ATOM      1  O   UNL     1       1.698   4.711  18.641  0.00  0.00    +0.000 OA
ATOM      2  C   UNL     1       2.698   5.162  18.078  0.00  0.00    +0.000 A 
ATOM      3  C   UNL     1       3.613   4.215  17.368  0.00  0.00    +0.000 A 
ATOM      4 CL   UNL     1       3.204   2.533  17.431  0.00  0.00    +0.000 Cl
ATOM      5  C   UNL     1       4.684   4.666  16.718  0.00  0.00    +0.000 A 
ATOM      6 CL   UNL     1       5.824   3.708  15.865  0.00  0.00    +0.000 Cl
ATOM      7  C   UNL     1       4.892   6.114  16.718  0.00  0.00    +0.000 A 
ATOM      8  N   UNL     1       4.141   6.986  17.301  0.00  0.00    +0.000 NA
ATOM      9  N   UNL     1       3.051   6.522  18.014  0.00  0.00    +0.000 N 
ENDROOT
BRANCH   9  10
ATOM     10  C   UNL     1       2.325   7.561  18.693  0.00  0.00    +0.000 A 
ATOM     11  C   UNL     1       1.803   8.674  18.013  0.00  0.00    +0.000 A 
ATOM     12  C   UNL     1       1.074   9.665  18.682  0.00  0.00    +0.000 A 
ATOM     13  C   UNL     1       0.864   9.559  20.058  0.00  0.00    +0.000 A 
ATOM     14  C   UNL     1       1.376   8.468  20.765  0.00  0.00    +0.000 A 
ATOM     15  C   UNL     1       2.089   7.475  20.079  0.00  0.00    +0.000 A 
BRANCH  13  16
ATOM     16  N   UNL     1       0.093  10.594  20.759  0.00  0.00    +0.000 N 
ATOM     17  O   UNL     1       0.461  10.916  21.897  0.00  0.00    +0.000 OA
ATOM     18  O   UNL     1      -0.879  11.086  20.169  0.00  0.00    +0.000 OA
ENDBRANCH  13  16
ENDBRANCH   9  10
TORSDOF 2
ENDMDL
