MODEL 1
REMARK VINA RESULT:      -7.9      0.000      0.000
REMARK  Name = 
REMARK  7 active torsions:
REMARK  status: ('A' for Active; 'I' for Inactive)
REMARK    1  A    between atoms: C_1  and  O_2
REMARK    2  A    between atoms: O_2  and  C_3
REMARK    3  A    between atoms: C_3  and  C_4
REMARK    4  A    between atoms: C_4  and  C_5
REMARK    5  A    between atoms: C_8  and  C_9
REMARK    6  A    between atoms: C_10  and  C_11
REMARK    7  A    between atoms: C_14  and  N_15
REMARK                            x       y       z     vdW  Elec       q    Type
REMARK                         _______ _______ _______ _____ _____    ______ ____
ROOT
ATOM      1  C   UNL     1       2.799   6.406  19.066  0.00  0.00    +0.000 A 
ATOM      2  C   UNL     1       2.199   6.009  20.259  0.00  0.00    +0.000 A 
ATOM      3  C   UNL     1       2.313   4.740  21.023  0.00  0.00    +0.000 C 
ATOM      4  N   UNL     1       1.367   6.991  20.741  0.00  0.00    +0.000 NA
ATOM      5  C   UNL     1       1.456   8.004  19.905  0.00  0.00    +0.000 A 
ATOM      6  C   UNL     1       0.793   9.282  19.883  0.00  0.00    +0.000 A 
ATOM      7  C   UNL     1       1.114  10.106  18.868  0.00  0.00    +0.000 A 
ATOM      8  C   UNL     1       2.102   9.668  17.868  0.00  0.00    +0.000 A 
ATOM      9  N   UNL     1       2.694   8.523  17.836  0.00  0.00    +0.000 NA
ATOM     10  N   UNL     1       2.341   7.705  18.873  0.00  0.00    +0.000 N 
ENDROOT
BRANCH   1  14
ATOM     11  C   UNL     1       5.316   4.357  16.324  0.00  0.00    +0.000 A 
ATOM     12  C   UNL     1       4.088   3.803  16.661  0.00  0.00    +0.000 A 
ATOM     13  C   UNL     1       3.257   4.492  17.538  0.00  0.00    +0.000 A 
ATOM     14  C   UNL     1       3.678   5.680  18.136  0.00  0.00    +0.000 A 
ATOM     15  C   UNL     1       4.954   6.120  17.779  0.00  0.00    +0.000 A 
ATOM     16  N   UNL     1       5.766   5.502  16.883  0.00  0.00    +0.000 NA
BRANCH  11  17
ATOM     17  C   UNL     1       6.163   3.728  15.252  0.00  0.00    +0.000 C 
BRANCH  17  18
ATOM     18  C   UNL     1       6.775   4.800  14.352  0.00  0.00    +0.000 C 
BRANCH  18  20
ATOM     19  C   UNL     1       5.924   3.477  12.614  0.00  0.00    +0.000 C 
ATOM     20  O   UNL     1       7.025   4.266  13.052  0.00  0.00    +0.000 OA
ENDBRANCH  18  20
ENDBRANCH  17  18
ENDBRANCH  11  17
ENDBRANCH   1  14
BRANCH   6  21
ATOM     21  N   UNL     1      -0.145   9.670  20.855  0.00  0.00    +0.000 N 
ATOM     22  C   UNL     1      -0.783  11.003  20.895  0.00  0.00    +0.000 C 
ATOM     23  C   UNL     1      -0.441  11.728  22.203  0.00  0.00    +0.000 C 
ATOM     24  O   UNL     1      -0.805  10.937  23.350  0.00  0.00    +0.000 OA
ATOM     25  C   UNL     1      -0.107   9.683  23.325  0.00  0.00    +0.000 C 
ATOM     26  C   UNL     1      -0.449   8.874  22.062  0.00  0.00    +0.000 C 
ENDBRANCH   6  21
TORSDOF 5
ENDMDL
MODEL 2
REMARK VINA RESULT:      -7.2      3.513      8.643
REMARK  Name = 
REMARK  7 active torsions:
REMARK  status: ('A' for Active; 'I' for Inactive)
REMARK    1  A    between atoms: C_1  and  O_2
REMARK    2  A    between atoms: O_2  and  C_3
REMARK    3  A    between atoms: C_3  and  C_4
REMARK    4  A    between atoms: C_4  and  C_5
REMARK    5  A    between atoms: C_8  and  C_9
REMARK    6  A    between atoms: C_10  and  C_11
REMARK    7  A    between atoms: C_14  and  N_15
REMARK                            x       y       z     vdW  Elec       q    Type
REMARK                         _______ _______ _______ _____ _____    ______ ____
ROOT
ATOM      1  C   UNL     1       0.719  10.077  20.532  0.00  0.00    +0.000 A 
ATOM      2  C   UNL     1       0.613   9.266  21.660  0.00  0.00    +0.000 A 
ATOM      3  C   UNL     1       0.022   9.539  22.994  0.00  0.00    +0.000 C 
ATOM      4  N   UNL     1       1.183   8.036  21.435  0.00  0.00    +0.000 NA
ATOM      5  C   UNL     1       1.611   8.040  20.190  0.00  0.00    +0.000 A 
ATOM      6  C   UNL     1       2.311   7.045  19.420  0.00  0.00    +0.000 A 
ATOM      7  C   UNL     1       2.609   7.372  18.148  0.00  0.00    +0.000 A 
ATOM      8  C   UNL     1       2.209   8.690  17.630  0.00  0.00    +0.000 A 
ATOM      9  N   UNL     1       1.609   9.618  18.294  0.00  0.00    +0.000 NA
ATOM     10  N   UNL     1       1.328   9.261  19.584  0.00  0.00    +0.000 N 
ENDROOT
BRANCH   1  14
ATOM     11  C   UNL     1      -0.352  14.151  19.975  0.00  0.00    +0.000 A 
ATOM     12  C   UNL     1      -1.288  13.161  19.707  0.00  0.00    +0.000 A 
ATOM     13  C   UNL     1      -0.940  11.831  19.917  0.00  0.00    +0.000 A 
ATOM     14  C   UNL     1       0.353  11.485  20.314  0.00  0.00    +0.000 A 
ATOM     15  C   UNL     1       1.236  12.550  20.497  0.00  0.00    +0.000 A 
ATOM     16  N   UNL     1       0.911  13.861  20.356  0.00  0.00    +0.000 NA
BRANCH  11  17
ATOM     17  C   UNL     1      -0.747  15.601  19.924  0.00  0.00    +0.000 C 
BRANCH  17  18
ATOM     18  C   UNL     1      -0.162  16.274  18.683  0.00  0.00    +0.000 C 
BRANCH  18  20
ATOM     19  C   UNL     1      -0.415  18.152  17.304  0.00  0.00    +0.000 C 
ATOM     20  O   UNL     1      -1.081  17.236  18.166  0.00  0.00    +0.000 OA
ENDBRANCH  18  20
ENDBRANCH  17  18
ENDBRANCH  11  17
ENDBRANCH   1  14
BRANCH   6  21
ATOM     21  N   UNL     1       2.676   5.794  19.946  0.00  0.00    +0.000 N 
ATOM     22  C   UNL     1       3.983   5.149  19.698  0.00  0.00    +0.000 C 
ATOM     23  C   UNL     1       3.797   3.807  18.978  0.00  0.00    +0.000 C 
ATOM     24  O   UNL     1       2.914   2.938  19.713  0.00  0.00    +0.000 OA
ATOM     25  C   UNL     1       1.629   3.559  19.866  0.00  0.00    +0.000 C 
ATOM     26  C   UNL     1       1.734   4.888  20.632  0.00  0.00    +0.000 C 
ENDBRANCH   6  21
TORSDOF 5
ENDMDL
MODEL 3
REMARK VINA RESULT:      -7.1      3.529      8.444
REMARK  Name = 
REMARK  7 active torsions:
REMARK  status: ('A' for Active; 'I' for Inactive)
REMARK    1  A    between atoms: C_1  and  O_2
REMARK    2  A    between atoms: O_2  and  C_3
REMARK    3  A    between atoms: C_3  and  C_4
REMARK    4  A    between atoms: C_4  and  C_5
REMARK    5  A    between atoms: C_8  and  C_9
REMARK    6  A    between atoms: C_10  and  C_11
REMARK    7  A    between atoms: C_14  and  N_15
REMARK                            x       y       z     vdW  Elec       q    Type
REMARK                         _______ _______ _______ _____ _____    ______ ____
ROOT
ATOM      1  C   UNL     1       0.815   9.892  20.304  0.00  0.00    +0.000 A 
ATOM      2  C   UNL     1       0.629   9.130  21.455  0.00  0.00    +0.000 A 
ATOM      3  C   UNL     1      -0.026   9.468  22.743  0.00  0.00    +0.000 C 
ATOM      4  N   UNL     1       1.182   7.880  21.310  0.00  0.00    +0.000 NA
ATOM      5  C   UNL     1       1.677   7.825  20.091  0.00  0.00    +0.000 A 
ATOM      6  C   UNL     1       2.395   6.785  19.400  0.00  0.00    +0.000 A 
ATOM      7  C   UNL     1       2.769   7.054  18.135  0.00  0.00    +0.000 A 
ATOM      8  C   UNL     1       2.427   8.359  17.545  0.00  0.00    +0.000 A 
ATOM      9  N   UNL     1       1.813   9.325  18.138  0.00  0.00    +0.000 NA
ATOM     10  N   UNL     1       1.455   9.026  19.423  0.00  0.00    +0.000 N 
ENDROOT
BRANCH   1  14
ATOM     11  C   UNL     1      -0.087  13.942  19.388  0.00  0.00    +0.000 A 
ATOM     12  C   UNL     1       1.046  13.652  20.137  0.00  0.00    +0.000 A 
ATOM     13  C   UNL     1       1.350  12.323  20.410  0.00  0.00    +0.000 A 
ATOM     14  C   UNL     1       0.493  11.297  20.011  0.00  0.00    +0.000 A 
ATOM     15  C   UNL     1      -0.651  11.698  19.318  0.00  0.00    +0.000 A 
ATOM     16  N   UNL     1      -0.947  12.981  18.986  0.00  0.00    +0.000 NA
BRANCH  11  17
ATOM     17  C   UNL     1      -0.353  15.349  18.929  0.00  0.00    +0.000 C 
BRANCH  17  18
ATOM     18  C   UNL     1       0.924  16.186  18.992  0.00  0.00    +0.000 C 
BRANCH  18  20
ATOM     19  C   UNL     1      -0.449  17.635  17.763  0.00  0.00    +0.000 C 
ATOM     20  O   UNL     1       0.890  17.211  17.999  0.00  0.00    +0.000 OA
ENDBRANCH  18  20
ENDBRANCH  17  18
ENDBRANCH  11  17
ENDBRANCH   1  14
BRANCH   6  21
ATOM     21  N   UNL     1       2.702   5.549  19.993  0.00  0.00    +0.000 N 
ATOM     22  C   UNL     1       3.954   4.804  19.738  0.00  0.00    +0.000 C 
ATOM     23  C   UNL     1       3.652   3.434  19.118  0.00  0.00    +0.000 C 
ATOM     24  O   UNL     1       2.748   2.675  19.943  0.00  0.00    +0.000 OA
ATOM     25  C   UNL     1       1.513   3.388  20.105  0.00  0.00    +0.000 C 
ATOM     26  C   UNL     1       1.735   4.753  20.776  0.00  0.00    +0.000 C 
ENDBRANCH   6  21
TORSDOF 5
ENDMDL
MODEL 4
REMARK VINA RESULT:      -6.8      3.297      8.671
REMARK  Name = 
REMARK  7 active torsions:
REMARK  status: ('A' for Active; 'I' for Inactive)
REMARK    1  A    between atoms: C_1  and  O_2
REMARK    2  A    between atoms: O_2  and  C_3
REMARK    3  A    between atoms: C_3  and  C_4
REMARK    4  A    between atoms: C_4  and  C_5
REMARK    5  A    between atoms: C_8  and  C_9
REMARK    6  A    between atoms: C_10  and  C_11
REMARK    7  A    between atoms: C_14  and  N_15
REMARK                            x       y       z     vdW  Elec       q    Type
REMARK                         _______ _______ _______ _____ _____    ______ ____
ROOT
ATOM      1  C   UNL     1       0.852   9.892  20.246  0.00  0.00    +0.000 A 
ATOM      2  C   UNL     1       0.636   9.129  21.390  0.00  0.00    +0.000 A 
ATOM      3  C   UNL     1      -0.054   9.466  22.661  0.00  0.00    +0.000 C 
ATOM      4  N   UNL     1       1.193   7.880  21.260  0.00  0.00    +0.000 NA
ATOM      5  C   UNL     1       1.721   7.826  20.055  0.00  0.00    +0.000 A 
ATOM      6  C   UNL     1       2.457   6.787  19.383  0.00  0.00    +0.000 A 
ATOM      7  C   UNL     1       2.865   7.057  18.128  0.00  0.00    +0.000 A 
ATOM      8  C   UNL     1       2.538   8.362  17.530  0.00  0.00    +0.000 A 
ATOM      9  N   UNL     1       1.908   9.327  18.107  0.00  0.00    +0.000 NA
ATOM     10  N   UNL     1       1.516   9.027  19.382  0.00  0.00    +0.000 N 
ENDROOT
BRANCH   1  14
ATOM     11  C   UNL     1      -0.022  13.944  19.311  0.00  0.00    +0.000 A 
ATOM     12  C   UNL     1       1.022  13.658  20.181  0.00  0.00    +0.000 A 
ATOM     13  C   UNL     1       1.320  12.329  20.462  0.00  0.00    +0.000 A 
ATOM     14  C   UNL     1       0.536  11.297  19.945  0.00  0.00    +0.000 A 
ATOM     15  C   UNL     1      -0.526  11.692  19.130  0.00  0.00    +0.000 A 
ATOM     16  N   UNL     1      -0.809  12.977  18.791  0.00  0.00    +0.000 NA
BRANCH  11  17
ATOM     17  C   UNL     1      -0.262  15.356  18.852  0.00  0.00    +0.000 C 
BRANCH  17  18
ATOM     18  C   UNL     1      -0.648  16.247  20.032  0.00  0.00    +0.000 C 
BRANCH  18  20
ATOM     19  C   UNL     1      -2.028  15.771  21.866  0.00  0.00    +0.000 C 
ATOM     20  O   UNL     1      -1.980  15.953  20.455  0.00  0.00    +0.000 OA
ENDBRANCH  18  20
ENDBRANCH  17  18
ENDBRANCH  11  17
ENDBRANCH   1  14
BRANCH   6  21
ATOM     21  N   UNL     1       2.750   5.551  19.983  0.00  0.00    +0.000 N 
ATOM     22  C   UNL     1       3.971   4.767  19.698  0.00  0.00    +0.000 C 
ATOM     23  C   UNL     1       3.610   3.398  19.108  0.00  0.00    +0.000 C 
ATOM     24  O   UNL     1       2.714   2.676  19.973  0.00  0.00    +0.000 OA
ATOM     25  C   UNL     1       1.505   3.426  20.165  0.00  0.00    +0.000 C 
ATOM     26  C   UNL     1       1.787   4.793  20.808  0.00  0.00    +0.000 C 
ENDBRANCH   6  21
TORSDOF 5
ENDMDL
MODEL 5
REMARK VINA RESULT:      -6.8      3.040      9.067
REMARK  Name = 
REMARK  7 active torsions:
REMARK  status: ('A' for Active; 'I' for Inactive)
REMARK    1  A    between atoms: C_1  and  O_2
REMARK    2  A    between atoms: O_2  and  C_3
REMARK    3  A    between atoms: C_3  and  C_4
REMARK    4  A    between atoms: C_4  and  C_5
REMARK    5  A    between atoms: C_8  and  C_9
REMARK    6  A    between atoms: C_10  and  C_11
REMARK    7  A    between atoms: C_14  and  N_15
REMARK                            x       y       z     vdW  Elec       q    Type
REMARK                         _______ _______ _______ _____ _____    ______ ____
ROOT
ATOM      1  C   UNL     1       0.578  10.118  20.660  0.00  0.00    +0.000 A 
ATOM      2  C   UNL     1       0.568   9.281  21.773  0.00  0.00    +0.000 A 
ATOM      3  C   UNL     1       0.022   9.492  23.137  0.00  0.00    +0.000 C 
ATOM      4  N   UNL     1       1.198   8.091  21.497  0.00  0.00    +0.000 NA
ATOM      5  C   UNL     1       1.570   8.144  20.235  0.00  0.00    +0.000 A 
ATOM      6  C   UNL     1       2.293   7.207  19.415  0.00  0.00    +0.000 A 
ATOM      7  C   UNL     1       2.516   7.576  18.139  0.00  0.00    +0.000 A 
ATOM      8  C   UNL     1       2.018   8.878  17.668  0.00  0.00    +0.000 A 
ATOM      9  N   UNL     1       1.394   9.756  18.377  0.00  0.00    +0.000 NA
ATOM     10  N   UNL     1       1.191   9.357  19.669  0.00  0.00    +0.000 N 
ENDROOT
BRANCH   1  14
ATOM     11  C   UNL     1      -0.753  14.131  20.239  0.00  0.00    +0.000 A 
ATOM     12  C   UNL     1      -1.625  13.092  19.940  0.00  0.00    +0.000 A 
ATOM     13  C   UNL     1      -1.192  11.781  20.106  0.00  0.00    +0.000 A 
ATOM     14  C   UNL     1       0.121  11.506  20.488  0.00  0.00    +0.000 A 
ATOM     15  C   UNL     1       0.936  12.619  20.704  0.00  0.00    +0.000 A 
ATOM     16  N   UNL     1       0.527  13.910  20.606  0.00  0.00    +0.000 NA
BRANCH  11  17
ATOM     17  C   UNL     1      -1.240  15.554  20.235  0.00  0.00    +0.000 C 
BRANCH  17  18
ATOM     18  C   UNL     1      -2.348  15.746  21.270  0.00  0.00    +0.000 C 
BRANCH  18  20
ATOM     19  C   UNL     1      -1.804  16.854  23.262  0.00  0.00    +0.000 C 
ATOM     20  O   UNL     1      -1.821  15.600  22.588  0.00  0.00    +0.000 OA
ENDBRANCH  18  20
ENDBRANCH  17  18
ENDBRANCH  11  17
ENDBRANCH   1  14
BRANCH   6  21
ATOM     21  N   UNL     1       2.752   5.970  19.896  0.00  0.00    +0.000 N 
ATOM     22  C   UNL     1       4.072   5.395  19.557  0.00  0.00    +0.000 C 
ATOM     23  C   UNL     1       3.907   4.054  18.830  0.00  0.00    +0.000 C 
ATOM     24  O   UNL     1       3.117   3.132  19.604  0.00  0.00    +0.000 OA
ATOM     25  C   UNL     1       1.814   3.685  19.848  0.00  0.00    +0.000 C 
ATOM     26  C   UNL     1       1.901   5.008  20.627  0.00  0.00    +0.000 C 
ENDBRANCH   6  21
TORSDOF 5
ENDMDL
MODEL 6
REMARK VINA RESULT:      -6.8      1.880      9.274
REMARK  Name = 
REMARK  7 active torsions:
REMARK  status: ('A' for Active; 'I' for Inactive)
REMARK    1  A    between atoms: C_1  and  O_2
REMARK    2  A    between atoms: O_2  and  C_3
REMARK    3  A    between atoms: C_3  and  C_4
REMARK    4  A    between atoms: C_4  and  C_5
REMARK    5  A    between atoms: C_8  and  C_9
REMARK    6  A    between atoms: C_10  and  C_11
REMARK    7  A    between atoms: C_14  and  N_15
REMARK                            x       y       z     vdW  Elec       q    Type
REMARK                         _______ _______ _______ _____ _____    ______ ____
ROOT
ATOM      1  C   UNL     1       1.400   9.128  19.672  0.00  0.00    +0.000 A 
ATOM      2  C   UNL     1       2.024   9.493  18.482  0.00  0.00    +0.000 A 
ATOM      3  C   UNL     1       2.077  10.801  17.780  0.00  0.00    +0.000 C 
ATOM      4  N   UNL     1       2.658   8.417  17.909  0.00  0.00    +0.000 NA
ATOM      5  C   UNL     1       2.480   7.397  18.723  0.00  0.00    +0.000 A 
ATOM      6  C   UNL     1       2.888   6.020  18.628  0.00  0.00    +0.000 A 
ATOM      7  C   UNL     1       2.537   5.219  19.652  0.00  0.00    +0.000 A 
ATOM      8  C   UNL     1       1.782   5.784  20.783  0.00  0.00    +0.000 A 
ATOM      9  N   UNL     1       1.373   7.002  20.892  0.00  0.00    +0.000 NA
ATOM     10  N   UNL     1       1.736   7.787  19.833  0.00  0.00    +0.000 N 
ENDROOT
BRANCH   1  14
ATOM     11  C   UNL     1      -1.142  11.263  22.324  0.00  0.00    +0.000 A 
ATOM     12  C   UNL     1      -1.399  11.301  20.960  0.00  0.00    +0.000 A 
ATOM     13  C   UNL     1      -0.580  10.578  20.100  0.00  0.00    +0.000 A 
ATOM     14  C   UNL     1       0.533   9.889  20.585  0.00  0.00    +0.000 A 
ATOM     15  C   UNL     1       0.739   9.964  21.963  0.00  0.00    +0.000 A 
ATOM     16  N   UNL     1      -0.074  10.613  22.836  0.00  0.00    +0.000 NA
BRANCH  11  17
ATOM     17  C   UNL     1      -2.104  11.890  23.296  0.00  0.00    +0.000 C 
BRANCH  17  18
ATOM     18  C   UNL     1      -3.243  12.586  22.552  0.00  0.00    +0.000 C 
BRANCH  18  20
ATOM     19  C   UNL     1      -4.298  12.440  24.639  0.00  0.00    +0.000 C 
ATOM     20  O   UNL     1      -4.480  12.367  23.229  0.00  0.00    +0.000 OA
ENDBRANCH  18  20
ENDBRANCH  17  18
ENDBRANCH  11  17
ENDBRANCH   1  14
BRANCH   6  21
ATOM     21  N   UNL     1       3.611   5.514  17.535  0.00  0.00    +0.000 N 
ATOM     22  C   UNL     1       3.466   4.135  17.021  0.00  0.00    +0.000 C 
ATOM     23  C   UNL     1       4.795   3.376  17.124  0.00  0.00    +0.000 C 
ATOM     24  O   UNL     1       5.853   4.079  16.446  0.00  0.00    +0.000 OA
ATOM     25  C   UNL     1       6.023   5.384  17.021  0.00  0.00    +0.000 C 
ATOM     26  C   UNL     1       4.741   6.224  16.902  0.00  0.00    +0.000 C 
ENDBRANCH   6  21
TORSDOF 5
ENDMDL
MODEL 7
REMARK VINA RESULT:      -6.8      3.207      8.632
REMARK  Name = 
REMARK  7 active torsions:
REMARK  status: ('A' for Active; 'I' for Inactive)
REMARK    1  A    between atoms: C_1  and  O_2
REMARK    2  A    between atoms: O_2  and  C_3
REMARK    3  A    between atoms: C_3  and  C_4
REMARK    4  A    between atoms: C_4  and  C_5
REMARK    5  A    between atoms: C_8  and  C_9
REMARK    6  A    between atoms: C_10  and  C_11
REMARK    7  A    between atoms: C_14  and  N_15
REMARK                            x       y       z     vdW  Elec       q    Type
REMARK                         _______ _______ _______ _____ _____    ______ ____
ROOT
ATOM      1  C   UNL     1       0.865   9.800  20.194  0.00  0.00    +0.000 A 
ATOM      2  C   UNL     1       0.617   9.024  21.324  0.00  0.00    +0.000 A 
ATOM      3  C   UNL     1      -0.115   9.345  22.575  0.00  0.00    +0.000 C 
ATOM      4  N   UNL     1       1.185   7.779  21.198  0.00  0.00    +0.000 NA
ATOM      5  C   UNL     1       1.751   7.740  20.010  0.00  0.00    +0.000 A 
ATOM      6  C   UNL     1       2.514   6.712  19.351  0.00  0.00    +0.000 A 
ATOM      7  C   UNL     1       2.960   6.998  18.113  0.00  0.00    +0.000 A 
ATOM      8  C   UNL     1       2.645   8.307  17.518  0.00  0.00    +0.000 A 
ATOM      9  N   UNL     1       1.991   9.263  18.084  0.00  0.00    +0.000 NA
ATOM     10  N   UNL     1       1.561   8.947  19.343  0.00  0.00    +0.000 N 
ENDROOT
BRANCH   1  14
ATOM     11  C   UNL     1      -0.064  13.871  19.409  0.00  0.00    +0.000 A 
ATOM     12  C   UNL     1      -0.960  12.884  19.021  0.00  0.00    +0.000 A 
ATOM     13  C   UNL     1      -0.663  11.556  19.305  0.00  0.00    +0.000 A 
ATOM     14  C   UNL     1       0.551  11.206  19.898  0.00  0.00    +0.000 A 
ATOM     15  C   UNL     1       1.409  12.267  20.193  0.00  0.00    +0.000 A 
ATOM     16  N   UNL     1       1.125  13.578  19.981  0.00  0.00    +0.000 NA
BRANCH  11  17
ATOM     17  C   UNL     1      -0.429  15.324  19.273  0.00  0.00    +0.000 C 
BRANCH  17  18
ATOM     18  C   UNL     1      -0.420  16.011  20.638  0.00  0.00    +0.000 C 
BRANCH  18  20
ATOM     19  C   UNL     1      -2.741  15.958  20.956  0.00  0.00    +0.000 C 
ATOM     20  O   UNL     1      -1.483  15.510  21.448  0.00  0.00    +0.000 OA
ENDBRANCH  18  20
ENDBRANCH  17  18
ENDBRANCH  11  17
ENDBRANCH   1  14
BRANCH   6  21
ATOM     21  N   UNL     1       2.795   5.472  19.948  0.00  0.00    +0.000 N 
ATOM     22  C   UNL     1       4.026   4.695  19.688  0.00  0.00    +0.000 C 
ATOM     23  C   UNL     1       3.685   3.330  19.076  0.00  0.00    +0.000 C 
ATOM     24  O   UNL     1       2.768   2.597  19.910  0.00  0.00    +0.000 OA
ATOM     25  C   UNL     1       1.552   3.342  20.077  0.00  0.00    +0.000 C 
ATOM     26  C   UNL     1       1.813   4.704  20.740  0.00  0.00    +0.000 C 
ENDBRANCH   6  21
TORSDOF 5
ENDMDL
MODEL 8
REMARK VINA RESULT:      -6.6      2.722      4.242
REMARK  Name = 
REMARK  7 active torsions:
REMARK  status: ('A' for Active; 'I' for Inactive)
REMARK    1  A    between atoms: C_1  and  O_2
REMARK    2  A    between atoms: O_2  and  C_3
REMARK    3  A    between atoms: C_3  and  C_4
REMARK    4  A    between atoms: C_4  and  C_5
REMARK    5  A    between atoms: C_8  and  C_9
REMARK    6  A    between atoms: C_10  and  C_11
REMARK    7  A    between atoms: C_14  and  N_15
REMARK                            x       y       z     vdW  Elec       q    Type
REMARK                         _______ _______ _______ _____ _____    ______ ____
ROOT
ATOM      1  C   UNL     1       0.880   9.387  20.442  0.00  0.00    +0.000 A 
ATOM      2  C   UNL     1       0.913   9.828  21.762  0.00  0.00    +0.000 A 
ATOM      3  C   UNL     1       1.731   9.370  22.914  0.00  0.00    +0.000 C 
ATOM      4  N   UNL     1       0.004  10.838  21.965  0.00  0.00    +0.000 NA
ATOM      5  C   UNL     1      -0.572  11.067  20.803  0.00  0.00    +0.000 A 
ATOM      6  C   UNL     1      -1.615  11.983  20.421  0.00  0.00    +0.000 A 
ATOM      7  C   UNL     1      -1.982  11.965  19.125  0.00  0.00    +0.000 A 
ATOM      8  C   UNL     1      -1.310  11.039  18.198  0.00  0.00    +0.000 A 
ATOM      9  N   UNL     1      -0.395  10.185  18.506  0.00  0.00    +0.000 NA
ATOM     10  N   UNL     1      -0.051  10.220  19.829  0.00  0.00    +0.000 N 
ENDROOT
BRANCH   1  14
ATOM     11  C   UNL     1       2.977   6.214  18.547  0.00  0.00    +0.000 A 
ATOM     12  C   UNL     1       2.834   7.425  17.882  0.00  0.00    +0.000 A 
ATOM     13  C   UNL     1       2.170   8.468  18.519  0.00  0.00    +0.000 A 
ATOM     14  C   UNL     1       1.585   8.283  19.772  0.00  0.00    +0.000 A 
ATOM     15  C   UNL     1       1.732   7.011  20.328  0.00  0.00    +0.000 A 
ATOM     16  N   UNL     1       2.422   5.990  19.758  0.00  0.00    +0.000 NA
BRANCH  11  17
ATOM     17  C   UNL     1       3.833   5.124  17.962  0.00  0.00    +0.000 C 
BRANCH  17  18
ATOM     18  C   UNL     1       4.393   4.229  19.066  0.00  0.00    +0.000 C 
BRANCH  18  20
ATOM     19  C   UNL     1       6.440   5.368  19.123  0.00  0.00    +0.000 C 
ATOM     20  O   UNL     1       5.808   4.107  18.931  0.00  0.00    +0.000 OA
ENDBRANCH  18  20
ENDBRANCH  17  18
ENDBRANCH  11  17
ENDBRANCH   1  14
BRANCH   6  21
ATOM     21  N   UNL     1      -2.233  12.855  21.331  0.00  0.00    +0.000 N 
ATOM     22  C   UNL     1      -1.581  14.060  21.887  0.00  0.00    +0.000 C 
ATOM     23  C   UNL     1      -1.467  13.959  23.414  0.00  0.00    +0.000 C 
ATOM     24  O   UNL     1      -2.753  13.733  24.020  0.00  0.00    +0.000 OA
ATOM     25  C   UNL     1      -3.325  12.514  23.521  0.00  0.00    +0.000 C 
ATOM     26  C   UNL     1      -3.520  12.567  21.996  0.00  0.00    +0.000 C 
ENDBRANCH   6  21
TORSDOF 5
ENDMDL
MODEL 9
REMARK VINA RESULT:      -6.5      4.124      6.127
REMARK  Name = 
REMARK  7 active torsions:
REMARK  status: ('A' for Active; 'I' for Inactive)
REMARK    1  A    between atoms: C_1  and  O_2
REMARK    2  A    between atoms: O_2  and  C_3
REMARK    3  A    between atoms: C_3  and  C_4
REMARK    4  A    between atoms: C_4  and  C_5
REMARK    5  A    between atoms: C_8  and  C_9
REMARK    6  A    between atoms: C_10  and  C_11
REMARK    7  A    between atoms: C_14  and  N_15
REMARK                            x       y       z     vdW  Elec       q    Type
REMARK                         _______ _______ _______ _____ _____    ______ ____
ROOT
ATOM      1  C   UNL     1       0.276  11.055  18.998  0.00  0.00    +0.000 A 
ATOM      2  C   UNL     1      -0.983  11.410  18.519  0.00  0.00    +0.000 A 
ATOM      3  C   UNL     1      -2.054  10.581  17.910  0.00  0.00    +0.000 C 
ATOM      4  N   UNL     1      -1.193  12.762  18.646  0.00  0.00    +0.000 NA
ATOM      5  C   UNL     1      -0.119  13.258  19.223  0.00  0.00    +0.000 A 
ATOM      6  C   UNL     1       0.236  14.609  19.574  0.00  0.00    +0.000 A 
ATOM      7  C   UNL     1       1.435  14.780  20.163  0.00  0.00    +0.000 A 
ATOM      8  C   UNL     1       2.289  13.607  20.412  0.00  0.00    +0.000 A 
ATOM      9  N   UNL     1       2.021  12.388  20.087  0.00  0.00    +0.000 NA
ATOM     10  N   UNL     1       0.802  12.248  19.482  0.00  0.00    +0.000 N 
ENDROOT
BRANCH   1  14
ATOM     11  C   UNL     1       2.390   7.369  19.010  0.00  0.00    +0.000 A 
ATOM     12  C   UNL     1       2.281   8.085  17.825  0.00  0.00    +0.000 A 
ATOM     13  C   UNL     1       1.612   9.304  17.833  0.00  0.00    +0.000 A 
ATOM     14  C   UNL     1       0.987   9.767  18.992  0.00  0.00    +0.000 A 
ATOM     15  C   UNL     1       1.102   8.944  20.114  0.00  0.00    +0.000 A 
ATOM     16  N   UNL     1       1.797   7.778  20.152  0.00  0.00    +0.000 NA
BRANCH  11  17
ATOM     17  C   UNL     1       3.250   6.137  19.075  0.00  0.00    +0.000 C 
BRANCH  17  18
ATOM     18  C   UNL     1       2.900   5.175  17.941  0.00  0.00    +0.000 C 
BRANCH  18  20
ATOM     19  C   UNL     1       1.894   3.075  18.202  0.00  0.00    +0.000 C 
ATOM     20  O   UNL     1       1.688   4.483  18.240  0.00  0.00    +0.000 OA
ENDBRANCH  18  20
ENDBRANCH  17  18
ENDBRANCH  11  17
ENDBRANCH   1  14
BRANCH   6  21
ATOM     21  N   UNL     1      -0.605  15.706  19.324  0.00  0.00    +0.000 N 
ATOM     22  C   UNL     1      -0.417  16.646  18.198  0.00  0.00    +0.000 C 
ATOM     23  C   UNL     1      -0.177  18.070  18.715  0.00  0.00    +0.000 C 
ATOM     24  O   UNL     1      -1.245  18.498  19.582  0.00  0.00    +0.000 OA
ATOM     25  C   UNL     1      -1.349  17.612  20.707  0.00  0.00    +0.000 C 
ATOM     26  C   UNL     1      -1.646  16.171  20.263  0.00  0.00    +0.000 C 
ENDBRANCH   6  21
TORSDOF 5
ENDMDL
