MODEL 1
REMARK VINA RESULT:      -8.6      0.000      0.000
REMARK  Name = 
REMARK  5 active torsions:
REMARK  status: ('A' for Active; 'I' for Inactive)
REMARK    1  A    between atoms: N_1  and  C_2
REMARK    2  A    between atoms: C_7  and  C_8
REMARK    3  A    between atoms: C_8  and  C_10
REMARK    4  A    between atoms: C_20  and  C_21
REMARK    5  A    between atoms: C_21  and  C_23
REMARK                            x       y       z     vdW  Elec       q    Type
REMARK                         _______ _______ _______ _____ _____    ______ ____
ROOT
ATOM      1  C   UNL     1       4.340   2.904  19.910  0.00  0.00    +0.000 A 
ATOM      2  N   UNL     1       3.091   2.943  20.424  0.00  0.00    +0.000 NA
ATOM      3  C   UNL     1       2.688   4.175  20.224  0.00  0.00    +0.000 A 
ATOM      4  C   UNL     1       1.474   4.809  20.594  0.00  0.00    +0.000 A 
ATOM      5  C   UNL     1       1.274   6.105  20.295  0.00  0.00    +0.000 A 
ATOM      6  C   UNL     1       2.254   6.875  19.532  0.00  0.00    +0.000 A 
ATOM      7  C   UNL     1       3.426   6.279  19.214  0.00  0.00    +0.000 A 
ATOM      8  N   UNL     1       3.648   4.940  19.562  0.00  0.00    +0.000 N 
ATOM      9  C   UNL     1       4.732   4.095  19.329  0.00  0.00    +0.000 A 
ENDROOT
BRANCH   1  10
ATOM     10  N   UNL     1       5.025   1.764  20.036  0.00  0.00    +0.000 N 
ATOM     11  H   UNL     1       5.069   1.186  19.200  0.00  0.00    +0.000 HD
ATOM     12  H   UNL     1       4.984   1.211  20.885  0.00  0.00    +0.000 HD
ENDBRANCH   1  10
BRANCH   6  13
ATOM     13  C   UNL     1       2.039   8.297  19.093  0.00  0.00    +0.000 C 
ATOM     14  O   UNL     1       2.641   8.750  18.122  0.00  0.00    +0.000 OA
BRANCH  13  15
ATOM     15  C   UNL     1       1.088   9.174  19.816  0.00  0.00    +0.000 A 
ATOM     16  C   UNL     1       0.058   9.807  19.114  0.00  0.00    +0.000 A 
ATOM     17  F   UNL     1      -0.053   9.683  17.785  0.00  0.00    +0.000 F 
ATOM     18  C   UNL     1      -0.875  10.612  19.771  0.00  0.00    +0.000 A 
ATOM     19  C   UNL     1      -0.786  10.805  21.148  0.00  0.00    +0.000 A 
ATOM     20  C   UNL     1       0.226  10.170  21.863  0.00  0.00    +0.000 A 
ATOM     21  C   UNL     1       1.136   9.344  21.201  0.00  0.00    +0.000 A 
ATOM     22  F   UNL     1       2.052   8.709  21.945  0.00  0.00    +0.000 F 
ENDBRANCH  13  15
ENDBRANCH   6  13
BRANCH   9  23
ATOM     23  C   UNL     1       5.957   4.465  18.657  0.00  0.00    +0.000 C 
ATOM     24  O   UNL     1       6.980   4.781  19.262  0.00  0.00    +0.000 OA
BRANCH  23  25
ATOM     25  C   UNL     1       6.029   4.475  17.166  0.00  0.00    +0.000 A 
ATOM     26  C   UNL     1       7.223   4.860  16.551  0.00  0.00    +0.000 A 
ATOM     27  C   UNL     1       7.270   4.872  15.168  0.00  0.00    +0.000 A 
ATOM     28  N   UNL     1       6.226   4.532  14.382  0.00  0.00    +0.000 NA
ATOM     29  C   UNL     1       5.079   4.185  15.000  0.00  0.00    +0.000 A 
ATOM     30  C   UNL     1       4.924   4.153  16.373  0.00  0.00    +0.000 A 
ENDBRANCH  23  25
ENDBRANCH   9  23
TORSDOF 5
ENDMDL
MODEL 2
REMARK VINA RESULT:      -8.6      0.098      1.565
REMARK  Name = 
REMARK  5 active torsions:
REMARK  status: ('A' for Active; 'I' for Inactive)
REMARK    1  A    between atoms: N_1  and  C_2
REMARK    2  A    between atoms: C_7  and  C_8
REMARK    3  A    between atoms: C_8  and  C_10
REMARK    4  A    between atoms: C_20  and  C_21
REMARK    5  A    between atoms: C_21  and  C_23
REMARK                            x       y       z     vdW  Elec       q    Type
REMARK                         _______ _______ _______ _____ _____    ______ ____
ROOT
ATOM      1  C   UNL     1       4.320   2.891  19.871  0.00  0.00    +0.000 A 
ATOM      2  N   UNL     1       3.073   2.915  20.390  0.00  0.00    +0.000 NA
ATOM      3  C   UNL     1       2.664   4.149  20.216  0.00  0.00    +0.000 A 
ATOM      4  C   UNL     1       1.448   4.770  20.604  0.00  0.00    +0.000 A 
ATOM      5  C   UNL     1       1.242   6.071  20.331  0.00  0.00    +0.000 A 
ATOM      6  C   UNL     1       2.216   6.861  19.580  0.00  0.00    +0.000 A 
ATOM      7  C   UNL     1       3.389   6.276  19.246  0.00  0.00    +0.000 A 
ATOM      8  N   UNL     1       3.618   4.931  19.565  0.00  0.00    +0.000 N 
ATOM      9  C   UNL     1       4.704   4.095  19.311  0.00  0.00    +0.000 A 
ENDROOT
BRANCH   1  10
ATOM     10  N   UNL     1       5.009   1.752  19.971  0.00  0.00    +0.000 N 
ATOM     11  H   UNL     1       4.723   1.132  20.725  0.00  0.00    +0.000 HD
ATOM     12  H   UNL     1       6.009   1.720  19.804  0.00  0.00    +0.000 HD
ENDBRANCH   1  10
BRANCH   6  13
ATOM     13  C   UNL     1       1.994   8.290  19.170  0.00  0.00    +0.000 C 
ATOM     14  O   UNL     1       2.602   8.770  18.216  0.00  0.00    +0.000 OA
BRANCH  13  15
ATOM     15  C   UNL     1       1.026   9.142  19.902  0.00  0.00    +0.000 A 
ATOM     16  C   UNL     1       1.158   9.310  21.283  0.00  0.00    +0.000 A 
ATOM     17  F   UNL     1       2.111   8.668  21.971  0.00  0.00    +0.000 F 
ATOM     18  C   UNL     1       0.284  10.132  21.997  0.00  0.00    +0.000 A 
ATOM     19  C   UNL     1      -0.748  10.796  21.337  0.00  0.00    +0.000 A 
ATOM     20  C   UNL     1      -0.884  10.649  19.959  0.00  0.00    +0.000 A 
ATOM     21  C   UNL     1       0.014   9.848  19.251  0.00  0.00    +0.000 A 
ATOM     22  F   UNL     1      -0.125   9.790  17.919  0.00  0.00    +0.000 F 
ENDBRANCH  13  15
ENDBRANCH   6  13
BRANCH   9  23
ATOM     23  C   UNL     1       5.926   4.483  18.642  0.00  0.00    +0.000 C 
ATOM     24  O   UNL     1       6.943   4.812  19.249  0.00  0.00    +0.000 OA
BRANCH  23  25
ATOM     25  C   UNL     1       6.000   4.498  17.151  0.00  0.00    +0.000 A 
ATOM     26  C   UNL     1       7.220   4.795  16.539  0.00  0.00    +0.000 A 
ATOM     27  C   UNL     1       7.269   4.812  15.157  0.00  0.00    +0.000 A 
ATOM     28  N   UNL     1       6.203   4.559  14.367  0.00  0.00    +0.000 NA
ATOM     29  C   UNL     1       5.032   4.296  14.983  0.00  0.00    +0.000 A 
ATOM     30  C   UNL     1       4.874   4.267  16.355  0.00  0.00    +0.000 A 
ENDBRANCH  23  25
ENDBRANCH   9  23
TORSDOF 5
ENDMDL
MODEL 3
REMARK VINA RESULT:      -8.6      1.828      2.675
REMARK  Name = 
REMARK  5 active torsions:
REMARK  status: ('A' for Active; 'I' for Inactive)
REMARK    1  A    between atoms: N_1  and  C_2
REMARK    2  A    between atoms: C_7  and  C_8
REMARK    3  A    between atoms: C_8  and  C_10
REMARK    4  A    between atoms: C_20  and  C_21
REMARK    5  A    between atoms: C_21  and  C_23
REMARK                            x       y       z     vdW  Elec       q    Type
REMARK                         _______ _______ _______ _____ _____    ______ ____
ROOT
ATOM      1  C   UNL     1       2.947   4.040  19.952  0.00  0.00    +0.000 A 
ATOM      2  N   UNL     1       2.360   4.685  20.984  0.00  0.00    +0.000 NA
ATOM      3  C   UNL     1       2.105   5.887  20.523  0.00  0.00    +0.000 A 
ATOM      4  C   UNL     1       1.536   7.012  21.173  0.00  0.00    +0.000 A 
ATOM      5  C   UNL     1       1.376   8.166  20.502  0.00  0.00    +0.000 A 
ATOM      6  C   UNL     1       1.715   8.283  19.085  0.00  0.00    +0.000 A 
ATOM      7  C   UNL     1       2.293   7.220  18.479  0.00  0.00    +0.000 A 
ATOM      8  N   UNL     1       2.494   6.031  19.191  0.00  0.00    +0.000 N 
ATOM      9  C   UNL     1       3.026   4.802  18.802  0.00  0.00    +0.000 A 
ENDROOT
BRANCH   1  10
ATOM     10  N   UNL     1       3.375   2.793  20.166  0.00  0.00    +0.000 N 
ATOM     11  H   UNL     1       4.202   2.710  20.752  0.00  0.00    +0.000 HD
ATOM     12  H   UNL     1       3.345   2.089  19.437  0.00  0.00    +0.000 HD
ENDBRANCH   1  10
BRANCH   6  13
ATOM     13  C   UNL     1       1.470   9.520  18.267  0.00  0.00    +0.000 C 
ATOM     14  O   UNL     1       2.211   9.808  17.331  0.00  0.00    +0.000 OA
BRANCH  13  15
ATOM     15  C   UNL     1       0.322  10.407  18.568  0.00  0.00    +0.000 A 
ATOM     16  C   UNL     1       0.491  11.487  19.439  0.00  0.00    +0.000 A 
ATOM     17  F   UNL     1       1.660  11.705  20.054  0.00  0.00    +0.000 F 
ATOM     18  C   UNL     1      -0.562  12.361  19.718  0.00  0.00    +0.000 A 
ATOM     19  C   UNL     1      -1.811  12.162  19.134  0.00  0.00    +0.000 A 
ATOM     20  C   UNL     1      -1.991  11.098  18.253  0.00  0.00    +0.000 A 
ATOM     21  C   UNL     1      -0.924  10.248  17.959  0.00  0.00    +0.000 A 
ATOM     22  F   UNL     1      -1.135   9.277  17.059  0.00  0.00    +0.000 F 
ENDBRANCH  13  15
ENDBRANCH   6  13
BRANCH   9  23
ATOM     23  C   UNL     1       3.550   4.490  17.491  0.00  0.00    +0.000 C 
ATOM     24  O   UNL     1       2.940   3.801  16.676  0.00  0.00    +0.000 OA
BRANCH  23  25
ATOM     25  C   UNL     1       4.885   5.008  17.068  0.00  0.00    +0.000 A 
ATOM     26  C   UNL     1       5.407   4.600  15.837  0.00  0.00    +0.000 A 
ATOM     27  C   UNL     1       6.648   5.082  15.464  0.00  0.00    +0.000 A 
ATOM     28  N   UNL     1       7.383   5.924  16.222  0.00  0.00    +0.000 NA
ATOM     29  C   UNL     1       6.866   6.286  17.415  0.00  0.00    +0.000 A 
ATOM     30  C   UNL     1       5.642   5.851  17.886  0.00  0.00    +0.000 A 
ENDBRANCH  23  25
ENDBRANCH   9  23
TORSDOF 5
ENDMDL
MODEL 4
REMARK VINA RESULT:      -8.5      1.779      2.265
REMARK  Name = 
REMARK  5 active torsions:
REMARK  status: ('A' for Active; 'I' for Inactive)
REMARK    1  A    between atoms: N_1  and  C_2
REMARK    2  A    between atoms: C_7  and  C_8
REMARK    3  A    between atoms: C_8  and  C_10
REMARK    4  A    between atoms: C_20  and  C_21
REMARK    5  A    between atoms: C_21  and  C_23
REMARK                            x       y       z     vdW  Elec       q    Type
REMARK                         _______ _______ _______ _____ _____    ______ ____
ROOT
ATOM      1  C   UNL     1       3.012   4.006  19.946  0.00  0.00    +0.000 A 
ATOM      2  N   UNL     1       2.424   4.645  20.982  0.00  0.00    +0.000 NA
ATOM      3  C   UNL     1       2.151   5.843  20.521  0.00  0.00    +0.000 A 
ATOM      4  C   UNL     1       1.572   6.961  21.175  0.00  0.00    +0.000 A 
ATOM      5  C   UNL     1       1.394   8.113  20.504  0.00  0.00    +0.000 A 
ATOM      6  C   UNL     1       1.722   8.233  19.085  0.00  0.00    +0.000 A 
ATOM      7  C   UNL     1       2.309   7.177  18.475  0.00  0.00    +0.000 A 
ATOM      8  N   UNL     1       2.530   5.990  19.187  0.00  0.00    +0.000 N 
ATOM      9  C   UNL     1       3.075   4.769  18.796  0.00  0.00    +0.000 A 
ENDROOT
BRANCH   1  10
ATOM     10  N   UNL     1       3.457   2.765  20.159  0.00  0.00    +0.000 N 
ATOM     11  H   UNL     1       3.672   2.537  21.126  0.00  0.00    +0.000 HD
ATOM     12  H   UNL     1       4.083   2.306  19.506  0.00  0.00    +0.000 HD
ENDBRANCH   1  10
BRANCH   6  13
ATOM     13  C   UNL     1       1.457   9.466  18.267  0.00  0.00    +0.000 C 
ATOM     14  O   UNL     1       2.165   9.742  17.302  0.00  0.00    +0.000 OA
BRANCH  13  15
ATOM     15  C   UNL     1       0.328  10.365  18.605  0.00  0.00    +0.000 A 
ATOM     16  C   UNL     1      -0.903  10.201  17.965  0.00  0.00    +0.000 A 
ATOM     17  F   UNL     1      -1.069   9.281  17.006  0.00  0.00    +0.000 F 
ATOM     18  C   UNL     1      -1.997  11.009  18.284  0.00  0.00    +0.000 A 
ATOM     19  C   UNL     1      -1.871  12.007  19.249  0.00  0.00    +0.000 A 
ATOM     20  C   UNL     1      -0.655  12.173  19.905  0.00  0.00    +0.000 A 
ATOM     21  C   UNL     1       0.423  11.341  19.599  0.00  0.00    +0.000 A 
ATOM     22  F   UNL     1       1.551  11.504  20.303  0.00  0.00    +0.000 F 
ENDBRANCH  13  15
ENDBRANCH   6  13
BRANCH   9  23
ATOM     23  C   UNL     1       3.594   4.462  17.482  0.00  0.00    +0.000 C 
ATOM     24  O   UNL     1       2.995   3.753  16.676  0.00  0.00    +0.000 OA
BRANCH  23  25
ATOM     25  C   UNL     1       4.912   5.011  17.042  0.00  0.00    +0.000 A 
ATOM     26  C   UNL     1       5.439   4.597  15.816  0.00  0.00    +0.000 A 
ATOM     27  C   UNL     1       6.664   5.109  15.428  0.00  0.00    +0.000 A 
ATOM     28  N   UNL     1       7.377   5.986  16.168  0.00  0.00    +0.000 NA
ATOM     29  C   UNL     1       6.855   6.352  17.357  0.00  0.00    +0.000 A 
ATOM     30  C   UNL     1       5.647   5.890  17.842  0.00  0.00    +0.000 A 
ENDBRANCH  23  25
ENDBRANCH   9  23
TORSDOF 5
ENDMDL
MODEL 5
REMARK VINA RESULT:      -8.2      2.118      2.954
REMARK  Name = 
REMARK  5 active torsions:
REMARK  status: ('A' for Active; 'I' for Inactive)
REMARK    1  A    between atoms: N_1  and  C_2
REMARK    2  A    between atoms: C_7  and  C_8
REMARK    3  A    between atoms: C_8  and  C_10
REMARK    4  A    between atoms: C_20  and  C_21
REMARK    5  A    between atoms: C_21  and  C_23
REMARK                            x       y       z     vdW  Elec       q    Type
REMARK                         _______ _______ _______ _____ _____    ______ ____
ROOT
ATOM      1  C   UNL     1       3.027   4.333  20.131  0.00  0.00    +0.000 A 
ATOM      2  N   UNL     1       2.084   4.790  20.985  0.00  0.00    +0.000 NA
ATOM      3  C   UNL     1       1.828   6.009  20.575  0.00  0.00    +0.000 A 
ATOM      4  C   UNL     1       0.954   6.988  21.116  0.00  0.00    +0.000 A 
ATOM      5  C   UNL     1       0.856   8.196  20.533  0.00  0.00    +0.000 A 
ATOM      6  C   UNL     1       1.581   8.516  19.305  0.00  0.00    +0.000 A 
ATOM      7  C   UNL     1       2.442   7.594  18.814  0.00  0.00    +0.000 A 
ATOM      8  N   UNL     1       2.572   6.351  19.446  0.00  0.00    +0.000 N 
ATOM      9  C   UNL     1       3.346   5.234  19.134  0.00  0.00    +0.000 A 
ENDROOT
BRANCH   1  10
ATOM     10  N   UNL     1       3.526   3.115  20.356  0.00  0.00    +0.000 N 
ATOM     11  H   UNL     1       3.227   2.673  21.222  0.00  0.00    +0.000 HD
ATOM     12  H   UNL     1       4.482   2.880  20.113  0.00  0.00    +0.000 HD
ENDBRANCH   1  10
BRANCH   6  13
ATOM     13  C   UNL     1       1.436   9.816  18.563  0.00  0.00    +0.000 C 
ATOM     14  O   UNL     1       2.247  10.138  17.699  0.00  0.00    +0.000 OA
BRANCH  13  15
ATOM     15  C   UNL     1       0.301  10.725  18.853  0.00  0.00    +0.000 A 
ATOM     16  C   UNL     1       0.478  11.791  19.739  0.00  0.00    +0.000 A 
ATOM     17  F   UNL     1       1.641  11.976  20.379  0.00  0.00    +0.000 F 
ATOM     18  C   UNL     1      -0.560  12.686  20.009  0.00  0.00    +0.000 A 
ATOM     19  C   UNL     1      -1.802  12.521  19.399  0.00  0.00    +0.000 A 
ATOM     20  C   UNL     1      -1.989  11.471  18.503  0.00  0.00    +0.000 A 
ATOM     21  C   UNL     1      -0.935  10.600  18.219  0.00  0.00    +0.000 A 
ATOM     22  F   UNL     1      -1.151   9.645  17.305  0.00  0.00    +0.000 F 
ENDBRANCH  13  15
ENDBRANCH   6  13
BRANCH   9  23
ATOM     23  C   UNL     1       4.270   5.135  18.025  0.00  0.00    +0.000 C 
ATOM     24  O   UNL     1       4.011   4.517  16.995  0.00  0.00    +0.000 OA
BRANCH  23  25
ATOM     25  C   UNL     1       5.606   5.799  18.092  0.00  0.00    +0.000 A 
ATOM     26  C   UNL     1       5.883   6.847  17.211  0.00  0.00    +0.000 A 
ATOM     27  C   UNL     1       7.128   7.445  17.281  0.00  0.00    +0.000 A 
ATOM     28  N   UNL     1       8.089   7.072  18.153  0.00  0.00    +0.000 NA
ATOM     29  C   UNL     1       7.804   6.043  18.978  0.00  0.00    +0.000 A 
ATOM     30  C   UNL     1       6.597   5.371  18.980  0.00  0.00    +0.000 A 
ENDBRANCH  23  25
ENDBRANCH   9  23
TORSDOF 5
ENDMDL
MODEL 6
REMARK VINA RESULT:      -8.1      1.634      2.495
REMARK  Name = 
REMARK  5 active torsions:
REMARK  status: ('A' for Active; 'I' for Inactive)
REMARK    1  A    between atoms: N_1  and  C_2
REMARK    2  A    between atoms: C_7  and  C_8
REMARK    3  A    between atoms: C_8  and  C_10
REMARK    4  A    between atoms: C_20  and  C_21
REMARK    5  A    between atoms: C_21  and  C_23
REMARK                            x       y       z     vdW  Elec       q    Type
REMARK                         _______ _______ _______ _____ _____    ______ ____
ROOT
ATOM      1  C   UNL     1       4.074   3.214  19.545  0.00  0.00    +0.000 A 
ATOM      2  N   UNL     1       3.023   3.380  20.377  0.00  0.00    +0.000 NA
ATOM      3  C   UNL     1       2.640   4.620  20.185  0.00  0.00    +0.000 A 
ATOM      4  C   UNL     1       1.611   5.365  20.818  0.00  0.00    +0.000 A 
ATOM      5  C   UNL     1       1.399   6.646  20.469  0.00  0.00    +0.000 A 
ATOM      6  C   UNL     1       2.161   7.286  19.400  0.00  0.00    +0.000 A 
ATOM      7  C   UNL     1       3.167   6.586  18.826  0.00  0.00    +0.000 A 
ATOM      8  N   UNL     1       3.412   5.263  19.218  0.00  0.00    +0.000 N 
ATOM      9  C   UNL     1       4.344   4.327  18.773  0.00  0.00    +0.000 A 
ENDROOT
BRANCH   1  10
ATOM     10  N   UNL     1       4.710   2.040  19.580  0.00  0.00    +0.000 N 
ATOM     11  H   UNL     1       5.234   1.801  18.741  0.00  0.00    +0.000 HD
ATOM     12  H   UNL     1       4.297   1.225  20.021  0.00  0.00    +0.000 HD
ENDBRANCH   1  10
BRANCH   6  13
ATOM     13  C   UNL     1       1.902   8.684  18.909  0.00  0.00    +0.000 C 
ATOM     14  O   UNL     1       2.553   9.153  17.980  0.00  0.00    +0.000 OA
BRANCH  13  15
ATOM     15  C   UNL     1       0.845   9.516  19.532  0.00  0.00    +0.000 A 
ATOM     16  C   UNL     1       0.978   9.924  20.862  0.00  0.00    +0.000 A 
ATOM     17  F   UNL     1       2.020   9.529  21.607  0.00  0.00    +0.000 F 
ATOM     18  C   UNL     1       0.017  10.735  21.469  0.00  0.00    +0.000 A 
ATOM     19  C   UNL     1      -1.105  11.146  20.752  0.00  0.00    +0.000 A 
ATOM     20  C   UNL     1      -1.245  10.759  19.422  0.00  0.00    +0.000 A 
ATOM     21  C   UNL     1      -0.263   9.972  18.817  0.00  0.00    +0.000 A 
ATOM     22  F   UNL     1      -0.418   9.679  17.518  0.00  0.00    +0.000 F 
ENDBRANCH  13  15
ENDBRANCH   6  13
BRANCH   9  23
ATOM     23  C   UNL     1       5.349   4.558  17.759  0.00  0.00    +0.000 C 
ATOM     24  O   UNL     1       5.420   3.892  16.728  0.00  0.00    +0.000 OA
BRANCH  23  25
ATOM     25  C   UNL     1       6.361   5.642  17.930  0.00  0.00    +0.000 A 
ATOM     26  C   UNL     1       7.296   5.535  18.963  0.00  0.00    +0.000 A 
ATOM     27  C   UNL     1       8.221   6.553  19.112  0.00  0.00    +0.000 A 
ATOM     28  N   UNL     1       8.270   7.642  18.315  0.00  0.00    +0.000 NA
ATOM     29  C   UNL     1       7.343   7.731  17.339  0.00  0.00    +0.000 A 
ATOM     30  C   UNL     1       6.369   6.778  17.114  0.00  0.00    +0.000 A 
ENDBRANCH  23  25
ENDBRANCH   9  23
TORSDOF 5
ENDMDL
MODEL 7
REMARK VINA RESULT:      -8.1      1.573      1.993
REMARK  Name = 
REMARK  5 active torsions:
REMARK  status: ('A' for Active; 'I' for Inactive)
REMARK    1  A    between atoms: N_1  and  C_2
REMARK    2  A    between atoms: C_7  and  C_8
REMARK    3  A    between atoms: C_8  and  C_10
REMARK    4  A    between atoms: C_20  and  C_21
REMARK    5  A    between atoms: C_21  and  C_23
REMARK                            x       y       z     vdW  Elec       q    Type
REMARK                         _______ _______ _______ _____ _____    ______ ____
ROOT
ATOM      1  C   UNL     1       3.577   2.469  18.695  0.00  0.00    +0.000 A 
ATOM      2  N   UNL     1       2.300   2.344  19.117  0.00  0.00    +0.000 NA
ATOM      3  C   UNL     1       1.993   3.524  19.601  0.00  0.00    +0.000 A 
ATOM      4  C   UNL     1       0.799   3.972  20.225  0.00  0.00    +0.000 A 
ATOM      5  C   UNL     1       0.706   5.239  20.665  0.00  0.00    +0.000 A 
ATOM      6  C   UNL     1       1.786   6.203  20.461  0.00  0.00    +0.000 A 
ATOM      7  C   UNL     1       2.937   5.762  19.901  0.00  0.00    +0.000 A 
ATOM      8  N   UNL     1       3.045   4.431  19.479  0.00  0.00    +0.000 N 
ATOM      9  C   UNL     1       4.086   3.744  18.855  0.00  0.00    +0.000 A 
ENDROOT
BRANCH   1  10
ATOM     10  N   UNL     1       4.175   1.380  18.205  0.00  0.00    +0.000 N 
ATOM     11  H   UNL     1       4.111   0.547  18.785  0.00  0.00    +0.000 HD
ATOM     12  H   UNL     1       5.058   1.437  17.708  0.00  0.00    +0.000 HD
ENDBRANCH   1  10
BRANCH   6  13
ATOM     13  C   UNL     1       1.696   7.652  20.850  0.00  0.00    +0.000 C 
ATOM     14  O   UNL     1       2.187   8.050  21.903  0.00  0.00    +0.000 OA
BRANCH  13  15
ATOM     15  C   UNL     1       1.024   8.630  19.961  0.00  0.00    +0.000 A 
ATOM     16  C   UNL     1      -0.130   9.285  20.399  0.00  0.00    +0.000 A 
ATOM     17  F   UNL     1      -0.677   9.004  21.589  0.00  0.00    +0.000 F 
ATOM     18  C   UNL     1      -0.768  10.236  19.599  0.00  0.00    +0.000 A 
ATOM     19  C   UNL     1      -0.263  10.541  18.337  0.00  0.00    +0.000 A 
ATOM     20  C   UNL     1       0.894   9.907  17.893  0.00  0.00    +0.000 A 
ATOM     21  C   UNL     1       1.540   8.980  18.712  0.00  0.00    +0.000 A 
ATOM     22  F   UNL     1       2.683   8.444  18.261  0.00  0.00    +0.000 F 
ENDBRANCH  13  15
ENDBRANCH   6  13
BRANCH   9  23
ATOM     23  C   UNL     1       5.378   4.299  18.519  0.00  0.00    +0.000 C 
ATOM     24  O   UNL     1       6.307   4.359  19.321  0.00  0.00    +0.000 OA
BRANCH  23  25
ATOM     25  C   UNL     1       5.638   4.833  17.149  0.00  0.00    +0.000 A 
ATOM     26  C   UNL     1       6.557   4.170  16.331  0.00  0.00    +0.000 A 
ATOM     27  C   UNL     1       6.793   4.682  15.068  0.00  0.00    +0.000 A 
ATOM     28  N   UNL     1       6.184   5.786  14.582  0.00  0.00    +0.000 NA
ATOM     29  C   UNL     1       5.318   6.419  15.400  0.00  0.00    +0.000 A 
ATOM     30  C   UNL     1       5.022   5.997  16.682  0.00  0.00    +0.000 A 
ENDBRANCH  23  25
ENDBRANCH   9  23
TORSDOF 5
ENDMDL
MODEL 8
REMARK VINA RESULT:      -8.1      1.537      1.880
REMARK  Name = 
REMARK  5 active torsions:
REMARK  status: ('A' for Active; 'I' for Inactive)
REMARK    1  A    between atoms: N_1  and  C_2
REMARK    2  A    between atoms: C_7  and  C_8
REMARK    3  A    between atoms: C_8  and  C_10
REMARK    4  A    between atoms: C_20  and  C_21
REMARK    5  A    between atoms: C_21  and  C_23
REMARK                            x       y       z     vdW  Elec       q    Type
REMARK                         _______ _______ _______ _____ _____    ______ ____
ROOT
ATOM      1  C   UNL     1       3.720   2.709  18.916  0.00  0.00    +0.000 A 
ATOM      2  N   UNL     1       2.666   2.829  19.754  0.00  0.00    +0.000 NA
ATOM      3  C   UNL     1       2.395   4.113  19.764  0.00  0.00    +0.000 A 
ATOM      4  C   UNL     1       1.418   4.833  20.499  0.00  0.00    +0.000 A 
ATOM      5  C   UNL     1       1.324   6.167  20.363  0.00  0.00    +0.000 A 
ATOM      6  C   UNL     1       2.163   6.903  19.419  0.00  0.00    +0.000 A 
ATOM      7  C   UNL     1       3.119   6.219  18.748  0.00  0.00    +0.000 A 
ATOM      8  N   UNL     1       3.241   4.834  18.922  0.00  0.00    +0.000 N 
ATOM      9  C   UNL     1       4.101   3.905  18.339  0.00  0.00    +0.000 A 
ENDROOT
BRANCH   1  10
ATOM     10  N   UNL     1       4.252   1.494  18.765  0.00  0.00    +0.000 N 
ATOM     11  H   UNL     1       4.414   0.977  19.626  0.00  0.00    +0.000 HD
ATOM     12  H   UNL     1       4.962   1.309  18.065  0.00  0.00    +0.000 HD
ENDBRANCH   1  10
BRANCH   6  13
ATOM     13  C   UNL     1       2.034   8.379  19.161  0.00  0.00    +0.000 C 
ATOM     14  O   UNL     1       2.718   8.926  18.300  0.00  0.00    +0.000 OA
BRANCH  13  15
ATOM     15  C   UNL     1       1.070   9.197  19.934  0.00  0.00    +0.000 A 
ATOM     16  C   UNL     1       0.007   9.822  19.276  0.00  0.00    +0.000 A 
ATOM     17  F   UNL     1      -0.126   9.743  17.945  0.00  0.00    +0.000 F 
ATOM     18  C   UNL     1      -0.938  10.572  19.979  0.00  0.00    +0.000 A 
ATOM     19  C   UNL     1      -0.828  10.717  21.361  0.00  0.00    +0.000 A 
ATOM     20  C   UNL     1       0.218  10.089  22.032  0.00  0.00    +0.000 A 
ATOM     21  C   UNL     1       1.140   9.318  21.323  0.00  0.00    +0.000 A 
ATOM     22  F   UNL     1       2.090   8.687  22.026  0.00  0.00    +0.000 F 
ENDBRANCH  13  15
ENDBRANCH   6  13
BRANCH   9  23
ATOM     23  C   UNL     1       5.145   4.208  17.386  0.00  0.00    +0.000 C 
ATOM     24  O   UNL     1       5.251   3.630  16.307  0.00  0.00    +0.000 OA
BRANCH  23  25
ATOM     25  C   UNL     1       6.159   5.263  17.685  0.00  0.00    +0.000 A 
ATOM     26  C   UNL     1       6.961   5.125  18.821  0.00  0.00    +0.000 A 
ATOM     27  C   UNL     1       7.889   6.115  19.087  0.00  0.00    +0.000 A 
ATOM     28  N   UNL     1       8.063   7.206  18.311  0.00  0.00    +0.000 NA
ATOM     29  C   UNL     1       7.261   7.326  17.232  0.00  0.00    +0.000 A 
ATOM     30  C   UNL     1       6.295   6.401  16.885  0.00  0.00    +0.000 A 
ENDBRANCH  23  25
ENDBRANCH   9  23
TORSDOF 5
ENDMDL
MODEL 9
REMARK VINA RESULT:      -8.0      1.534      2.471
REMARK  Name = 
REMARK  5 active torsions:
REMARK  status: ('A' for Active; 'I' for Inactive)
REMARK    1  A    between atoms: N_1  and  C_2
REMARK    2  A    between atoms: C_7  and  C_8
REMARK    3  A    between atoms: C_8  and  C_10
REMARK    4  A    between atoms: C_20  and  C_21
REMARK    5  A    between atoms: C_21  and  C_23
REMARK                            x       y       z     vdW  Elec       q    Type
REMARK                         _______ _______ _______ _____ _____    ______ ____
ROOT
ATOM      1  C   UNL     1       3.759   2.814  19.117  0.00  0.00    +0.000 A 
ATOM      2  N   UNL     1       2.706   2.942  19.954  0.00  0.00    +0.000 NA
ATOM      3  C   UNL     1       2.409   4.219  19.921  0.00  0.00    +0.000 A 
ATOM      4  C   UNL     1       1.420   4.945  20.635  0.00  0.00    +0.000 A 
ATOM      5  C   UNL     1       1.299   6.271  20.454  0.00  0.00    +0.000 A 
ATOM      6  C   UNL     1       2.121   6.991  19.483  0.00  0.00    +0.000 A 
ATOM      7  C   UNL     1       3.088   6.304  18.832  0.00  0.00    +0.000 A 
ATOM      8  N   UNL     1       3.238   4.928  19.052  0.00  0.00    +0.000 N 
ATOM      9  C   UNL     1       4.115   3.997  18.498  0.00  0.00    +0.000 A 
ENDROOT
BRANCH   1  10
ATOM     10  N   UNL     1       4.315   1.605  19.005  0.00  0.00    +0.000 N 
ATOM     11  H   UNL     1       4.140   1.122  18.126  0.00  0.00    +0.000 HD
ATOM     12  H   UNL     1       4.363   0.967  19.792  0.00  0.00    +0.000 HD
ENDBRANCH   1  10
BRANCH   6  13
ATOM     13  C   UNL     1       1.962   8.454  19.175  0.00  0.00    +0.000 C 
ATOM     14  O   UNL     1       2.649   8.991  18.310  0.00  0.00    +0.000 OA
BRANCH  13  15
ATOM     15  C   UNL     1       0.963   9.273  19.904  0.00  0.00    +0.000 A 
ATOM     16  C   UNL     1       1.102   9.471  21.280  0.00  0.00    +0.000 A 
ATOM     17  F   UNL     1       2.091   8.887  21.969  0.00  0.00    +0.000 F 
ATOM     18  C   UNL     1       0.197  10.263  21.990  0.00  0.00    +0.000 A 
ATOM     19  C   UNL     1      -0.872  10.866  21.331  0.00  0.00    +0.000 A 
ATOM     20  C   UNL     1      -1.015  10.689  19.957  0.00  0.00    +0.000 A 
ATOM     21  C   UNL     1      -0.089   9.919  19.253  0.00  0.00    +0.000 A 
ATOM     22  F   UNL     1      -0.239   9.831  17.924  0.00  0.00    +0.000 F 
ENDBRANCH  13  15
ENDBRANCH   6  13
BRANCH   9  23
ATOM     23  C   UNL     1       5.150   4.288  17.532  0.00  0.00    +0.000 C 
ATOM     24  O   UNL     1       5.234   3.710  16.450  0.00  0.00    +0.000 OA
BRANCH  23  25
ATOM     25  C   UNL     1       6.181   5.329  17.818  0.00  0.00    +0.000 A 
ATOM     26  C   UNL     1       6.267   6.442  16.978  0.00  0.00    +0.000 A 
ATOM     27  C   UNL     1       7.234   7.393  17.253  0.00  0.00    +0.000 A 
ATOM     28  N   UNL     1       8.097   7.305  18.287  0.00  0.00    +0.000 NA
ATOM     29  C   UNL     1       8.006   6.210  19.071  0.00  0.00    +0.000 A 
ATOM     30  C   UNL     1       7.087   5.198  18.875  0.00  0.00    +0.000 A 
ENDBRANCH  23  25
ENDBRANCH   9  23
TORSDOF 5
ENDMDL
