MODEL 1
REMARK VINA RESULT:      -7.0      0.000      0.000
REMARK  Name = 
REMARK  9 active torsions:
REMARK  status: ('A' for Active; 'I' for Inactive)
REMARK    1  A    between atoms: C_1  and  C_2
REMARK    2  A    between atoms: N_4  and  C_5
REMARK    3  A    between atoms: N_4  and  C_6
REMARK    4  A    between atoms: C_6  and  C_7
REMARK    5  A    between atoms: C_7  and  O_8
REMARK    6  A    between atoms: O_8  and  C_9
REMARK    7  A    between atoms: C_11  and  C_12
REMARK    8  A    between atoms: C_21  and  O_22
REMARK    9  A    between atoms: C_21  and  C_23
REMARK                            x       y       z     vdW  Elec       q    Type
REMARK                         _______ _______ _______ _____ _____    ______ ____
ROOT
ATOM      1  C   UNL     1      -0.685  13.119  19.036  0.00  0.00    +0.000 A 
ATOM      2  C   UNL     1      -1.227  13.565  20.252  0.00  0.00    +0.000 A 
ATOM      3  C   UNL     1      -2.574  13.318  20.652  0.00  0.00    +0.000 A 
ATOM      4  C   UNL     1      -3.359  12.564  19.758  0.00  0.00    +0.000 A 
ATOM      5  C   UNL     1      -2.765  12.056  18.563  0.00  0.00    +0.000 A 
ATOM      6  C   UNL     1      -1.449  12.326  18.198  0.00  0.00    +0.000 A 
ATOM      7  C   UNL     1      -3.750  11.206  17.766  0.00  0.00    +0.000 C 
ATOM      8  C   UNL     1      -4.971  11.237  18.671  0.00  0.00    +0.000 A 
ATOM      9  C   UNL     1      -6.181  10.575  18.473  0.00  0.00    +0.000 A 
ATOM     10  C   UNL     1      -7.200  10.762  19.400  0.00  0.00    +0.000 A 
ATOM     11  C   UNL     1      -7.029  11.665  20.453  0.00  0.00    +0.000 A 
ATOM     12  C   UNL     1      -5.825  12.362  20.615  0.00  0.00    +0.000 A 
ATOM     13  C   UNL     1      -4.753  12.100  19.771  0.00  0.00    +0.000 A 
ENDROOT
BRANCH   3  14
ATOM     14  C   UNL     1      -3.028  13.869  21.943  0.00  0.00    +0.000 A 
ATOM     15  C   UNL     1      -3.414  15.194  22.104  0.00  0.00    +0.000 A 
ATOM     16  N   UNL     1      -3.910  15.729  23.242  0.00  0.00    +0.000 NA
ATOM     17  C   UNL     1      -4.022  14.885  24.275  0.00  0.00    +0.000 A 
ATOM     18  N   UNL     1      -3.624  13.608  24.284  0.00  0.00    +0.000 NA
ATOM     19  C   UNL     1      -3.104  13.148  23.121  0.00  0.00    +0.000 A 
ENDBRANCH   3  14
BRANCH   7  20
ATOM     20  C   UNL     1      -3.233   9.780  17.407  0.00  0.00    +0.000 C 
ATOM     21  F   UNL     1      -3.833   8.794  18.116  0.00  0.00    +0.000 F 
ATOM     22  F   UNL     1      -3.356   9.458  16.101  0.00  0.00    +0.000 F 
ATOM     23  F   UNL     1      -1.903   9.699  17.703  0.00  0.00    +0.000 F 
ENDBRANCH   7  20
BRANCH   7  24
ATOM     24  O   UNL     1      -4.095  11.988  16.602  0.00  0.00    +0.000 OA
ATOM     25  H   UNL     1      -4.951  11.657  16.272  0.00  0.00    +0.000 HD
ENDBRANCH   7  24
BRANCH   1  26
ATOM     26  O   UNL     1       0.613  13.480  18.800  0.00  0.00    +0.000 OA
BRANCH  26  27
ATOM     27  C   UNL     1       1.582  12.427  18.753  0.00  0.00    +0.000 C 
BRANCH  27  28
ATOM     28  C   UNL     1       1.677  11.776  20.136  0.00  0.00    +0.000 C 
BRANCH  28  32
ATOM     29  C   UNL     1      -0.370   8.827  21.447  0.00  0.00    +0.000 C 
ATOM     30  C   UNL     1       0.338  10.156  21.384  0.00  0.00    +0.000 C 
ATOM     31  O   UNL     1       0.306  10.916  22.357  0.00  0.00    +0.000 OA
ATOM     32  N   UNL     1       1.011  10.477  20.214  0.00  0.00    +0.000 N 
ATOM     33  C   UNL     1       1.218   9.561  19.102  0.00  0.00    +0.000 C 
ENDBRANCH  28  32
ENDBRANCH  27  28
ENDBRANCH  26  27
ENDBRANCH   1  26
TORSDOF 7
ENDMDL
MODEL 2
REMARK VINA RESULT:      -7.0      1.776      2.522
REMARK  Name = 
REMARK  9 active torsions:
REMARK  status: ('A' for Active; 'I' for Inactive)
REMARK    1  A    between atoms: C_1  and  C_2
REMARK    2  A    between atoms: N_4  and  C_5
REMARK    3  A    between atoms: N_4  and  C_6
REMARK    4  A    between atoms: C_6  and  C_7
REMARK    5  A    between atoms: C_7  and  O_8
REMARK    6  A    between atoms: O_8  and  C_9
REMARK    7  A    between atoms: C_11  and  C_12
REMARK    8  A    between atoms: C_21  and  O_22
REMARK    9  A    between atoms: C_21  and  C_23
REMARK                            x       y       z     vdW  Elec       q    Type
REMARK                         _______ _______ _______ _____ _____    ______ ____
ROOT
ATOM      1  C   UNL     1      -0.004  11.952  19.734  0.00  0.00    +0.000 A 
ATOM      2  C   UNL     1      -0.674  12.466  20.856  0.00  0.00    +0.000 A 
ATOM      3  C   UNL     1      -2.090  12.625  20.924  0.00  0.00    +0.000 A 
ATOM      4  C   UNL     1      -2.816  12.212  19.790  0.00  0.00    +0.000 A 
ATOM      5  C   UNL     1      -2.121  11.623  18.691  0.00  0.00    +0.000 A 
ATOM      6  C   UNL     1      -0.736  11.493  18.653  0.00  0.00    +0.000 A 
ATOM      7  C   UNL     1      -3.084  11.174  17.595  0.00  0.00    +0.000 C 
ATOM      8  C   UNL     1      -4.426  11.525  18.215  0.00  0.00    +0.000 A 
ATOM      9  C   UNL     1      -5.689  11.287  17.678  0.00  0.00    +0.000 A 
ATOM     10  C   UNL     1      -6.805  11.720  18.384  0.00  0.00    +0.000 A 
ATOM     11  C   UNL     1      -6.644  12.455  19.562  0.00  0.00    +0.000 A 
ATOM     12  C   UNL     1      -5.367  12.732  20.068  0.00  0.00    +0.000 A 
ATOM     13  C   UNL     1      -4.244  12.204  19.443  0.00  0.00    +0.000 A 
ENDROOT
BRANCH   3  14
ATOM     14  C   UNL     1      -2.667  13.204  22.151  0.00  0.00    +0.000 A 
ATOM     15  C   UNL     1      -2.730  14.573  22.381  0.00  0.00    +0.000 A 
ATOM     16  N   UNL     1      -3.316  15.158  23.451  0.00  0.00    +0.000 NA
ATOM     17  C   UNL     1      -3.866  14.320  24.337  0.00  0.00    +0.000 A 
ATOM     18  N   UNL     1      -3.817  12.984  24.280  0.00  0.00    +0.000 NA
ATOM     19  C   UNL     1      -3.185  12.466  23.200  0.00  0.00    +0.000 A 
ENDBRANCH   3  14
BRANCH   7  20
ATOM     20  C   UNL     1      -2.927   9.685  17.164  0.00  0.00    +0.000 C 
ATOM     21  F   UNL     1      -1.636   9.286  17.063  0.00  0.00    +0.000 F 
ATOM     22  F   UNL     1      -3.550   8.803  17.977  0.00  0.00    +0.000 F 
ATOM     23  F   UNL     1      -3.469   9.518  15.923  0.00  0.00    +0.000 F 
ENDBRANCH   7  20
BRANCH   7  24
ATOM     24  O   UNL     1      -2.895  12.098  16.501  0.00  0.00    +0.000 OA
ATOM     25  H   UNL     1      -2.303  12.806  16.817  0.00  0.00    +0.000 HD
ENDBRANCH   7  24
BRANCH   1  26
ATOM     26  O   UNL     1       1.360  11.907  19.830  0.00  0.00    +0.000 OA
BRANCH  26  27
ATOM     27  C   UNL     1       2.104  12.673  18.876  0.00  0.00    +0.000 C 
BRANCH  27  28
ATOM     28  C   UNL     1       2.813  13.819  19.604  0.00  0.00    +0.000 C 
BRANCH  28  32
ATOM     29  C   UNL     1       0.873  16.296  21.774  0.00  0.00    +0.000 C 
ATOM     30  C   UNL     1       1.782  15.166  21.364  0.00  0.00    +0.000 C 
ATOM     31  O   UNL     1       2.382  14.516  22.227  0.00  0.00    +0.000 OA
ATOM     32  N   UNL     1       1.911  14.896  20.010  0.00  0.00    +0.000 N 
ATOM     33  C   UNL     1       1.113  15.518  18.964  0.00  0.00    +0.000 C 
ENDBRANCH  28  32
ENDBRANCH  27  28
ENDBRANCH  26  27
ENDBRANCH   1  26
TORSDOF 7
ENDMDL
MODEL 3
REMARK VINA RESULT:      -7.0      2.045      3.291
REMARK  Name = 
REMARK  9 active torsions:
REMARK  status: ('A' for Active; 'I' for Inactive)
REMARK    1  A    between atoms: C_1  and  C_2
REMARK    2  A    between atoms: N_4  and  C_5
REMARK    3  A    between atoms: N_4  and  C_6
REMARK    4  A    between atoms: C_6  and  C_7
REMARK    5  A    between atoms: C_7  and  O_8
REMARK    6  A    between atoms: O_8  and  C_9
REMARK    7  A    between atoms: C_11  and  C_12
REMARK    8  A    between atoms: C_21  and  O_22
REMARK    9  A    between atoms: C_21  and  C_23
REMARK                            x       y       z     vdW  Elec       q    Type
REMARK                         _______ _______ _______ _____ _____    ______ ____
ROOT
ATOM      1  C   UNL     1      -0.197  12.492  19.476  0.00  0.00    +0.000 A 
ATOM      2  C   UNL     1      -0.836  12.942  20.642  0.00  0.00    +0.000 A 
ATOM      3  C   UNL     1      -2.249  12.904  20.832  0.00  0.00    +0.000 A 
ATOM      4  C   UNL     1      -3.002  12.357  19.774  0.00  0.00    +0.000 A 
ATOM      5  C   UNL     1      -2.326  11.836  18.630  0.00  0.00    +0.000 A 
ATOM      6  C   UNL     1      -0.944  11.900  18.473  0.00  0.00    +0.000 A 
ATOM      7  C   UNL     1      -3.304  11.222  17.633  0.00  0.00    +0.000 C 
ATOM      8  C   UNL     1      -4.625  11.401  18.362  0.00  0.00    +0.000 A 
ATOM      9  C   UNL     1      -5.882  10.971  17.943  0.00  0.00    +0.000 A 
ATOM     10  C   UNL     1      -6.985  11.267  18.736  0.00  0.00    +0.000 A 
ATOM     11  C   UNL     1      -6.831  12.055  19.880  0.00  0.00    +0.000 A 
ATOM     12  C   UNL     1      -5.569  12.523  20.266  0.00  0.00    +0.000 A 
ATOM     13  C   UNL     1      -4.439  12.138  19.555  0.00  0.00    +0.000 A 
ENDROOT
BRANCH   3  14
ATOM     14  C   UNL     1      -2.797  13.436  22.093  0.00  0.00    +0.000 A 
ATOM     15  C   UNL     1      -2.973  14.794  22.325  0.00  0.00    +0.000 A 
ATOM     16  N   UNL     1      -3.540  15.330  23.430  0.00  0.00    +0.000 NA
ATOM     17  C   UNL     1      -3.951  14.451  24.352  0.00  0.00    +0.000 A 
ATOM     18  N   UNL     1      -3.781  13.125  24.293  0.00  0.00    +0.000 NA
ATOM     19  C   UNL     1      -3.174  12.660  23.175  0.00  0.00    +0.000 A 
ENDBRANCH   3  14
BRANCH   7  20
ATOM     20  C   UNL     1      -2.974   9.756  17.219  0.00  0.00    +0.000 C 
ATOM     21  F   UNL     1      -1.645   9.494  17.179  0.00  0.00    +0.000 F 
ATOM     22  F   UNL     1      -3.537   8.816  18.010  0.00  0.00    +0.000 F 
ATOM     23  F   UNL     1      -3.440   9.531  15.956  0.00  0.00    +0.000 F 
ENDBRANCH   7  20
BRANCH   7  24
ATOM     24  O   UNL     1      -3.342  12.128  16.509  0.00  0.00    +0.000 OA
ATOM     25  H   UNL     1      -2.813  11.727  15.794  0.00  0.00    +0.000 HD
ENDBRANCH   7  24
BRANCH   1  26
ATOM     26  O   UNL     1       1.163  12.641  19.452  0.00  0.00    +0.000 OA
BRANCH  26  27
ATOM     27  C   UNL     1       1.695  13.595  18.528  0.00  0.00    +0.000 C 
BRANCH  27  28
ATOM     28  C   UNL     1       1.846  14.945  19.237  0.00  0.00    +0.000 C 
BRANCH  28  32
ATOM     29  C   UNL     1       1.098  18.193  17.367  0.00  0.00    +0.000 C 
ATOM     30  C   UNL     1       1.851  17.091  18.067  0.00  0.00    +0.000 C 
ATOM     31  O   UNL     1       3.081  17.154  18.167  0.00  0.00    +0.000 OA
ATOM     32  N   UNL     1       1.119  16.031  18.581  0.00  0.00    +0.000 N 
ATOM     33  C   UNL     1      -0.334  15.980  18.635  0.00  0.00    +0.000 C 
ENDBRANCH  28  32
ENDBRANCH  27  28
ENDBRANCH  26  27
ENDBRANCH   1  26
TORSDOF 7
ENDMDL
MODEL 4
REMARK VINA RESULT:      -7.0      2.300      2.889
REMARK  Name = 
REMARK  9 active torsions:
REMARK  status: ('A' for Active; 'I' for Inactive)
REMARK    1  A    between atoms: C_1  and  C_2
REMARK    2  A    between atoms: N_4  and  C_5
REMARK    3  A    between atoms: N_4  and  C_6
REMARK    4  A    between atoms: C_6  and  C_7
REMARK    5  A    between atoms: C_7  and  O_8
REMARK    6  A    between atoms: O_8  and  C_9
REMARK    7  A    between atoms: C_11  and  C_12
REMARK    8  A    between atoms: C_21  and  O_22
REMARK    9  A    between atoms: C_21  and  C_23
REMARK                            x       y       z     vdW  Elec       q    Type
REMARK                         _______ _______ _______ _____ _____    ______ ____
ROOT
ATOM      1  C   UNL     1       0.014  10.763  20.326  0.00  0.00    +0.000 A 
ATOM      2  C   UNL     1      -0.641  11.392  21.399  0.00  0.00    +0.000 A 
ATOM      3  C   UNL     1      -1.921  12.010  21.287  0.00  0.00    +0.000 A 
ATOM      4  C   UNL     1      -2.534  11.944  20.020  0.00  0.00    +0.000 A 
ATOM      5  C   UNL     1      -1.885  11.234  18.965  0.00  0.00    +0.000 A 
ATOM      6  C   UNL     1      -0.629  10.651  19.106  0.00  0.00    +0.000 A 
ATOM      7  C   UNL     1      -2.737  11.211  17.700  0.00  0.00    +0.000 C 
ATOM      8  C   UNL     1      -3.983  11.946  18.164  0.00  0.00    +0.000 A 
ATOM      9  C   UNL     1      -5.143  12.182  17.431  0.00  0.00    +0.000 A 
ATOM     10  C   UNL     1      -6.167  12.914  18.021  0.00  0.00    +0.000 A 
ATOM     11  C   UNL     1      -5.984  13.469  19.292  0.00  0.00    +0.000 A 
ATOM     12  C   UNL     1      -4.794  13.267  20.001  0.00  0.00    +0.000 A 
ATOM     13  C   UNL     1      -3.808  12.439  19.479  0.00  0.00    +0.000 A 
ENDROOT
BRANCH   3  14
ATOM     14  C   UNL     1      -2.485  12.663  22.483  0.00  0.00    +0.000 A 
ATOM     15  C   UNL     1      -2.267  14.001  22.785  0.00  0.00    +0.000 A 
ATOM     16  N   UNL     1      -2.822  14.667  23.824  0.00  0.00    +0.000 NA
ATOM     17  C   UNL     1      -3.638  13.945  24.602  0.00  0.00    +0.000 A 
ATOM     18  N   UNL     1      -3.881  12.635  24.472  0.00  0.00    +0.000 NA
ATOM     19  C   UNL     1      -3.265  12.025  23.431  0.00  0.00    +0.000 A 
ENDBRANCH   3  14
BRANCH   7  20
ATOM     20  C   UNL     1      -2.991   9.788  17.116  0.00  0.00    +0.000 C 
ATOM     21  F   UNL     1      -3.799   9.789  16.028  0.00  0.00    +0.000 F 
ATOM     22  F   UNL     1      -1.868   9.120  16.773  0.00  0.00    +0.000 F 
ATOM     23  F   UNL     1      -3.625   9.026  18.054  0.00  0.00    +0.000 F 
ENDBRANCH   7  20
BRANCH   7  24
ATOM     24  O   UNL     1      -2.078  12.092  16.764  0.00  0.00    +0.000 OA
ATOM     25  H   UNL     1      -2.445  11.906  15.880  0.00  0.00    +0.000 HD
ENDBRANCH   7  24
BRANCH   1  26
ATOM     26  O   UNL     1       1.254  10.258  20.606  0.00  0.00    +0.000 OA
BRANCH  26  27
ATOM     27  C   UNL     1       1.366   8.834  20.705  0.00  0.00    +0.000 C 
BRANCH  27  28
ATOM     28  C   UNL     1       1.944   8.289  19.395  0.00  0.00    +0.000 C 
BRANCH  28  32
ATOM     29  C   UNL     1       3.725   4.996  18.627  0.00  0.00    +0.000 C 
ATOM     30  C   UNL     1       3.243   6.419  18.506  0.00  0.00    +0.000 C 
ATOM     31  O   UNL     1       3.609   7.113  17.552  0.00  0.00    +0.000 OA
ATOM     32  N   UNL     1       2.393   6.901  19.490  0.00  0.00    +0.000 N 
ATOM     33  C   UNL     1       1.804   6.088  20.544  0.00  0.00    +0.000 C 
ENDBRANCH  28  32
ENDBRANCH  27  28
ENDBRANCH  26  27
ENDBRANCH   1  26
TORSDOF 7
ENDMDL
MODEL 5
REMARK VINA RESULT:      -7.0      1.918      3.201
REMARK  Name = 
REMARK  9 active torsions:
REMARK  status: ('A' for Active; 'I' for Inactive)
REMARK    1  A    between atoms: C_1  and  C_2
REMARK    2  A    between atoms: N_4  and  C_5
REMARK    3  A    between atoms: N_4  and  C_6
REMARK    4  A    between atoms: C_6  and  C_7
REMARK    5  A    between atoms: C_7  and  O_8
REMARK    6  A    between atoms: O_8  and  C_9
REMARK    7  A    between atoms: C_11  and  C_12
REMARK    8  A    between atoms: C_21  and  O_22
REMARK    9  A    between atoms: C_21  and  C_23
REMARK                            x       y       z     vdW  Elec       q    Type
REMARK                         _______ _______ _______ _____ _____    ______ ____
ROOT
ATOM      1  C   UNL     1      -0.052  11.954  19.756  0.00  0.00    +0.000 A 
ATOM      2  C   UNL     1      -0.728  12.507  20.856  0.00  0.00    +0.000 A 
ATOM      3  C   UNL     1      -2.143  12.686  20.902  0.00  0.00    +0.000 A 
ATOM      4  C   UNL     1      -2.861  12.251  19.771  0.00  0.00    +0.000 A 
ATOM      5  C   UNL     1      -2.160  11.623  18.697  0.00  0.00    +0.000 A 
ATOM      6  C   UNL     1      -0.777  11.475  18.680  0.00  0.00    +0.000 A 
ATOM      7  C   UNL     1      -3.116  11.157  17.602  0.00  0.00    +0.000 C 
ATOM      8  C   UNL     1      -4.461  11.542  18.196  0.00  0.00    +0.000 A 
ATOM      9  C   UNL     1      -5.720  11.305  17.650  0.00  0.00    +0.000 A 
ATOM     10  C   UNL     1      -6.839  11.772  18.330  0.00  0.00    +0.000 A 
ATOM     11  C   UNL     1      -6.682  12.537  19.490  0.00  0.00    +0.000 A 
ATOM     12  C   UNL     1      -5.408  12.811  20.004  0.00  0.00    +0.000 A 
ATOM     13  C   UNL     1      -4.284  12.253  19.407  0.00  0.00    +0.000 A 
ENDROOT
BRANCH   3  14
ATOM     14  C   UNL     1      -2.726  13.306  22.106  0.00  0.00    +0.000 A 
ATOM     15  C   UNL     1      -3.220  12.565  23.173  0.00  0.00    +0.000 A 
ATOM     16  N   UNL     1      -3.694  13.083  24.329  0.00  0.00    +0.000 NA
ATOM     17  C   UNL     1      -3.671  14.418  24.416  0.00  0.00    +0.000 A 
ATOM     18  N   UNL     1      -3.291  15.255  23.443  0.00  0.00    +0.000 NA
ATOM     19  C   UNL     1      -2.862  14.669  22.300  0.00  0.00    +0.000 A 
ENDBRANCH   3  14
BRANCH   7  20
ATOM     20  C   UNL     1      -2.973   9.655  17.214  0.00  0.00    +0.000 C 
ATOM     21  F   UNL     1      -1.687   9.236  17.143  0.00  0.00    +0.000 F 
ATOM     22  F   UNL     1      -3.620   8.804  18.041  0.00  0.00    +0.000 F 
ATOM     23  F   UNL     1      -3.500   9.462  15.970  0.00  0.00    +0.000 F 
ENDBRANCH   7  20
BRANCH   7  24
ATOM     24  O   UNL     1      -2.902  12.048  16.486  0.00  0.00    +0.000 OA
ATOM     25  H   UNL     1      -2.184  12.660  16.735  0.00  0.00    +0.000 HD
ENDBRANCH   7  24
BRANCH   1  26
ATOM     26  O   UNL     1       1.310  11.894  19.871  0.00  0.00    +0.000 OA
BRANCH  26  27
ATOM     27  C   UNL     1       2.075  12.609  18.895  0.00  0.00    +0.000 C 
BRANCH  27  28
ATOM     28  C   UNL     1       2.641  13.879  19.540  0.00  0.00    +0.000 C 
BRANCH  28  32
ATOM     29  C   UNL     1       2.898  16.855  17.156  0.00  0.00    +0.000 C 
ATOM     30  C   UNL     1       3.256  15.613  17.930  0.00  0.00    +0.000 C 
ATOM     31  O   UNL     1       4.363  15.087  17.771  0.00  0.00    +0.000 OA
ATOM     32  N   UNL     1       2.311  15.100  18.806  0.00  0.00    +0.000 N 
ATOM     33  C   UNL     1       1.061  15.761  19.153  0.00  0.00    +0.000 C 
ENDBRANCH  28  32
ENDBRANCH  27  28
ENDBRANCH  26  27
ENDBRANCH   1  26
TORSDOF 7
ENDMDL
MODEL 6
REMARK VINA RESULT:      -6.9      1.806      3.032
REMARK  Name = 
REMARK  9 active torsions:
REMARK  status: ('A' for Active; 'I' for Inactive)
REMARK    1  A    between atoms: C_1  and  C_2
REMARK    2  A    between atoms: N_4  and  C_5
REMARK    3  A    between atoms: N_4  and  C_6
REMARK    4  A    between atoms: C_6  and  C_7
REMARK    5  A    between atoms: C_7  and  O_8
REMARK    6  A    between atoms: O_8  and  C_9
REMARK    7  A    between atoms: C_11  and  C_12
REMARK    8  A    between atoms: C_21  and  O_22
REMARK    9  A    between atoms: C_21  and  C_23
REMARK                            x       y       z     vdW  Elec       q    Type
REMARK                         _______ _______ _______ _____ _____    ______ ____
ROOT
ATOM      1  C   UNL     1       0.009  11.935  19.818  0.00  0.00    +0.000 A 
ATOM      2  C   UNL     1      -0.691  12.469  20.913  0.00  0.00    +0.000 A 
ATOM      3  C   UNL     1      -2.106  12.649  20.932  0.00  0.00    +0.000 A 
ATOM      4  C   UNL     1      -2.800  12.235  19.778  0.00  0.00    +0.000 A 
ATOM      5  C   UNL     1      -2.077  11.624  18.709  0.00  0.00    +0.000 A 
ATOM      6  C   UNL     1      -0.694  11.474  18.719  0.00  0.00    +0.000 A 
ATOM      7  C   UNL     1      -3.010  11.177  17.587  0.00  0.00    +0.000 C 
ATOM      8  C   UNL     1      -4.367  11.553  18.158  0.00  0.00    +0.000 A 
ATOM      9  C   UNL     1      -5.615  11.328  17.582  0.00  0.00    +0.000 A 
ATOM     10  C   UNL     1      -6.747  11.784  18.246  0.00  0.00    +0.000 A 
ATOM     11  C   UNL     1      -6.614  12.530  19.421  0.00  0.00    +0.000 A 
ATOM     12  C   UNL     1      -5.351  12.793  19.967  0.00  0.00    +0.000 A 
ATOM     13  C   UNL     1      -4.216  12.244  19.385  0.00  0.00    +0.000 A 
ENDROOT
BRANCH   3  14
ATOM     14  C   UNL     1      -2.714  13.250  22.133  0.00  0.00    +0.000 A 
ATOM     15  C   UNL     1      -3.266  12.492  23.158  0.00  0.00    +0.000 A 
ATOM     16  N   UNL     1      -3.766  12.988  24.313  0.00  0.00    +0.000 NA
ATOM     17  C   UNL     1      -3.709  14.319  24.442  0.00  0.00    +0.000 A 
ATOM     18  N   UNL     1      -3.272  15.174  23.509  0.00  0.00    +0.000 NA
ATOM     19  C   UNL     1      -2.818  14.610  22.364  0.00  0.00    +0.000 A 
ENDBRANCH   3  14
BRANCH   7  20
ATOM     20  C   UNL     1      -2.860   9.681  17.176  0.00  0.00    +0.000 C 
ATOM     21  F   UNL     1      -1.573   9.261  17.130  0.00  0.00    +0.000 F 
ATOM     22  F   UNL     1      -3.529   8.818  17.972  0.00  0.00    +0.000 F 
ATOM     23  F   UNL     1      -3.357   9.511  15.916  0.00  0.00    +0.000 F 
ENDBRANCH   7  20
BRANCH   7  24
ATOM     24  O   UNL     1      -2.772  12.087  16.490  0.00  0.00    +0.000 OA
ATOM     25  H   UNL     1      -2.578  12.962  16.875  0.00  0.00    +0.000 HD
ENDBRANCH   7  24
BRANCH   1  26
ATOM     26  O   UNL     1       1.368  11.871  19.960  0.00  0.00    +0.000 OA
BRANCH  26  27
ATOM     27  C   UNL     1       2.055  13.107  20.182  0.00  0.00    +0.000 C 
BRANCH  27  28
ATOM     28  C   UNL     1       2.145  13.870  18.857  0.00  0.00    +0.000 C 
BRANCH  28  32
ATOM     29  C   UNL     1       0.521  17.325  19.041  0.00  0.00    +0.000 C 
ATOM     30  C   UNL     1       0.696  15.839  18.859  0.00  0.00    +0.000 C 
ATOM     31  O   UNL     1      -0.281  15.133  18.588  0.00  0.00    +0.000 OA
ATOM     32  N   UNL     1       1.972  15.315  19.005  0.00  0.00    +0.000 N 
ATOM     33  C   UNL     1       3.180  16.111  19.165  0.00  0.00    +0.000 C 
ENDBRANCH  28  32
ENDBRANCH  27  28
ENDBRANCH  26  27
ENDBRANCH   1  26
TORSDOF 7
ENDMDL
MODEL 7
REMARK VINA RESULT:      -6.9      2.301      2.778
REMARK  Name = 
REMARK  9 active torsions:
REMARK  status: ('A' for Active; 'I' for Inactive)
REMARK    1  A    between atoms: C_1  and  C_2
REMARK    2  A    between atoms: N_4  and  C_5
REMARK    3  A    between atoms: N_4  and  C_6
REMARK    4  A    between atoms: C_6  and  C_7
REMARK    5  A    between atoms: C_7  and  O_8
REMARK    6  A    between atoms: O_8  and  C_9
REMARK    7  A    between atoms: C_11  and  C_12
REMARK    8  A    between atoms: C_21  and  O_22
REMARK    9  A    between atoms: C_21  and  C_23
REMARK                            x       y       z     vdW  Elec       q    Type
REMARK                         _______ _______ _______ _____ _____    ______ ____
ROOT
ATOM      1  C   UNL     1       0.009  10.626  20.223  0.00  0.00    +0.000 A 
ATOM      2  C   UNL     1      -0.561  11.271  21.333  0.00  0.00    +0.000 A 
ATOM      3  C   UNL     1      -1.817  11.946  21.293  0.00  0.00    +0.000 A 
ATOM      4  C   UNL     1      -2.496  11.920  20.059  0.00  0.00    +0.000 A 
ATOM      5  C   UNL     1      -1.934  11.193  18.966  0.00  0.00    +0.000 A 
ATOM      6  C   UNL     1      -0.700  10.554  19.037  0.00  0.00    +0.000 A 
ATOM      7  C   UNL     1      -2.851  11.220  17.746  0.00  0.00    +0.000 C 
ATOM      8  C   UNL     1      -4.037  12.004  18.281  0.00  0.00    +0.000 A 
ATOM      9  C   UNL     1      -5.222  12.298  17.611  0.00  0.00    +0.000 A 
ATOM     10  C   UNL     1      -6.181  13.068  18.260  0.00  0.00    +0.000 A 
ATOM     11  C   UNL     1      -5.909  13.601  19.523  0.00  0.00    +0.000 A 
ATOM     12  C   UNL     1      -4.694  13.340  20.169  0.00  0.00    +0.000 A 
ATOM     13  C   UNL     1      -3.773  12.475  19.589  0.00  0.00    +0.000 A 
ENDROOT
BRANCH   3  14
ATOM     14  C   UNL     1      -2.289  12.610  22.522  0.00  0.00    +0.000 A 
ATOM     15  C   UNL     1      -1.684  13.745  23.046  0.00  0.00    +0.000 A 
ATOM     16  N   UNL     1      -2.122  14.436  24.123  0.00  0.00    +0.000 NA
ATOM     17  C   UNL     1      -3.228  13.957  24.705  0.00  0.00    +0.000 A 
ATOM     18  N   UNL     1      -3.870  12.837  24.353  0.00  0.00    +0.000 NA
ATOM     19  C   UNL     1      -3.357  12.177  23.288  0.00  0.00    +0.000 A 
ENDBRANCH   3  14
BRANCH   7  20
ATOM     20  C   UNL     1      -3.197   9.816  17.165  0.00  0.00    +0.000 C 
ATOM     21  F   UNL     1      -3.725   8.968  18.081  0.00  0.00    +0.000 F 
ATOM     22  F   UNL     1      -4.050   9.844  16.117  0.00  0.00    +0.000 F 
ATOM     23  F   UNL     1      -2.052   9.222  16.718  0.00  0.00    +0.000 F 
ENDBRANCH   7  20
BRANCH   7  24
ATOM     24  O   UNL     1      -2.203  12.082  16.785  0.00  0.00    +0.000 OA
ATOM     25  H   UNL     1      -2.330  11.683  15.904  0.00  0.00    +0.000 HD
ENDBRANCH   7  24
BRANCH   1  26
ATOM     26  O   UNL     1       1.238  10.064  20.434  0.00  0.00    +0.000 OA
BRANCH  26  27
ATOM     27  C   UNL     1       1.669   9.075  19.493  0.00  0.00    +0.000 C 
BRANCH  27  28
ATOM     28  C   UNL     1       1.904   7.753  20.233  0.00  0.00    +0.000 C 
BRANCH  28  32
ATOM     29  C   UNL     1       2.780   4.272  18.923  0.00  0.00    +0.000 C 
ATOM     30  C   UNL     1       2.307   5.376  19.833  0.00  0.00    +0.000 C 
ATOM     31  O   UNL     1       1.869   5.102  20.955  0.00  0.00    +0.000 OA
ATOM     32  N   UNL     1       2.386   6.679  19.366  0.00  0.00    +0.000 N 
ATOM     33  C   UNL     1       3.037   7.074  18.125  0.00  0.00    +0.000 C 
ENDBRANCH  28  32
ENDBRANCH  27  28
ENDBRANCH  26  27
ENDBRANCH   1  26
TORSDOF 7
ENDMDL
MODEL 8
REMARK VINA RESULT:      -6.9      2.435      3.721
REMARK  Name = 
REMARK  9 active torsions:
REMARK  status: ('A' for Active; 'I' for Inactive)
REMARK    1  A    between atoms: C_1  and  C_2
REMARK    2  A    between atoms: N_4  and  C_5
REMARK    3  A    between atoms: N_4  and  C_6
REMARK    4  A    between atoms: C_6  and  C_7
REMARK    5  A    between atoms: C_7  and  O_8
REMARK    6  A    between atoms: O_8  and  C_9
REMARK    7  A    between atoms: C_11  and  C_12
REMARK    8  A    between atoms: C_21  and  O_22
REMARK    9  A    between atoms: C_21  and  C_23
REMARK                            x       y       z     vdW  Elec       q    Type
REMARK                         _______ _______ _______ _____ _____    ______ ____
ROOT
ATOM      1  C   UNL     1      -0.204  13.582  21.643  0.00  0.00    +0.000 A 
ATOM      2  C   UNL     1      -1.447  13.729  22.280  0.00  0.00    +0.000 A 
ATOM      3  C   UNL     1      -2.685  13.330  21.695  0.00  0.00    +0.000 A 
ATOM      4  C   UNL     1      -2.606  12.743  20.416  0.00  0.00    +0.000 A 
ATOM      5  C   UNL     1      -1.326  12.534  19.820  0.00  0.00    +0.000 A 
ATOM      6  C   UNL     1      -0.138  12.946  20.416  0.00  0.00    +0.000 A 
ATOM      7  C   UNL     1      -1.445  11.821  18.476  0.00  0.00    +0.000 C 
ATOM      8  C   UNL     1      -2.944  11.593  18.390  0.00  0.00    +0.000 A 
ATOM      9  C   UNL     1      -3.637  10.924  17.383  0.00  0.00    +0.000 A 
ATOM     10  C   UNL     1      -5.023  10.853  17.463  0.00  0.00    +0.000 A 
ATOM     11  C   UNL     1      -5.698  11.519  18.491  0.00  0.00    +0.000 A 
ATOM     12  C   UNL     1      -4.994  12.230  19.472  0.00  0.00    +0.000 A 
ATOM     13  C   UNL     1      -3.605  12.212  19.478  0.00  0.00    +0.000 A 
ENDROOT
BRANCH   3  14
ATOM     14  C   UNL     1      -3.924  13.567  22.459  0.00  0.00    +0.000 A 
ATOM     15  C   UNL     1      -4.650  14.748  22.370  0.00  0.00    +0.000 A 
ATOM     16  N   UNL     1      -5.830  14.986  22.987  0.00  0.00    +0.000 NA
ATOM     17  C   UNL     1      -6.303  13.983  23.735  0.00  0.00    +0.000 A 
ATOM     18  N   UNL     1      -5.677  12.823  23.968  0.00  0.00    +0.000 NA
ATOM     19  C   UNL     1      -4.484  12.665  23.346  0.00  0.00    +0.000 A 
ENDBRANCH   3  14
BRANCH   7  20
ATOM     20  C   UNL     1      -0.574  10.535  18.346  0.00  0.00    +0.000 C 
ATOM     21  F   UNL     1      -0.887   9.779  17.266  0.00  0.00    +0.000 F 
ATOM     22  F   UNL     1       0.756  10.768  18.292  0.00  0.00    +0.000 F 
ATOM     23  F   UNL     1      -0.785   9.740  19.435  0.00  0.00    +0.000 F 
ENDBRANCH   7  20
BRANCH   7  24
ATOM     24  O   UNL     1      -1.134  12.814  17.474  0.00  0.00    +0.000 OA
ATOM     25  H   UNL     1      -1.979  13.187  17.162  0.00  0.00    +0.000 HD
ENDBRANCH   7  24
BRANCH   1  26
ATOM     26  O   UNL     1       0.875  14.055  22.337  0.00  0.00    +0.000 OA
BRANCH  26  27
ATOM     27  C   UNL     1       1.769  14.925  21.634  0.00  0.00    +0.000 C 
BRANCH  27  28
ATOM     28  C   UNL     1       1.081  16.277  21.420  0.00  0.00    +0.000 C 
BRANCH  28  32
ATOM     29  C   UNL     1      -0.515  17.091  18.045  0.00  0.00    +0.000 C 
ATOM     30  C   UNL     1      -0.360  16.696  19.491  0.00  0.00    +0.000 C 
ATOM     31  O   UNL     1      -1.360  16.440  20.170  0.00  0.00    +0.000 OA
ATOM     32  N   UNL     1       0.924  16.633  20.011  0.00  0.00    +0.000 N 
ATOM     33  C   UNL     1       2.142  16.766  19.224  0.00  0.00    +0.000 C 
ENDBRANCH  28  32
ENDBRANCH  27  28
ENDBRANCH  26  27
ENDBRANCH   1  26
TORSDOF 7
ENDMDL
MODEL 9
REMARK VINA RESULT:      -6.9      1.844      2.898
REMARK  Name = 
REMARK  9 active torsions:
REMARK  status: ('A' for Active; 'I' for Inactive)
REMARK    1  A    between atoms: C_1  and  C_2
REMARK    2  A    between atoms: N_4  and  C_5
REMARK    3  A    between atoms: N_4  and  C_6
REMARK    4  A    between atoms: C_6  and  C_7
REMARK    5  A    between atoms: C_7  and  O_8
REMARK    6  A    between atoms: O_8  and  C_9
REMARK    7  A    between atoms: C_11  and  C_12
REMARK    8  A    between atoms: C_21  and  O_22
REMARK    9  A    between atoms: C_21  and  C_23
REMARK                            x       y       z     vdW  Elec       q    Type
REMARK                         _______ _______ _______ _____ _____    ______ ____
ROOT
ATOM      1  C   UNL     1       0.033  11.961  19.685  0.00  0.00    +0.000 A 
ATOM      2  C   UNL     1      -0.633  12.480  20.807  0.00  0.00    +0.000 A 
ATOM      3  C   UNL     1      -2.049  12.642  20.878  0.00  0.00    +0.000 A 
ATOM      4  C   UNL     1      -2.779  12.226  19.748  0.00  0.00    +0.000 A 
ATOM      5  C   UNL     1      -2.088  11.630  18.649  0.00  0.00    +0.000 A 
ATOM      6  C   UNL     1      -0.703  11.498  18.609  0.00  0.00    +0.000 A 
ATOM      7  C   UNL     1      -3.055  11.179  17.559  0.00  0.00    +0.000 C 
ATOM      8  C   UNL     1      -4.395  11.535  18.181  0.00  0.00    +0.000 A 
ATOM      9  C   UNL     1      -5.660  11.297  17.648  0.00  0.00    +0.000 A 
ATOM     10  C   UNL     1      -6.773  11.736  18.355  0.00  0.00    +0.000 A 
ATOM     11  C   UNL     1      -6.606  12.476  19.530  0.00  0.00    +0.000 A 
ATOM     12  C   UNL     1      -5.328  12.752  20.031  0.00  0.00    +0.000 A 
ATOM     13  C   UNL     1      -4.208  12.220  19.405  0.00  0.00    +0.000 A 
ENDROOT
BRANCH   3  14
ATOM     14  C   UNL     1      -2.621  13.229  22.104  0.00  0.00    +0.000 A 
ATOM     15  C   UNL     1      -2.687  14.599  22.325  0.00  0.00    +0.000 A 
ATOM     16  N   UNL     1      -3.269  15.189  23.394  0.00  0.00    +0.000 NA
ATOM     17  C   UNL     1      -3.812  14.356  24.289  0.00  0.00    +0.000 A 
ATOM     18  N   UNL     1      -3.760  13.019  24.240  0.00  0.00    +0.000 NA
ATOM     19  C   UNL     1      -3.132  12.496  23.161  0.00  0.00    +0.000 A 
ENDBRANCH   3  14
BRANCH   7  20
ATOM     20  C   UNL     1      -2.902   9.687  17.134  0.00  0.00    +0.000 C 
ATOM     21  F   UNL     1      -1.612   9.289  17.019  0.00  0.00    +0.000 F 
ATOM     22  F   UNL     1      -3.514   8.809  17.959  0.00  0.00    +0.000 F 
ATOM     23  F   UNL     1      -3.460   9.514  15.900  0.00  0.00    +0.000 F 
ENDBRANCH   7  20
BRANCH   7  24
ATOM     24  O   UNL     1      -2.868  12.098  16.460  0.00  0.00    +0.000 OA
ATOM     25  H   UNL     1      -2.280  11.664  15.814  0.00  0.00    +0.000 HD
ENDBRANCH   7  24
BRANCH   1  26
ATOM     26  O   UNL     1       1.397  11.913  19.778  0.00  0.00    +0.000 OA
BRANCH  26  27
ATOM     27  C   UNL     1       2.139  12.688  18.829  0.00  0.00    +0.000 C 
BRANCH  27  28
ATOM     28  C   UNL     1       2.659  13.953  19.520  0.00  0.00    +0.000 C 
BRANCH  28  32
ATOM     29  C   UNL     1       1.277  17.226  18.111  0.00  0.00    +0.000 C 
ATOM     30  C   UNL     1       1.408  15.968  18.932  0.00  0.00    +0.000 C 
ATOM     31  O   UNL     1       0.545  15.689  19.771  0.00  0.00    +0.000 OA
ATOM     32  N   UNL     1       2.512  15.160  18.708  0.00  0.00    +0.000 N 
ATOM     33  C   UNL     1       3.471  15.351  17.630  0.00  0.00    +0.000 C 
ENDBRANCH  28  32
ENDBRANCH  27  28
ENDBRANCH  26  27
ENDBRANCH   1  26
TORSDOF 7
ENDMDL
