MODEL 1
REMARK VINA RESULT:      -5.5      0.000      0.000
REMARK  Name = 
REMARK  12 active torsions:
REMARK  status: ('A' for Active; 'I' for Inactive)
REMARK    1  A    between atoms: C_1  and  C_2
REMARK    2  A    between atoms: C_2  and  C_3
REMARK    3  A    between atoms: C_3  and  C_4
REMARK    4  A    between atoms: C_4  and  O_6
REMARK    5  A    between atoms: C_8  and  C_9
REMARK    6  A    between atoms: C_9  and  O_11
REMARK    7  A    between atoms: O_11  and  C_12
REMARK    8  A    between atoms: C_17  and  O_18
REMARK    9  A    between atoms: O_18  and  C_19
REMARK   10  A    between atoms: N_26  and  C_27
REMARK   11  A    between atoms: C_27  and  C_28
REMARK   12  A    between atoms: C_28  and  O_29
REMARK                            x       y       z     vdW  Elec       q    Type
REMARK                         _______ _______ _______ _____ _____    ______ ____
ROOT
ATOM      1  C   UNL     1       0.284  10.678  19.827  0.00  0.00    +0.000 C 
ATOM      2  C   UNL     1       1.295  11.709  20.388  0.00  0.00    +0.000 C 
ATOM      3  C   UNL     1       0.706  13.057  20.767  0.00  0.00    +0.000 C 
ATOM      4  C   UNL     1      -0.643  13.429  20.052  0.00  0.00    +0.000 C 
ATOM      5  N   UNL     1      -1.095  14.641  20.055  0.00  0.00    +0.000 NA
ATOM      6  C   UNL     1      -1.705  14.581  21.317  0.00  0.00    +0.000 A 
ATOM      7  C   UNL     1      -1.427  15.595  22.208  0.00  0.00    +0.000 A 
ATOM      8  C   UNL     1      -1.205  15.255  23.526  0.00  0.00    +0.000 A 
ATOM      9  C   UNL     1      -1.461  13.935  23.955  0.00  0.00    +0.000 A 
ATOM     10  C   UNL     1      -1.857  12.908  23.038  0.00  0.00    +0.000 A 
ATOM     11  C   UNL     1      -1.927  13.206  21.684  0.00  0.00    +0.000 A 
ATOM     12  C   UNL     1      -1.768  12.364  20.369  0.00  0.00    +0.000 C 
ATOM     13  C   UNL     1      -3.183  12.383  19.759  0.00  0.00    +0.000 C 
ATOM     14  C   UNL     1      -3.165  11.576  18.470  0.00  0.00    +0.000 C 
ATOM     15  N   UNL     1      -2.047  10.628  18.590  0.00  0.00    +0.000 NA
ATOM     16  C   UNL     1      -0.999  11.412  19.311  0.00  0.00    +0.000 C 
ENDROOT
BRANCH   1  18
ATOM     17  C   UNL     1       0.221   9.806  22.312  0.00  0.00    +0.000 C 
ATOM     18  C   UNL     1      -0.175   9.601  20.853  0.00  0.00    +0.000 C 
ENDBRANCH   1  18
BRANCH   1  19
ATOM     19  C   UNL     1       1.043   9.995  18.668  0.00  0.00    +0.000 C 
ATOM     20  O   UNL     1       1.104   8.789  18.485  0.00  0.00    +0.000 OA
BRANCH  19  21
ATOM     21  O   UNL     1       1.671  10.842  17.803  0.00  0.00    +0.000 OA
ATOM     22  H   UNL     1       1.142  11.272  17.105  0.00  0.00    +0.000 HD
ENDBRANCH  19  21
ENDBRANCH   1  19
BRANCH   3  23
ATOM     23  C   UNL     1       1.745  14.127  20.759  0.00  0.00    +0.000 C 
ATOM     24  O   UNL     1       2.355  14.503  19.766  0.00  0.00    +0.000 OA
BRANCH  23  25
ATOM     25  O   UNL     1       1.990  14.521  22.041  0.00  0.00    +0.000 OA
ATOM     26  C   UNL     1       2.392  15.877  22.246  0.00  0.00    +0.000 C 
ENDBRANCH  23  25
ENDBRANCH   3  23
BRANCH   8  27
ATOM     27  O   UNL     1      -0.616  16.282  24.212  0.00  0.00    +0.000 OA
ATOM     28  C   UNL     1      -0.629  17.594  23.685  0.00  0.00    +0.000 C 
ENDBRANCH   8  27
BRANCH  15  29
ATOM     29  C   UNL     1      -1.603  10.227  17.214  0.00  0.00    +0.000 C 
BRANCH  29  30
ATOM     30  C   UNL     1      -2.635  10.195  16.073  0.00  0.00    +0.000 C 
BRANCH  30  31
ATOM     31  O   UNL     1      -2.529  11.336  15.233  0.00  0.00    +0.000 OA
ATOM     32  H   UNL     1      -3.196  11.238  14.528  0.00  0.00    +0.000 HD
ENDBRANCH  30  31
ENDBRANCH  29  30
ENDBRANCH  15  29
TORSDOF 9
ENDMDL
MODEL 2
REMARK VINA RESULT:      -5.4      0.771      1.028
REMARK  Name = 
REMARK  12 active torsions:
REMARK  status: ('A' for Active; 'I' for Inactive)
REMARK    1  A    between atoms: C_1  and  C_2
REMARK    2  A    between atoms: C_2  and  C_3
REMARK    3  A    between atoms: C_3  and  C_4
REMARK    4  A    between atoms: C_4  and  O_6
REMARK    5  A    between atoms: C_8  and  C_9
REMARK    6  A    between atoms: C_9  and  O_11
REMARK    7  A    between atoms: O_11  and  C_12
REMARK    8  A    between atoms: C_17  and  O_18
REMARK    9  A    between atoms: O_18  and  C_19
REMARK   10  A    between atoms: N_26  and  C_27
REMARK   11  A    between atoms: C_27  and  C_28
REMARK   12  A    between atoms: C_28  and  O_29
REMARK                            x       y       z     vdW  Elec       q    Type
REMARK                         _______ _______ _______ _____ _____    ______ ____
ROOT
ATOM      1  C   UNL     1       0.066  10.660  19.827  0.00  0.00    +0.000 C 
ATOM      2  C   UNL     1       1.034  11.648  20.525  0.00  0.00    +0.000 C 
ATOM      3  C   UNL     1       0.410  12.953  20.986  0.00  0.00    +0.000 C 
ATOM      4  C   UNL     1      -0.905  13.374  20.237  0.00  0.00    +0.000 C 
ATOM      5  N   UNL     1      -1.371  14.578  20.319  0.00  0.00    +0.000 NA
ATOM      6  C   UNL     1      -2.044  14.405  21.538  0.00  0.00    +0.000 A 
ATOM      7  C   UNL     1      -1.824  15.342  22.526  0.00  0.00    +0.000 A 
ATOM      8  C   UNL     1      -1.666  14.892  23.820  0.00  0.00    +0.000 A 
ATOM      9  C   UNL     1      -1.927  13.538  24.121  0.00  0.00    +0.000 A 
ATOM     10  C   UNL     1      -2.264  12.590  23.101  0.00  0.00    +0.000 A 
ATOM     11  C   UNL     1      -2.268  13.003  21.776  0.00  0.00    +0.000 A 
ATOM     12  C   UNL     1      -2.032  12.277  20.404  0.00  0.00    +0.000 C 
ATOM     13  C   UNL     1      -3.414  12.337  19.724  0.00  0.00    +0.000 C 
ATOM     14  C   UNL     1      -3.321  11.645  18.374  0.00  0.00    +0.000 C 
ATOM     15  N   UNL     1      -2.199  10.698  18.471  0.00  0.00    +0.000 NA
ATOM     16  C   UNL     1      -1.198  11.426  19.310  0.00  0.00    +0.000 C 
ENDROOT
BRANCH   1  18
ATOM     17  C   UNL     1      -0.060   9.547  22.211  0.00  0.00    +0.000 C 
ATOM     18  C   UNL     1      -0.432   9.496  20.732  0.00  0.00    +0.000 C 
ENDBRANCH   1  18
BRANCH   1  19
ATOM     19  C   UNL     1       0.892  10.085  18.655  0.00  0.00    +0.000 C 
ATOM     20  O   UNL     1       1.023   8.896  18.408  0.00  0.00    +0.000 OA
BRANCH  19  21
ATOM     21  O   UNL     1       1.493  11.011  17.856  0.00  0.00    +0.000 OA
ATOM     22  H   UNL     1       1.007  11.344  17.079  0.00  0.00    +0.000 HD
ENDBRANCH  19  21
ENDBRANCH   1  19
BRANCH   3  23
ATOM     23  C   UNL     1       1.434  14.029  21.123  0.00  0.00    +0.000 C 
ATOM     24  O   UNL     1       1.670  14.643  22.155  0.00  0.00    +0.000 OA
BRANCH  23  25
ATOM     25  O   UNL     1       1.965  14.298  19.897  0.00  0.00    +0.000 OA
ATOM     26  C   UNL     1       2.104  15.673  19.530  0.00  0.00    +0.000 C 
ENDBRANCH  23  25
ENDBRANCH   3  23
BRANCH   8  27
ATOM     27  O   UNL     1      -1.125  15.861  24.621  0.00  0.00    +0.000 OA
ATOM     28  C   UNL     1      -1.094  15.692  26.024  0.00  0.00    +0.000 C 
ENDBRANCH   8  27
BRANCH  15  29
ATOM     29  C   UNL     1      -1.680  10.420  17.091  0.00  0.00    +0.000 C 
BRANCH  29  30
ATOM     30  C   UNL     1      -2.678  10.081  15.969  0.00  0.00    +0.000 C 
BRANCH  30  31
ATOM     31  O   UNL     1      -2.862  11.171  15.078  0.00  0.00    +0.000 OA
ATOM     32  H   UNL     1      -3.448  10.863  14.362  0.00  0.00    +0.000 HD
ENDBRANCH  30  31
ENDBRANCH  29  30
ENDBRANCH  15  29
TORSDOF 9
ENDMDL
MODEL 3
REMARK VINA RESULT:      -5.4      1.448      1.673
REMARK  Name = 
REMARK  12 active torsions:
REMARK  status: ('A' for Active; 'I' for Inactive)
REMARK    1  A    between atoms: C_1  and  C_2
REMARK    2  A    between atoms: C_2  and  C_3
REMARK    3  A    between atoms: C_3  and  C_4
REMARK    4  A    between atoms: C_4  and  O_6
REMARK    5  A    between atoms: C_8  and  C_9
REMARK    6  A    between atoms: C_9  and  O_11
REMARK    7  A    between atoms: O_11  and  C_12
REMARK    8  A    between atoms: C_17  and  O_18
REMARK    9  A    between atoms: O_18  and  C_19
REMARK   10  A    between atoms: N_26  and  C_27
REMARK   11  A    between atoms: C_27  and  C_28
REMARK   12  A    between atoms: C_28  and  O_29
REMARK                            x       y       z     vdW  Elec       q    Type
REMARK                         _______ _______ _______ _____ _____    ______ ____
ROOT
ATOM      1  C   UNL     1      -0.382  11.355  20.149  0.00  0.00    +0.000 C 
ATOM      2  C   UNL     1       0.338  12.404  21.033  0.00  0.00    +0.000 C 
ATOM      3  C   UNL     1      -0.547  13.510  21.581  0.00  0.00    +0.000 C 
ATOM      4  C   UNL     1      -1.867  13.780  20.773  0.00  0.00    +0.000 C 
ATOM      5  N   UNL     1      -2.555  14.862  20.949  0.00  0.00    +0.000 NA
ATOM      6  C   UNL     1      -3.259  14.421  22.079  0.00  0.00    +0.000 A 
ATOM      7  C   UNL     1      -3.282  15.251  23.180  0.00  0.00    +0.000 A 
ATOM      8  C   UNL     1      -3.125  14.679  24.424  0.00  0.00    +0.000 A 
ATOM      9  C   UNL     1      -3.147  13.273  24.550  0.00  0.00    +0.000 A 
ATOM     10  C   UNL     1      -3.234  12.416  23.406  0.00  0.00    +0.000 A 
ATOM     11  C   UNL     1      -3.232  12.983  22.139  0.00  0.00    +0.000 A 
ATOM     12  C   UNL     1      -2.778  12.488  20.721  0.00  0.00    +0.000 C 
ATOM     13  C   UNL     1      -4.101  12.385  19.937  0.00  0.00    +0.000 C 
ATOM     14  C   UNL     1      -3.794  11.894  18.531  0.00  0.00    +0.000 C 
ATOM     15  N   UNL     1      -2.523  11.157  18.618  0.00  0.00    +0.000 NA
ATOM     16  C   UNL     1      -1.731  11.941  19.614  0.00  0.00    +0.000 C 
ENDROOT
BRANCH   1  18
ATOM     17  C   UNL     1      -0.387   9.927  22.362  0.00  0.00    +0.000 C 
ATOM     18  C   UNL     1      -0.710  10.017  20.874  0.00  0.00    +0.000 C 
ENDBRANCH   1  18
BRANCH   1  19
ATOM     19  C   UNL     1       0.610  11.086  18.995  0.00  0.00    +0.000 C 
ATOM     20  O   UNL     1       0.983   9.981  18.636  0.00  0.00    +0.000 OA
BRANCH  19  21
ATOM     21  O   UNL     1       1.069  12.197  18.351  0.00  0.00    +0.000 OA
ATOM     22  H   UNL     1       1.172  13.022  18.861  0.00  0.00    +0.000 HD
ENDBRANCH  19  21
ENDBRANCH   1  19
BRANCH   3  23
ATOM     23  C   UNL     1       0.247  14.725  21.923  0.00  0.00    +0.000 C 
ATOM     24  O   UNL     1       0.297  15.239  23.033  0.00  0.00    +0.000 OA
BRANCH  23  25
ATOM     25  O   UNL     1       0.797  15.234  20.784  0.00  0.00    +0.000 OA
ATOM     26  C   UNL     1       1.959  16.055  20.927  0.00  0.00    +0.000 C 
ENDBRANCH  23  25
ENDBRANCH   3  23
BRANCH   8  27
ATOM     27  O   UNL     1      -2.827  15.621  25.371  0.00  0.00    +0.000 OA
ATOM     28  C   UNL     1      -1.562  15.623  26.003  0.00  0.00    +0.000 C 
ENDBRANCH   8  27
BRANCH  15  29
ATOM     29  C   UNL     1      -1.875  11.150  17.264  0.00  0.00    +0.000 C 
BRANCH  29  30
ATOM     30  C   UNL     1      -2.600  10.471  16.089  0.00  0.00    +0.000 C 
BRANCH  30  31
ATOM     31  O   UNL     1      -3.170  11.421  15.200  0.00  0.00    +0.000 OA
ATOM     32  H   UNL     1      -3.647  10.922  14.511  0.00  0.00    +0.000 HD
ENDBRANCH  30  31
ENDBRANCH  29  30
ENDBRANCH  15  29
TORSDOF 9
ENDMDL
MODEL 4
REMARK VINA RESULT:      -5.3      7.275     10.965
REMARK  Name = 
REMARK  12 active torsions:
REMARK  status: ('A' for Active; 'I' for Inactive)
REMARK    1  A    between atoms: C_1  and  C_2
REMARK    2  A    between atoms: C_2  and  C_3
REMARK    3  A    between atoms: C_3  and  C_4
REMARK    4  A    between atoms: C_4  and  O_6
REMARK    5  A    between atoms: C_8  and  C_9
REMARK    6  A    between atoms: C_9  and  O_11
REMARK    7  A    between atoms: O_11  and  C_12
REMARK    8  A    between atoms: C_17  and  O_18
REMARK    9  A    between atoms: O_18  and  C_19
REMARK   10  A    between atoms: N_26  and  C_27
REMARK   11  A    between atoms: C_27  and  C_28
REMARK   12  A    between atoms: C_28  and  O_29
REMARK                            x       y       z     vdW  Elec       q    Type
REMARK                         _______ _______ _______ _____ _____    ______ ____
ROOT
ATOM      1  C   UNL     1       2.805   6.033  19.132  0.00  0.00    +0.000 C 
ATOM      2  C   UNL     1       4.285   6.487  19.183  0.00  0.00    +0.000 C 
ATOM      3  C   UNL     1       5.251   5.652  18.360  0.00  0.00    +0.000 C 
ATOM      4  C   UNL     1       4.779   4.187  18.048  0.00  0.00    +0.000 C 
ATOM      5  N   UNL     1       5.607   3.290  17.620  0.00  0.00    +0.000 NA
ATOM      6  C   UNL     1       5.559   3.662  16.268  0.00  0.00    +0.000 A 
ATOM      7  C   UNL     1       6.759   3.848  15.615  0.00  0.00    +0.000 A 
ATOM      8  C   UNL     1       6.871   4.926  14.762  0.00  0.00    +0.000 A 
ATOM      9  C   UNL     1       5.720   5.674  14.434  0.00  0.00    +0.000 A 
ATOM     10  C   UNL     1       4.449   5.404  15.037  0.00  0.00    +0.000 A 
ATOM     11  C   UNL     1       4.363   4.424  16.015  0.00  0.00    +0.000 A 
ATOM     12  C   UNL     1       3.417   4.185  17.245  0.00  0.00    +0.000 C 
ATOM     13  C   UNL     1       2.636   2.915  16.855  0.00  0.00    +0.000 C 
ATOM     14  C   UNL     1       1.662   2.583  17.974  0.00  0.00    +0.000 C 
ATOM     15  N   UNL     1       1.397   3.846  18.680  0.00  0.00    +0.000 NA
ATOM     16  C   UNL     1       2.720   4.542  18.660  0.00  0.00    +0.000 C 
ENDROOT
BRANCH   1  18
ATOM     17  C   UNL     1       2.422   8.244  17.754  0.00  0.00    +0.000 C 
ATOM     18  C   UNL     1       1.904   6.874  18.183  0.00  0.00    +0.000 C 
ENDBRANCH   1  18
BRANCH   1  19
ATOM     19  C   UNL     1       2.310   6.189  20.587  0.00  0.00    +0.000 C 
ATOM     20  O   UNL     1       1.599   7.096  20.991  0.00  0.00    +0.000 OA
BRANCH  19  21
ATOM     21  O   UNL     1       2.715   5.213  21.449  0.00  0.00    +0.000 OA
ATOM     22  H   UNL     1       3.613   4.844  21.347  0.00  0.00    +0.000 HD
ENDBRANCH  19  21
ENDBRANCH   1  19
BRANCH   3  23
ATOM     23  C   UNL     1       6.648   5.775  18.868  0.00  0.00    +0.000 C 
ATOM     24  O   UNL     1       6.995   5.556  20.021  0.00  0.00    +0.000 OA
BRANCH  23  25
ATOM     25  O   UNL     1       7.438   6.289  17.883  0.00  0.00    +0.000 OA
ATOM     26  C   UNL     1       7.238   7.661  17.530  0.00  0.00    +0.000 C 
ENDBRANCH  23  25
ENDBRANCH   3  23
BRANCH   8  27
ATOM     27  O   UNL     1       8.180   5.186  14.459  0.00  0.00    +0.000 OA
ATOM     28  C   UNL     1       8.541   5.610  13.159  0.00  0.00    +0.000 C 
ENDBRANCH   8  27
BRANCH  15  29
ATOM     29  C   UNL     1       0.947   3.533  20.078  0.00  0.00    +0.000 C 
BRANCH  29  30
ATOM     30  C   UNL     1       1.593   2.353  20.826  0.00  0.00    +0.000 C 
BRANCH  30  31
ATOM     31  O   UNL     1       1.618   2.569  22.230  0.00  0.00    +0.000 OA
ATOM     32  H   UNL     1       2.308   1.987  22.599  0.00  0.00    +0.000 HD
ENDBRANCH  30  31
ENDBRANCH  29  30
ENDBRANCH  15  29
TORSDOF 9
ENDMDL
MODEL 5
REMARK VINA RESULT:      -5.2      7.316     10.820
REMARK  Name = 
REMARK  12 active torsions:
REMARK  status: ('A' for Active; 'I' for Inactive)
REMARK    1  A    between atoms: C_1  and  C_2
REMARK    2  A    between atoms: C_2  and  C_3
REMARK    3  A    between atoms: C_3  and  C_4
REMARK    4  A    between atoms: C_4  and  O_6
REMARK    5  A    between atoms: C_8  and  C_9
REMARK    6  A    between atoms: C_9  and  O_11
REMARK    7  A    between atoms: O_11  and  C_12
REMARK    8  A    between atoms: C_17  and  O_18
REMARK    9  A    between atoms: O_18  and  C_19
REMARK   10  A    between atoms: N_26  and  C_27
REMARK   11  A    between atoms: C_27  and  C_28
REMARK   12  A    between atoms: C_28  and  O_29
REMARK                            x       y       z     vdW  Elec       q    Type
REMARK                         _______ _______ _______ _____ _____    ______ ____
ROOT
ATOM      1  C   UNL     1       6.433   5.975  17.701  0.00  0.00    +0.000 C 
ATOM      2  C   UNL     1       5.312   6.506  18.630  0.00  0.00    +0.000 C 
ATOM      3  C   UNL     1       4.030   5.692  18.633  0.00  0.00    +0.000 C 
ATOM      4  C   UNL     1       3.785   4.813  17.354  0.00  0.00    +0.000 C 
ATOM      5  N   UNL     1       2.623   4.309  17.096  0.00  0.00    +0.000 NA
ATOM      6  C   UNL     1       2.750   3.184  17.924  0.00  0.00    +0.000 A 
ATOM      7  C   UNL     1       1.719   2.918  18.801  0.00  0.00    +0.000 A 
ATOM      8  C   UNL     1       2.045   2.520  20.080  0.00  0.00    +0.000 A 
ATOM      9  C   UNL     1       3.386   2.209  20.391  0.00  0.00    +0.000 A 
ATOM     10  C   UNL     1       4.440   2.385  19.437  0.00  0.00    +0.000 A 
ATOM     11  C   UNL     1       4.142   2.936  18.198  0.00  0.00    +0.000 A 
ATOM     12  C   UNL     1       4.956   3.770  17.147  0.00  0.00    +0.000 C 
ATOM     13  C   UNL     1       5.070   2.815  15.943  0.00  0.00    +0.000 C 
ATOM     14  C   UNL     1       5.862   3.510  14.847  0.00  0.00    +0.000 C 
ATOM     15  N   UNL     1       6.700   4.518  15.517  0.00  0.00    +0.000 NA
ATOM     16  C   UNL     1       5.822   5.028  16.614  0.00  0.00    +0.000 C 
ENDROOT
BRANCH   1  18
ATOM     17  C   UNL     1       7.891   5.597  19.862  0.00  0.00    +0.000 C 
ATOM     18  C   UNL     1       7.555   5.183  18.432  0.00  0.00    +0.000 C 
ENDBRANCH   1  18
BRANCH   1  19
ATOM     19  C   UNL     1       7.032   7.248  17.063  0.00  0.00    +0.000 C 
ATOM     20  O   UNL     1       8.222   7.443  16.874  0.00  0.00    +0.000 OA
BRANCH  19  21
ATOM     21  O   UNL     1       6.125   8.195  16.690  0.00  0.00    +0.000 OA
ATOM     22  H   UNL     1       6.328   9.132  16.870  0.00  0.00    +0.000 HD
ENDBRANCH  19  21
ENDBRANCH   1  19
BRANCH   3  23
ATOM     23  C   UNL     1       2.864   6.513  19.072  0.00  0.00    +0.000 C 
ATOM     24  O   UNL     1       2.148   6.255  20.030  0.00  0.00    +0.000 OA
BRANCH  23  25
ATOM     25  O   UNL     1       2.655   7.510  18.166  0.00  0.00    +0.000 OA
ATOM     26  C   UNL     1       1.896   8.642  18.600  0.00  0.00    +0.000 C 
ENDBRANCH  23  25
ENDBRANCH   3  23
BRANCH   8  27
ATOM     27  O   UNL     1       0.970   2.623  20.921  0.00  0.00    +0.000 OA
ATOM     28  C   UNL     1       1.149   2.544  22.322  0.00  0.00    +0.000 C 
ENDBRANCH   8  27
BRANCH  15  29
ATOM     29  C   UNL     1       7.047   5.592  14.528  0.00  0.00    +0.000 C 
BRANCH  29  30
ATOM     30  C   UNL     1       7.835   5.217  13.260  0.00  0.00    +0.000 C 
BRANCH  30  31
ATOM     31  O   UNL     1       8.990   6.028  13.096  0.00  0.00    +0.000 OA
ATOM     32  H   UNL     1       8.850   6.571  12.299  0.00  0.00    +0.000 HD
ENDBRANCH  30  31
ENDBRANCH  29  30
ENDBRANCH  15  29
TORSDOF 9
ENDMDL
MODEL 6
REMARK VINA RESULT:      -5.2      1.585      1.802
REMARK  Name = 
REMARK  12 active torsions:
REMARK  status: ('A' for Active; 'I' for Inactive)
REMARK    1  A    between atoms: C_1  and  C_2
REMARK    2  A    between atoms: C_2  and  C_3
REMARK    3  A    between atoms: C_3  and  C_4
REMARK    4  A    between atoms: C_4  and  O_6
REMARK    5  A    between atoms: C_8  and  C_9
REMARK    6  A    between atoms: C_9  and  O_11
REMARK    7  A    between atoms: O_11  and  C_12
REMARK    8  A    between atoms: C_17  and  O_18
REMARK    9  A    between atoms: O_18  and  C_19
REMARK   10  A    between atoms: N_26  and  C_27
REMARK   11  A    between atoms: C_27  and  C_28
REMARK   12  A    between atoms: C_28  and  O_29
REMARK                            x       y       z     vdW  Elec       q    Type
REMARK                         _______ _______ _______ _____ _____    ______ ____
ROOT
ATOM      1  C   UNL     1      -0.544  11.493  20.055  0.00  0.00    +0.000 C 
ATOM      2  C   UNL     1       0.131  12.595  20.910  0.00  0.00    +0.000 C 
ATOM      3  C   UNL     1      -0.804  13.662  21.451  0.00  0.00    +0.000 C 
ATOM      4  C   UNL     1      -2.147  13.848  20.659  0.00  0.00    +0.000 C 
ATOM      5  N   UNL     1      -2.889  14.895  20.825  0.00  0.00    +0.000 NA
ATOM      6  C   UNL     1      -3.554  14.438  21.973  0.00  0.00    +0.000 A 
ATOM      7  C   UNL     1      -3.605  15.286  23.059  0.00  0.00    +0.000 A 
ATOM      8  C   UNL     1      -3.402  14.746  24.311  0.00  0.00    +0.000 A 
ATOM      9  C   UNL     1      -3.347  13.343  24.462  0.00  0.00    +0.000 A 
ATOM     10  C   UNL     1      -3.405  12.462  23.334  0.00  0.00    +0.000 A 
ATOM     11  C   UNL     1      -3.449  13.005  22.057  0.00  0.00    +0.000 A 
ATOM     12  C   UNL     1      -2.988  12.508  20.641  0.00  0.00    +0.000 C 
ATOM     13  C   UNL     1      -4.315  12.322  19.878  0.00  0.00    +0.000 C 
ATOM     14  C   UNL     1      -4.001  11.822  18.477  0.00  0.00    +0.000 C 
ATOM     15  N   UNL     1      -2.692  11.155  18.559  0.00  0.00    +0.000 NA
ATOM     16  C   UNL     1      -1.930  11.998  19.530  0.00  0.00    +0.000 C 
ENDROOT
BRANCH   1  18
ATOM     17  C   UNL     1      -0.417  10.099  22.286  0.00  0.00    +0.000 C 
ATOM     18  C   UNL     1      -0.791  10.154  20.808  0.00  0.00    +0.000 C 
ENDBRANCH   1  18
BRANCH   1  19
ATOM     19  C   UNL     1       0.445  11.257  18.892  0.00  0.00    +0.000 C 
ATOM     20  O   UNL     1       0.884  10.168  18.557  0.00  0.00    +0.000 OA
BRANCH  19  21
ATOM     21  O   UNL     1       0.820  12.376  18.210  0.00  0.00    +0.000 OA
ATOM     22  H   UNL     1       1.202  12.272  17.318  0.00  0.00    +0.000 HD
ENDBRANCH  19  21
ENDBRANCH   1  19
BRANCH   3  23
ATOM     23  C   UNL     1      -0.070  14.924  21.761  0.00  0.00    +0.000 C 
ATOM     24  O   UNL     1       0.508  15.617  20.935  0.00  0.00    +0.000 OA
BRANCH  23  25
ATOM     25  O   UNL     1      -0.042  15.103  23.113  0.00  0.00    +0.000 OA
ATOM     26  C   UNL     1      -0.045  16.448  23.596  0.00  0.00    +0.000 C 
ENDBRANCH  23  25
ENDBRANCH   3  23
BRANCH   8  27
ATOM     27  O   UNL     1      -3.141  15.719  25.236  0.00  0.00    +0.000 OA
ATOM     28  C   UNL     1      -3.599  17.041  25.030  0.00  0.00    +0.000 C 
ENDBRANCH   8  27
BRANCH  15  29
ATOM     29  C   UNL     1      -2.062  11.158  17.196  0.00  0.00    +0.000 C 
BRANCH  29  30
ATOM     30  C   UNL     1      -2.374  10.006  16.225  0.00  0.00    +0.000 C 
BRANCH  30  31
ATOM     31  O   UNL     1      -2.668  10.481  14.918  0.00  0.00    +0.000 OA
ATOM     32  H   UNL     1      -2.527  11.446  14.924  0.00  0.00    +0.000 HD
ENDBRANCH  30  31
ENDBRANCH  29  30
ENDBRANCH  15  29
TORSDOF 9
ENDMDL
MODEL 7
REMARK VINA RESULT:      -5.2      2.625      4.665
REMARK  Name = 
REMARK  12 active torsions:
REMARK  status: ('A' for Active; 'I' for Inactive)
REMARK    1  A    between atoms: C_1  and  C_2
REMARK    2  A    between atoms: C_2  and  C_3
REMARK    3  A    between atoms: C_3  and  C_4
REMARK    4  A    between atoms: C_4  and  O_6
REMARK    5  A    between atoms: C_8  and  C_9
REMARK    6  A    between atoms: C_9  and  O_11
REMARK    7  A    between atoms: O_11  and  C_12
REMARK    8  A    between atoms: C_17  and  O_18
REMARK    9  A    between atoms: O_18  and  C_19
REMARK   10  A    between atoms: N_26  and  C_27
REMARK   11  A    between atoms: C_27  and  C_28
REMARK   12  A    between atoms: C_28  and  O_29
REMARK                            x       y       z     vdW  Elec       q    Type
REMARK                         _______ _______ _______ _____ _____    ______ ____
ROOT
ATOM      1  C   UNL     1       0.020  12.869  19.344  0.00  0.00    +0.000 C 
ATOM      2  C   UNL     1      -0.418  11.798  20.373  0.00  0.00    +0.000 C 
ATOM      3  C   UNL     1      -1.332  12.295  21.480  0.00  0.00    +0.000 C 
ATOM      4  C   UNL     1      -1.259  13.837  21.774  0.00  0.00    +0.000 C 
ATOM      5  N   UNL     1      -1.751  14.339  22.860  0.00  0.00    +0.000 NA
ATOM      6  C   UNL     1      -3.078  14.422  22.410  0.00  0.00    +0.000 A 
ATOM      7  C   UNL     1      -4.061  13.901  23.225  0.00  0.00    +0.000 A 
ATOM      8  C   UNL     1      -5.073  13.175  22.634  0.00  0.00    +0.000 A 
ATOM      9  C   UNL     1      -5.183  13.155  21.227  0.00  0.00    +0.000 A 
ATOM     10  C   UNL     1      -4.214  13.794  20.386  0.00  0.00    +0.000 A 
ATOM     11  C   UNL     1      -3.106  14.390  20.971  0.00  0.00    +0.000 A 
ATOM     12  C   UNL     1      -1.640  14.680  20.491  0.00  0.00    +0.000 C 
ATOM     13  C   UNL     1      -1.586  16.218  20.412  0.00  0.00    +0.000 C 
ATOM     14  C   UNL     1      -0.201  16.631  19.938  0.00  0.00    +0.000 C 
ATOM     15  N   UNL     1       0.338  15.485  19.188  0.00  0.00    +0.000 NA
ATOM     16  C   UNL     1      -0.163  14.301  19.951  0.00  0.00    +0.000 C 
ENDROOT
BRANCH   1  18
ATOM     17  C   UNL     1      -1.860  11.779  17.855  0.00  0.00    +0.000 C 
ATOM     18  C   UNL     1      -0.763  12.830  17.999  0.00  0.00    +0.000 C 
ENDBRANCH   1  18
BRANCH   1  19
ATOM     19  C   UNL     1       1.510  12.557  19.082  0.00  0.00    +0.000 C 
ATOM     20  O   UNL     1       2.361  12.428  19.949  0.00  0.00    +0.000 OA
BRANCH  19  21
ATOM     21  O   UNL     1       1.855  12.416  17.771  0.00  0.00    +0.000 OA
ATOM     22  H   UNL     1       2.361  11.626  17.505  0.00  0.00    +0.000 HD
ENDBRANCH  19  21
ENDBRANCH   1  19
BRANCH   3  23
ATOM     23  C   UNL     1      -1.261  11.415  22.682  0.00  0.00    +0.000 C 
ATOM     24  O   UNL     1      -2.168  11.257  23.489  0.00  0.00    +0.000 OA
BRANCH  23  25
ATOM     25  O   UNL     1       0.007  10.926  22.803  0.00  0.00    +0.000 OA
ATOM     26  C   UNL     1       0.147   9.550  23.164  0.00  0.00    +0.000 C 
ENDBRANCH  23  25
ENDBRANCH   3  23
BRANCH   8  27
ATOM     27  O   UNL     1      -5.767  12.445  23.560  0.00  0.00    +0.000 OA
ATOM     28  C   UNL     1      -5.234  12.240  24.854  0.00  0.00    +0.000 C 
ENDBRANCH   8  27
BRANCH  15  29
ATOM     29  C   UNL     1       1.836  15.566  19.194  0.00  0.00    +0.000 C 
BRANCH  29  30
ATOM     30  C   UNL     1       2.567  16.025  17.920  0.00  0.00    +0.000 C 
BRANCH  30  31
ATOM     31  O   UNL     1       3.395  15.001  17.387  0.00  0.00    +0.000 OA
ATOM     32  H   UNL     1       4.275  15.101  17.793  0.00  0.00    +0.000 HD
ENDBRANCH  30  31
ENDBRANCH  29  30
ENDBRANCH  15  29
TORSDOF 9
ENDMDL
MODEL 8
REMARK VINA RESULT:      -5.1      2.737      5.213
REMARK  Name = 
REMARK  12 active torsions:
REMARK  status: ('A' for Active; 'I' for Inactive)
REMARK    1  A    between atoms: C_1  and  C_2
REMARK    2  A    between atoms: C_2  and  C_3
REMARK    3  A    between atoms: C_3  and  C_4
REMARK    4  A    between atoms: C_4  and  O_6
REMARK    5  A    between atoms: C_8  and  C_9
REMARK    6  A    between atoms: C_9  and  O_11
REMARK    7  A    between atoms: O_11  and  C_12
REMARK    8  A    between atoms: C_17  and  O_18
REMARK    9  A    between atoms: O_18  and  C_19
REMARK   10  A    between atoms: N_26  and  C_27
REMARK   11  A    between atoms: C_27  and  C_28
REMARK   12  A    between atoms: C_28  and  O_29
REMARK                            x       y       z     vdW  Elec       q    Type
REMARK                         _______ _______ _______ _____ _____    ______ ____
ROOT
ATOM      1  C   UNL     1      -0.008  13.091  19.925  0.00  0.00    +0.000 C 
ATOM      2  C   UNL     1      -0.527  11.956  20.843  0.00  0.00    +0.000 C 
ATOM      3  C   UNL     1      -1.631  12.355  21.808  0.00  0.00    +0.000 C 
ATOM      4  C   UNL     1      -1.705  13.885  22.153  0.00  0.00    +0.000 C 
ATOM      5  N   UNL     1      -2.390  14.316  23.163  0.00  0.00    +0.000 NA
ATOM      6  C   UNL     1      -3.634  14.335  22.515  0.00  0.00    +0.000 A 
ATOM      7  C   UNL     1      -4.694  13.725  23.152  0.00  0.00    +0.000 A 
ATOM      8  C   UNL     1      -5.554  12.963  22.390  0.00  0.00    +0.000 A 
ATOM      9  C   UNL     1      -5.445  12.990  20.983  0.00  0.00    +0.000 A 
ATOM     10  C   UNL     1      -4.403  13.718  20.322  0.00  0.00    +0.000 A 
ATOM     11  C   UNL     1      -3.439  14.357  21.088  0.00  0.00    +0.000 A 
ATOM     12  C   UNL     1      -1.939  14.753  20.851  0.00  0.00    +0.000 C 
ATOM     13  C   UNL     1      -1.974  16.294  20.825  0.00  0.00    +0.000 C 
ATOM     14  C   UNL     1      -0.563  16.807  20.584  0.00  0.00    +0.000 C 
ATOM     15  N   UNL     1       0.158  15.725  19.895  0.00  0.00    +0.000 NA
ATOM     16  C   UNL     1      -0.375  14.484  20.537  0.00  0.00    +0.000 C 
ENDROOT
BRANCH   1  18
ATOM     17  C   UNL     1      -1.628  12.002  18.156  0.00  0.00    +0.000 C 
ATOM     18  C   UNL     1      -0.571  13.055  18.475  0.00  0.00    +0.000 C 
ENDBRANCH   1  18
BRANCH   1  19
ATOM     19  C   UNL     1       1.522  12.879  19.890  0.00  0.00    +0.000 C 
ATOM     20  O   UNL     1       2.201  12.846  18.875  0.00  0.00    +0.000 OA
BRANCH  19  21
ATOM     21  O   UNL     1       2.118  12.732  21.107  0.00  0.00    +0.000 OA
ATOM     22  H   UNL     1       2.990  13.145  21.252  0.00  0.00    +0.000 HD
ENDBRANCH  19  21
ENDBRANCH   1  19
BRANCH   3  23
ATOM     23  C   UNL     1      -1.687  11.436  22.981  0.00  0.00    +0.000 C 
ATOM     24  O   UNL     1      -2.692  11.204  23.641  0.00  0.00    +0.000 OA
BRANCH  23  25
ATOM     25  O   UNL     1      -0.427  11.005  23.271  0.00  0.00    +0.000 OA
ATOM     26  C   UNL     1      -0.209   9.592  23.309  0.00  0.00    +0.000 C 
ENDBRANCH  23  25
ENDBRANCH   3  23
BRANCH   8  27
ATOM     27  O   UNL     1      -6.333  12.158  23.176  0.00  0.00    +0.000 OA
ATOM     28  C   UNL     1      -7.622  12.580  23.575  0.00  0.00    +0.000 C 
ENDBRANCH   8  27
BRANCH  15  29
ATOM     29  C   UNL     1       1.630  15.896  20.136  0.00  0.00    +0.000 C 
BRANCH  29  30
ATOM     30  C   UNL     1       2.111  16.390  21.512  0.00  0.00    +0.000 C 
BRANCH  30  31
ATOM     31  O   UNL     1       2.252  15.322  22.438  0.00  0.00    +0.000 OA
ATOM     32  H   UNL     1       2.473  14.523  21.925  0.00  0.00    +0.000 HD
ENDBRANCH  30  31
ENDBRANCH  29  30
ENDBRANCH  15  29
TORSDOF 9
ENDMDL
MODEL 9
REMARK VINA RESULT:      -5.1      2.427      4.238
REMARK  Name = 
REMARK  12 active torsions:
REMARK  status: ('A' for Active; 'I' for Inactive)
REMARK    1  A    between atoms: C_1  and  C_2
REMARK    2  A    between atoms: C_2  and  C_3
REMARK    3  A    between atoms: C_3  and  C_4
REMARK    4  A    between atoms: C_4  and  O_6
REMARK    5  A    between atoms: C_8  and  C_9
REMARK    6  A    between atoms: C_9  and  O_11
REMARK    7  A    between atoms: O_11  and  C_12
REMARK    8  A    between atoms: C_17  and  O_18
REMARK    9  A    between atoms: O_18  and  C_19
REMARK   10  A    between atoms: N_26  and  C_27
REMARK   11  A    between atoms: C_27  and  C_28
REMARK   12  A    between atoms: C_28  and  O_29
REMARK                            x       y       z     vdW  Elec       q    Type
REMARK                         _______ _______ _______ _____ _____    ______ ____
ROOT
ATOM      1  C   UNL     1      -0.448  11.589  19.147  0.00  0.00    +0.000 C 
ATOM      2  C   UNL     1      -1.026  10.958  20.438  0.00  0.00    +0.000 C 
ATOM      3  C   UNL     1      -1.449  11.946  21.511  0.00  0.00    +0.000 C 
ATOM      4  C   UNL     1      -0.760  13.356  21.440  0.00  0.00    +0.000 C 
ATOM      5  N   UNL     1      -0.802  14.177  22.439  0.00  0.00    +0.000 NA
ATOM      6  C   UNL     1      -2.068  14.710  22.154  0.00  0.00    +0.000 A 
ATOM      7  C   UNL     1      -2.985  14.759  23.183  0.00  0.00    +0.000 A 
ATOM      8  C   UNL     1      -4.290  14.414  22.904  0.00  0.00    +0.000 A 
ATOM      9  C   UNL     1      -4.685  14.218  21.563  0.00  0.00    +0.000 A 
ATOM     10  C   UNL     1      -3.743  14.277  20.484  0.00  0.00    +0.000 A 
ATOM     11  C   UNL     1      -2.399  14.466  20.774  0.00  0.00    +0.000 A 
ATOM     12  C   UNL     1      -1.060  14.068  20.060  0.00  0.00    +0.000 C 
ATOM     13  C   UNL     1      -0.465  15.424  19.631  0.00  0.00    +0.000 C 
ATOM     14  C   UNL     1       0.846  15.170  18.905  0.00  0.00    +0.000 C 
ATOM     15  N   UNL     1       0.764  13.802  18.369  0.00  0.00    +0.000 NA
ATOM     16  C   UNL     1       0.033  13.051  19.435  0.00  0.00    +0.000 C 
ENDROOT
BRANCH   1  18
ATOM     17  C   UNL     1      -2.862  11.133  18.197  0.00  0.00    +0.000 C 
ATOM     18  C   UNL     1      -1.448  11.654  17.956  0.00  0.00    +0.000 C 
ENDBRANCH   1  18
BRANCH   1  19
ATOM     19  C   UNL     1       0.739  10.672  18.775  0.00  0.00    +0.000 C 
ATOM     20  O   UNL     1       1.678  10.411  19.510  0.00  0.00    +0.000 OA
BRANCH  19  21
ATOM     21  O   UNL     1       0.686  10.129  17.526  0.00  0.00    +0.000 OA
ATOM     22  H   UNL     1      -0.188   9.923  17.143  0.00  0.00    +0.000 HD
ENDBRANCH  19  21
ENDBRANCH   1  19
BRANCH   3  23
ATOM     23  C   UNL     1      -1.460  11.312  22.862  0.00  0.00    +0.000 C 
ATOM     24  O   UNL     1      -2.416  11.310  23.626  0.00  0.00    +0.000 OA
BRANCH  23  25
ATOM     25  O   UNL     1      -0.207  10.857  23.151  0.00  0.00    +0.000 OA
ATOM     26  C   UNL     1      -0.072   9.470  23.472  0.00  0.00    +0.000 C 
ENDBRANCH  23  25
ENDBRANCH   3  23
BRANCH   8  27
ATOM     27  O   UNL     1      -4.998  14.177  24.050  0.00  0.00    +0.000 OA
ATOM     28  C   UNL     1      -5.472  12.877  24.342  0.00  0.00    +0.000 C 
ENDBRANCH   8  27
BRANCH  15  29
ATOM     29  C   UNL     1       2.156  13.278  18.166  0.00  0.00    +0.000 C 
BRANCH  29  30
ATOM     30  C   UNL     1       3.352  14.137  18.612  0.00  0.00    +0.000 C 
BRANCH  30  31
ATOM     31  O   UNL     1       4.144  14.554  17.509  0.00  0.00    +0.000 OA
ATOM     32  H   UNL     1       5.059  14.269  17.686  0.00  0.00    +0.000 HD
ENDBRANCH  30  31
ENDBRANCH  29  30
ENDBRANCH  15  29
TORSDOF 9
ENDMDL
