MODEL 1
REMARK VINA RESULT:      -8.1      0.000      0.000
REMARK  Name = 
REMARK  7 active torsions:
REMARK  status: ('A' for Active; 'I' for Inactive)
REMARK    1  A    between atoms: C_1  and  C_2
REMARK    2  A    between atoms: C_2  and  C_3
REMARK    3  A    between atoms: C_3  and  C_5
REMARK    4  A    between atoms: C_11  and  C_12
REMARK    5  A    between atoms: C_14  and  O_15
REMARK    6  A    between atoms: C_17  and  C_18
REMARK    7  A    between atoms: C_21  and  C_22
REMARK                            x       y       z     vdW  Elec       q    Type
REMARK                         _______ _______ _______ _____ _____    ______ ____
ROOT
ATOM      1  C   UNL     1       2.468   6.930  19.429  0.00  0.00    +0.000 A 
ATOM      2  C   UNL     1       2.902   7.362  18.173  0.00  0.00    +0.000 A 
ATOM      3  C   UNL     1       2.481   8.586  17.651  0.00  0.00    +0.000 A 
ATOM      4  C   UNL     1       1.617   9.360  18.430  0.00  0.00    +0.000 A 
ATOM      5  N   UNL     1       1.058  10.582  18.164  0.00  0.00    +0.000 N 
ATOM      6  C   UNL     1       0.263  11.018  19.200  0.00  0.00    +0.000 A 
ATOM      7  C   UNL     1      -0.474  12.217  19.318  0.00  0.00    +0.000 A 
ATOM      8  C   UNL     1      -0.443  13.206  18.187  0.00  0.00    +0.000 C 
ATOM      9  C   UNL     1      -1.226  12.422  20.538  0.00  0.00    +0.000 A 
ATOM     10  C   UNL     1      -2.029  13.556  20.873  0.00  0.00    +0.000 A 
ATOM     11  C   UNL     1      -2.716  13.660  22.076  0.00  0.00    +0.000 A 
ATOM     12  C   UNL     1      -2.617  12.629  22.972  0.00  0.00    +0.000 A 
ATOM     13  C   UNL     1      -3.332  12.683  24.286  0.00  0.00    +0.000 C 
ATOM     14  N   UNL     1      -1.871  11.538  22.709  0.00  0.00    +0.000 NA
ATOM     15  C   UNL     1      -1.191  11.416  21.548  0.00  0.00    +0.000 A 
ATOM     16  C   UNL     1      -0.434  10.239  21.375  0.00  0.00    +0.000 A 
ATOM     17  C   UNL     1      -0.403   9.195  22.471  0.00  0.00    +0.000 C 
ATOM     18  C   UNL     1       0.304  10.035  20.180  0.00  0.00    +0.000 A 
ATOM     19  C   UNL     1       1.160   8.978  19.688  0.00  0.00    +0.000 A 
ATOM     20  C   UNL     1       1.597   7.732  20.188  0.00  0.00    +0.000 A 
ATOM     21  H   UNL     1       1.222  11.089  17.311  0.00  0.00    +0.000 HD
ENDROOT
BRANCH   1  22
ATOM     22  C   UNL     1       2.910   5.625  20.008  0.00  0.00    +0.000 C 
ATOM     23  O   UNL     1       4.017   5.178  19.714  0.00  0.00    +0.000 OA
BRANCH  22  25
ATOM     24  C   UNL     1       1.024   3.965  20.205  0.00  0.00    +0.000 C 
ATOM     25  C   UNL     1       1.967   4.895  20.950  0.00  0.00    +0.000 C 
ENDBRANCH  22  25
ENDBRANCH   1  22
BRANCH  10  26
ATOM     26  O   UNL     1      -2.225  14.673  20.101  0.00  0.00    +0.000 OA
ATOM     27  H   UNL     1      -2.070  15.476  20.604  0.00  0.00    +0.000 HD
ENDBRANCH  10  26
TORSDOF 3
ENDMDL
MODEL 2
REMARK VINA RESULT:      -7.7      2.542      8.464
REMARK  Name = 
REMARK  7 active torsions:
REMARK  status: ('A' for Active; 'I' for Inactive)
REMARK    1  A    between atoms: C_1  and  C_2
REMARK    2  A    between atoms: C_2  and  C_3
REMARK    3  A    between atoms: C_3  and  C_5
REMARK    4  A    between atoms: C_11  and  C_12
REMARK    5  A    between atoms: C_14  and  O_15
REMARK    6  A    between atoms: C_17  and  C_18
REMARK    7  A    between atoms: C_21  and  C_22
REMARK                            x       y       z     vdW  Elec       q    Type
REMARK                         _______ _______ _______ _____ _____    ______ ____
ROOT
ATOM      1  C   UNL     1       0.524  10.758  20.264  0.00  0.00    +0.000 A 
ATOM      2  C   UNL     1      -0.028  10.373  21.488  0.00  0.00    +0.000 A 
ATOM      3  C   UNL     1       0.139   9.075  21.974  0.00  0.00    +0.000 A 
ATOM      4  C   UNL     1       0.878   8.182  21.193  0.00  0.00    +0.000 A 
ATOM      5  N   UNL     1       1.189   6.869  21.428  0.00  0.00    +0.000 N 
ATOM      6  C   UNL     1       1.952   6.335  20.413  0.00  0.00    +0.000 A 
ATOM      7  C   UNL     1       2.479   5.031  20.283  0.00  0.00    +0.000 A 
ATOM      8  C   UNL     1       2.205   4.022  21.362  0.00  0.00    +0.000 C 
ATOM      9  C   UNL     1       3.262   4.742  19.099  0.00  0.00    +0.000 A 
ATOM     10  C   UNL     1       3.894   3.503  18.767  0.00  0.00    +0.000 A 
ATOM     11  C   UNL     1       4.628   3.325  17.601  0.00  0.00    +0.000 A 
ATOM     12  C   UNL     1       4.745   4.382  16.739  0.00  0.00    +0.000 A 
ATOM     13  C   UNL     1       5.524   4.252  15.467  0.00  0.00    +0.000 C 
ATOM     14  N   UNL     1       4.173   5.573  17.004  0.00  0.00    +0.000 NA
ATOM     15  C   UNL     1       3.458   5.772  18.132  0.00  0.00    +0.000 A 
ATOM     16  C   UNL     1       2.908   7.057  18.319  0.00  0.00    +0.000 A 
ATOM     17  C   UNL     1       3.145   8.136  17.283  0.00  0.00    +0.000 C 
ATOM     18  C   UNL     1       2.140   7.343  19.478  0.00  0.00    +0.000 A 
ATOM     19  C   UNL     1       1.452   8.516  19.971  0.00  0.00    +0.000 A 
ATOM     20  C   UNL     1       1.262   9.834  19.501  0.00  0.00    +0.000 A 
ATOM     21  H   UNL     1       0.893   6.370  22.249  0.00  0.00    +0.000 HD
ENDROOT
BRANCH   1  22
ATOM     22  C   UNL     1       0.361  12.144  19.726  0.00  0.00    +0.000 C 
ATOM     23  O   UNL     1       1.356  12.850  19.568  0.00  0.00    +0.000 OA
BRANCH  22  25
ATOM     24  C   UNL     1      -1.717  11.743  18.360  0.00  0.00    +0.000 C 
ATOM     25  C   UNL     1      -1.038  12.629  19.390  0.00  0.00    +0.000 C 
ENDBRANCH  22  25
ENDBRANCH   1  22
BRANCH  10  26
ATOM     26  O   UNL     1       3.886   2.357  19.520  0.00  0.00    +0.000 OA
ATOM     27  H   UNL     1       3.247   2.414  20.234  0.00  0.00    +0.000 HD
ENDBRANCH  10  26
TORSDOF 3
ENDMDL
MODEL 3
REMARK VINA RESULT:      -7.7      2.082      4.050
REMARK  Name = 
REMARK  7 active torsions:
REMARK  status: ('A' for Active; 'I' for Inactive)
REMARK    1  A    between atoms: C_1  and  C_2
REMARK    2  A    between atoms: C_2  and  C_3
REMARK    3  A    between atoms: C_3  and  C_5
REMARK    4  A    between atoms: C_11  and  C_12
REMARK    5  A    between atoms: C_14  and  O_15
REMARK    6  A    between atoms: C_17  and  C_18
REMARK    7  A    between atoms: C_21  and  C_22
REMARK                            x       y       z     vdW  Elec       q    Type
REMARK                         _______ _______ _______ _____ _____    ______ ____
ROOT
ATOM      1  C   UNL     1       3.368   5.496  18.298  0.00  0.00    +0.000 A 
ATOM      2  C   UNL     1       3.167   4.674  19.409  0.00  0.00    +0.000 A 
ATOM      3  C   UNL     1       2.493   5.145  20.537  0.00  0.00    +0.000 A 
ATOM      4  C   UNL     1       2.028   6.463  20.510  0.00  0.00    +0.000 A 
ATOM      5  N   UNL     1       1.347   7.168  21.467  0.00  0.00    +0.000 N 
ATOM      6  C   UNL     1       1.056   8.448  21.049  0.00  0.00    +0.000 A 
ATOM      7  C   UNL     1       0.367   9.475  21.729  0.00  0.00    +0.000 A 
ATOM      8  C   UNL     1      -0.147   9.214  23.118  0.00  0.00    +0.000 C 
ATOM      9  C   UNL     1       0.197  10.737  21.039  0.00  0.00    +0.000 A 
ATOM     10  C   UNL     1      -0.471  11.903  21.529  0.00  0.00    +0.000 A 
ATOM     11  C   UNL     1      -0.583  13.071  20.786  0.00  0.00    +0.000 A 
ATOM     12  C   UNL     1      -0.027  13.101  19.535  0.00  0.00    +0.000 A 
ATOM     13  C   UNL     1      -0.116  14.330  18.685  0.00  0.00    +0.000 C 
ATOM     14  N   UNL     1       0.610  12.030  19.022  0.00  0.00    +0.000 NA
ATOM     15  C   UNL     1       0.728  10.881  19.724  0.00  0.00    +0.000 A 
ATOM     16  C   UNL     1       1.406   9.818  19.093  0.00  0.00    +0.000 A 
ATOM     17  C   UNL     1       1.946   9.995  17.690  0.00  0.00    +0.000 C 
ATOM     18  C   UNL     1       1.575   8.580  19.768  0.00  0.00    +0.000 A 
ATOM     19  C   UNL     1       2.197   7.320  19.428  0.00  0.00    +0.000 A 
ATOM     20  C   UNL     1       2.889   6.819  18.303  0.00  0.00    +0.000 A 
ATOM     21  H   UNL     1       1.093   6.783  22.360  0.00  0.00    +0.000 HD
ENDROOT
BRANCH   1  22
ATOM     22  C   UNL     1       4.084   5.011  17.078  0.00  0.00    +0.000 C 
ATOM     23  O   UNL     1       3.941   3.842  16.721  0.00  0.00    +0.000 OA
BRANCH  22  25
ATOM     24  C   UNL     1       5.651   5.333  15.132  0.00  0.00    +0.000 C 
ATOM     25  C   UNL     1       4.964   5.988  16.318  0.00  0.00    +0.000 C 
ENDBRANCH  22  25
ENDBRANCH   1  22
BRANCH  10  26
ATOM     26  O   UNL     1      -1.088  12.037  22.747  0.00  0.00    +0.000 OA
ATOM     27  H   UNL     1      -0.627  12.670  23.303  0.00  0.00    +0.000 HD
ENDBRANCH  10  26
TORSDOF 3
ENDMDL
MODEL 4
REMARK VINA RESULT:      -7.6      2.560      8.533
REMARK  Name = 
REMARK  7 active torsions:
REMARK  status: ('A' for Active; 'I' for Inactive)
REMARK    1  A    between atoms: C_1  and  C_2
REMARK    2  A    between atoms: C_2  and  C_3
REMARK    3  A    between atoms: C_3  and  C_5
REMARK    4  A    between atoms: C_11  and  C_12
REMARK    5  A    between atoms: C_14  and  O_15
REMARK    6  A    between atoms: C_17  and  C_18
REMARK    7  A    between atoms: C_21  and  C_22
REMARK                            x       y       z     vdW  Elec       q    Type
REMARK                         _______ _______ _______ _____ _____    ______ ____
ROOT
ATOM      1  C   UNL     1       0.602  10.766  20.269  0.00  0.00    +0.000 A 
ATOM      2  C   UNL     1       0.033  10.384  21.487  0.00  0.00    +0.000 A 
ATOM      3  C   UNL     1       0.172   9.080  21.966  0.00  0.00    +0.000 A 
ATOM      4  C   UNL     1       0.901   8.178  21.186  0.00  0.00    +0.000 A 
ATOM      5  N   UNL     1       1.186   6.858  21.416  0.00  0.00    +0.000 N 
ATOM      6  C   UNL     1       1.947   6.316  20.404  0.00  0.00    +0.000 A 
ATOM      7  C   UNL     1       2.452   5.004  20.270  0.00  0.00    +0.000 A 
ATOM      8  C   UNL     1       2.150   3.993  21.341  0.00  0.00    +0.000 C 
ATOM      9  C   UNL     1       3.239   4.707  19.092  0.00  0.00    +0.000 A 
ATOM     10  C   UNL     1       3.851   3.459  18.757  0.00  0.00    +0.000 A 
ATOM     11  C   UNL     1       4.591   3.274  17.597  0.00  0.00    +0.000 A 
ATOM     12  C   UNL     1       4.735   4.334  16.741  0.00  0.00    +0.000 A 
ATOM     13  C   UNL     1       5.522   4.197  15.475  0.00  0.00    +0.000 C 
ATOM     14  N   UNL     1       4.183   5.533  17.009  0.00  0.00    +0.000 NA
ATOM     15  C   UNL     1       3.462   5.739  18.133  0.00  0.00    +0.000 A 
ATOM     16  C   UNL     1       2.934   7.033  18.322  0.00  0.00    +0.000 A 
ATOM     17  C   UNL     1       3.199   8.113  17.295  0.00  0.00    +0.000 C 
ATOM     18  C   UNL     1       2.162   7.326  19.477  0.00  0.00    +0.000 A 
ATOM     19  C   UNL     1       1.491   8.509  19.971  0.00  0.00    +0.000 A 
ATOM     20  C   UNL     1       1.329   9.832  19.507  0.00  0.00    +0.000 A 
ATOM     21  H   UNL     1       0.874   6.360  22.232  0.00  0.00    +0.000 HD
ENDROOT
BRANCH   1  22
ATOM     22  C   UNL     1       0.469  12.157  19.739  0.00  0.00    +0.000 C 
ATOM     23  O   UNL     1      -0.642  12.573  19.412  0.00  0.00    +0.000 OA
BRANCH  22  25
ATOM     24  C   UNL     1       2.180  13.161  18.187  0.00  0.00    +0.000 C 
ATOM     25  C   UNL     1       1.719  13.012  19.627  0.00  0.00    +0.000 C 
ENDBRANCH  22  25
ENDBRANCH   1  22
BRANCH  10  26
ATOM     26  O   UNL     1       3.816   2.309  19.503  0.00  0.00    +0.000 OA
ATOM     27  H   UNL     1       3.837   1.529  18.943  0.00  0.00    +0.000 HD
ENDBRANCH  10  26
TORSDOF 3
ENDMDL
MODEL 5
REMARK VINA RESULT:      -7.4      2.532      8.564
REMARK  Name = 
REMARK  7 active torsions:
REMARK  status: ('A' for Active; 'I' for Inactive)
REMARK    1  A    between atoms: C_1  and  C_2
REMARK    2  A    between atoms: C_2  and  C_3
REMARK    3  A    between atoms: C_3  and  C_5
REMARK    4  A    between atoms: C_11  and  C_12
REMARK    5  A    between atoms: C_14  and  O_15
REMARK    6  A    between atoms: C_17  and  C_18
REMARK    7  A    between atoms: C_21  and  C_22
REMARK                            x       y       z     vdW  Elec       q    Type
REMARK                         _______ _______ _______ _____ _____    ______ ____
ROOT
ATOM      1  C   UNL     1       0.314  10.528  20.522  0.00  0.00    +0.000 A 
ATOM      2  C   UNL     1      -0.179   9.975  21.706  0.00  0.00    +0.000 A 
ATOM      3  C   UNL     1       0.116   8.657  22.059  0.00  0.00    +0.000 A 
ATOM      4  C   UNL     1       0.922   7.918  21.188  0.00  0.00    +0.000 A 
ATOM      5  N   UNL     1       1.358   6.624  21.287  0.00  0.00    +0.000 N 
ATOM      6  C   UNL     1       2.150   6.266  20.219  0.00  0.00    +0.000 A 
ATOM      7  C   UNL     1       2.794   5.038  19.955  0.00  0.00    +0.000 A 
ATOM      8  C   UNL     1       2.633   3.905  20.931  0.00  0.00    +0.000 C 
ATOM      9  C   UNL     1       3.580   4.942  18.743  0.00  0.00    +0.000 A 
ATOM     10  C   UNL     1       4.319   3.807  18.284  0.00  0.00    +0.000 A 
ATOM     11  C   UNL     1       5.047   3.815  17.101  0.00  0.00    +0.000 A 
ATOM     12  C   UNL     1       5.050   4.958  16.347  0.00  0.00    +0.000 A 
ATOM     13  C   UNL     1       5.816   5.028  15.063  0.00  0.00    +0.000 C 
ATOM     14  N   UNL     1       4.374   6.057  16.734  0.00  0.00    +0.000 NA
ATOM     15  C   UNL     1       3.663   6.076  17.882  0.00  0.00    +0.000 A 
ATOM     16  C   UNL     1       2.998   7.279  18.200  0.00  0.00    +0.000 A 
ATOM     17  C   UNL     1       3.117   8.472  17.275  0.00  0.00    +0.000 C 
ATOM     18  C   UNL     1       2.227   7.375  19.388  0.00  0.00    +0.000 A 
ATOM     19  C   UNL     1       1.442   8.424  20.000  0.00  0.00    +0.000 A 
ATOM     20  C   UNL     1       1.121   9.758  19.666  0.00  0.00    +0.000 A 
ATOM     21  H   UNL     1       1.123   6.020  22.057  0.00  0.00    +0.000 HD
ENDROOT
BRANCH   1  22
ATOM     22  C   UNL     1       0.013  11.939  20.127  0.00  0.00    +0.000 C 
ATOM     23  O   UNL     1      -0.855  12.156  19.282  0.00  0.00    +0.000 OA
BRANCH  22  25
ATOM     24  C   UNL     1       0.003  13.722  21.906  0.00  0.00    +0.000 C 
ATOM     25  C   UNL     1       0.794  13.059  20.792  0.00  0.00    +0.000 C 
ENDBRANCH  22  25
ENDBRANCH   1  22
BRANCH  10  26
ATOM     26  O   UNL     1       4.431   2.597  18.919  0.00  0.00    +0.000 OA
ATOM     27  H   UNL     1       4.635   2.710  19.850  0.00  0.00    +0.000 HD
ENDBRANCH  10  26
TORSDOF 3
ENDMDL
MODEL 6
REMARK VINA RESULT:      -7.0      2.002      3.733
REMARK  Name = 
REMARK  7 active torsions:
REMARK  status: ('A' for Active; 'I' for Inactive)
REMARK    1  A    between atoms: C_1  and  C_2
REMARK    2  A    between atoms: C_2  and  C_3
REMARK    3  A    between atoms: C_3  and  C_5
REMARK    4  A    between atoms: C_11  and  C_12
REMARK    5  A    between atoms: C_14  and  O_15
REMARK    6  A    between atoms: C_17  and  C_18
REMARK    7  A    between atoms: C_21  and  C_22
REMARK                            x       y       z     vdW  Elec       q    Type
REMARK                         _______ _______ _______ _____ _____    ______ ____
ROOT
ATOM      1  C   UNL     1       3.344   5.609  18.527  0.00  0.00    +0.000 A 
ATOM      2  C   UNL     1       3.137   4.820  19.662  0.00  0.00    +0.000 A 
ATOM      3  C   UNL     1       2.443   5.320  20.766  0.00  0.00    +0.000 A 
ATOM      4  C   UNL     1       1.963   6.630  20.690  0.00  0.00    +0.000 A 
ATOM      5  N   UNL     1       1.263   7.358  21.615  0.00  0.00    +0.000 N 
ATOM      6  C   UNL     1       0.963   8.620  21.153  0.00  0.00    +0.000 A 
ATOM      7  C   UNL     1       0.253   9.661  21.791  0.00  0.00    +0.000 A 
ATOM      8  C   UNL     1      -0.276   9.438  23.180  0.00  0.00    +0.000 C 
ATOM      9  C   UNL     1       0.078  10.898  21.059  0.00  0.00    +0.000 A 
ATOM     10  C   UNL     1      -0.608  12.071  21.502  0.00  0.00    +0.000 A 
ATOM     11  C   UNL     1      -0.724  13.213  20.721  0.00  0.00    +0.000 A 
ATOM     12  C   UNL     1      -0.153  13.210  19.476  0.00  0.00    +0.000 A 
ATOM     13  C   UNL     1      -0.244  14.410  18.587  0.00  0.00    +0.000 C 
ATOM     14  N   UNL     1       0.503  12.130  19.007  0.00  0.00    +0.000 NA
ATOM     15  C   UNL     1       0.625  11.006  19.746  0.00  0.00    +0.000 A 
ATOM     16  C   UNL     1       1.323   9.931  19.159  0.00  0.00    +0.000 A 
ATOM     17  C   UNL     1       1.880  10.069  17.758  0.00  0.00    +0.000 C 
ATOM     18  C   UNL     1       1.496   8.717  19.875  0.00  0.00    +0.000 A 
ATOM     19  C   UNL     1       2.138   7.454  19.583  0.00  0.00    +0.000 A 
ATOM     20  C   UNL     1       2.849   6.925  18.484  0.00  0.00    +0.000 A 
ATOM     21  H   UNL     1       1.001   6.998  22.517  0.00  0.00    +0.000 HD
ENDROOT
BRANCH   1  22
ATOM     22  C   UNL     1       4.081   5.093  17.333  0.00  0.00    +0.000 C 
ATOM     23  O   UNL     1       4.906   5.815  16.777  0.00  0.00    +0.000 OA
BRANCH  22  25
ATOM     24  C   UNL     1       2.341   3.284  17.120  0.00  0.00    +0.000 C 
ATOM     25  C   UNL     1       3.781   3.684  16.851  0.00  0.00    +0.000 C 
ENDBRANCH  22  25
ENDBRANCH   1  22
BRANCH  10  26
ATOM     26  O   UNL     1      -1.243  12.236  22.707  0.00  0.00    +0.000 OA
ATOM     27  H   UNL     1      -2.118  11.842  22.697  0.00  0.00    +0.000 HD
ENDBRANCH  10  26
TORSDOF 3
ENDMDL
MODEL 7
REMARK VINA RESULT:      -7.0      1.639      2.246
REMARK  Name = 
REMARK  7 active torsions:
REMARK  status: ('A' for Active; 'I' for Inactive)
REMARK    1  A    between atoms: C_1  and  C_2
REMARK    2  A    between atoms: C_2  and  C_3
REMARK    3  A    between atoms: C_3  and  C_5
REMARK    4  A    between atoms: C_11  and  C_12
REMARK    5  A    between atoms: C_14  and  O_15
REMARK    6  A    between atoms: C_17  and  C_18
REMARK    7  A    between atoms: C_21  and  C_22
REMARK                            x       y       z     vdW  Elec       q    Type
REMARK                         _______ _______ _______ _____ _____    ______ ____
ROOT
ATOM      1  C   UNL     1       2.296   5.084  19.847  0.00  0.00    +0.000 A 
ATOM      2  C   UNL     1       2.989   5.156  18.636  0.00  0.00    +0.000 A 
ATOM      3  C   UNL     1       3.123   6.368  17.957  0.00  0.00    +0.000 A 
ATOM      4  C   UNL     1       2.544   7.501  18.535  0.00  0.00    +0.000 A 
ATOM      5  N   UNL     1       2.524   8.796  18.088  0.00  0.00    +0.000 N 
ATOM      6  C   UNL     1       1.854   9.627  18.958  0.00  0.00    +0.000 A 
ATOM      7  C   UNL     1       1.623  11.017  18.866  0.00  0.00    +0.000 A 
ATOM      8  C   UNL     1       2.144  11.767  17.672  0.00  0.00    +0.000 C 
ATOM      9  C   UNL     1       0.884  11.644  19.942  0.00  0.00    +0.000 A 
ATOM     10  C   UNL     1       0.545  13.028  20.061  0.00  0.00    +0.000 A 
ATOM     11  C   UNL     1      -0.170  13.536  21.139  0.00  0.00    +0.000 A 
ATOM     12  C   UNL     1      -0.564  12.669  22.123  0.00  0.00    +0.000 A 
ATOM     13  C   UNL     1      -1.336  13.156  23.310  0.00  0.00    +0.000 C 
ATOM     14  N   UNL     1      -0.268  11.356  22.064  0.00  0.00    +0.000 NA
ATOM     15  C   UNL     1       0.429  10.839  21.028  0.00  0.00    +0.000 A 
ATOM     16  C   UNL     1       0.693   9.455  21.066  0.00  0.00    +0.000 A 
ATOM     17  C   UNL     1       0.210   8.628  22.239  0.00  0.00    +0.000 C 
ATOM     18  C   UNL     1       1.416   8.837  20.012  0.00  0.00    +0.000 A 
ATOM     19  C   UNL     1       1.850   7.485  19.740  0.00  0.00    +0.000 A 
ATOM     20  C   UNL     1       1.724   6.244  20.402  0.00  0.00    +0.000 A 
ATOM     21  H   UNL     1       2.956   9.090  17.228  0.00  0.00    +0.000 HD
ENDROOT
BRANCH   1  22
ATOM     22  C   UNL     1       2.144   3.797  20.593  0.00  0.00    +0.000 C 
ATOM     23  O   UNL     1       2.161   3.807  21.823  0.00  0.00    +0.000 OA
BRANCH  22  25
ATOM     24  C   UNL     1       0.674   2.513  19.000  0.00  0.00    +0.000 C 
ATOM     25  C   UNL     1       1.968   2.516  19.796  0.00  0.00    +0.000 C 
ENDBRANCH  22  25
ENDBRANCH   1  22
BRANCH  10  26
ATOM     26  O   UNL     1       0.870  14.025  19.177  0.00  0.00    +0.000 OA
ATOM     27  H   UNL     1       1.088  14.840  19.636  0.00  0.00    +0.000 HD
ENDBRANCH  10  26
TORSDOF 3
ENDMDL
