MODEL 1
REMARK VINA RESULT:      -7.1      0.000      0.000
REMARK  Name = 
REMARK  4 active torsions:
REMARK  status: ('A' for Active; 'I' for Inactive)
REMARK    1  A    between atoms: C_1  and  C_2
REMARK    2  A    between atoms: C_5  and  C_6
REMARK    3  A    between atoms: C_12  and  C_13
REMARK    4  A    between atoms: C_13  and  C_14
REMARK                            x       y       z     vdW  Elec       q    Type
REMARK                         _______ _______ _______ _____ _____    ______ ____
ROOT
ATOM      1  C   UNL     1       5.235   4.413  17.381  0.00  0.00    +0.000 C 
ATOM      2  O   UNL     1       5.460   3.671  16.431  0.00  0.00    +0.000 OA
ATOM      3  N   UNL     1       4.209   4.179  18.298  0.00  0.00    +0.000 N 
ATOM      4  C   UNL     1       3.580   2.865  18.303  0.00  0.00    +0.000 C 
ATOM      5  C   UNL     1       2.065   2.993  18.265  0.00  0.00    +0.000 C 
ATOM      6  C   UNL     1       1.559   3.876  19.408  0.00  0.00    +0.000 C 
ATOM      7  C   UNL     1       2.233   5.256  19.392  0.00  0.00    +0.000 C 
ATOM      8  C   UNL     1       3.754   5.107  19.334  0.00  0.00    +0.000 C 
ENDROOT
BRANCH   1  13
ATOM      9  C   UNL     1       8.568   8.959  18.124  0.00  0.00    +0.000 C 
ATOM     10  C   UNL     1       7.728   7.744  17.911  0.00  0.00    +0.000 A 
ATOM     11  N   UNL     1       7.969   6.646  18.654  0.00  0.00    +0.000 NA
ATOM     12  C   UNL     1       7.149   5.588  18.446  0.00  0.00    +0.000 A 
ATOM     13  C   UNL     1       6.125   5.586  17.522  0.00  0.00    +0.000 A 
ATOM     14  C   UNL     1       5.952   6.778  16.854  0.00  0.00    +0.000 A 
ATOM     15  N   UNL     1       6.748   7.853  17.001  0.00  0.00    +0.000 NA
ENDBRANCH   1  13
BRANCH   7  16
ATOM     16  C   UNL     1       1.816   6.091  20.620  0.00  0.00    +0.000 C 
BRANCH  16  17
ATOM     17  C   UNL     1       1.527   7.534  20.302  0.00  0.00    +0.000 A 
ATOM     18  N   UNL     1       1.824   8.107  19.150  0.00  0.00    +0.000 NA
ATOM     19  C   UNL     1       1.468   9.444  19.189  0.00  0.00    +0.000 A 
ATOM     20  C   UNL     1       0.883   9.870  20.361  0.00  0.00    +0.000 A 
ATOM     21  S   UNL     1       0.771   8.558  21.460  0.00  0.00    +0.000 S 
ENDBRANCH  16  17
ENDBRANCH   7  16
TORSDOF 3
ENDMDL
MODEL 2
REMARK VINA RESULT:      -6.9      1.203      1.277
REMARK  Name = 
REMARK  4 active torsions:
REMARK  status: ('A' for Active; 'I' for Inactive)
REMARK    1  A    between atoms: C_1  and  C_2
REMARK    2  A    between atoms: C_5  and  C_6
REMARK    3  A    between atoms: C_12  and  C_13
REMARK    4  A    between atoms: C_13  and  C_14
REMARK                            x       y       z     vdW  Elec       q    Type
REMARK                         _______ _______ _______ _____ _____    ______ ____
ROOT
ATOM      1  C   UNL     1       5.926   4.945  17.250  0.00  0.00    +0.000 C 
ATOM      2  O   UNL     1       6.318   4.236  16.330  0.00  0.00    +0.000 OA
ATOM      3  N   UNL     1       4.757   4.679  17.966  0.00  0.00    +0.000 N 
ATOM      4  C   UNL     1       4.144   3.365  17.815  0.00  0.00    +0.000 C 
ATOM      5  C   UNL     1       2.658   3.495  17.517  0.00  0.00    +0.000 C 
ATOM      6  C   UNL     1       1.954   4.338  18.583  0.00  0.00    +0.000 C 
ATOM      7  C   UNL     1       2.613   5.718  18.733  0.00  0.00    +0.000 C 
ATOM      8  C   UNL     1       4.122   5.570  18.937  0.00  0.00    +0.000 C 
ENDROOT
BRANCH   1  13
ATOM      9  C   UNL     1       9.057   9.454  18.726  0.00  0.00    +0.000 C 
ATOM     10  C   UNL     1       8.273   8.249  18.324  0.00  0.00    +0.000 A 
ATOM     11  N   UNL     1       8.429   7.107  19.022  0.00  0.00    +0.000 NA
ATOM     12  C   UNL     1       7.661   6.059  18.637  0.00  0.00    +0.000 A 
ATOM     13  C   UNL     1       6.770   6.111  17.585  0.00  0.00    +0.000 A 
ATOM     14  C   UNL     1       6.670   7.343  16.978  0.00  0.00    +0.000 A 
ATOM     15  N   UNL     1       7.422   8.412  17.300  0.00  0.00    +0.000 NA
ENDBRANCH   1  13
BRANCH   7  16
ATOM     16  C   UNL     1       1.982   6.509  19.897  0.00  0.00    +0.000 C 
BRANCH  16  17
ATOM     17  C   UNL     1       1.677   7.945  19.558  0.00  0.00    +0.000 A 
ATOM     18  N   UNL     1       1.179   8.813  20.418  0.00  0.00    +0.000 NA
ATOM     19  C   UNL     1       0.977  10.029  19.788  0.00  0.00    +0.000 A 
ATOM     20  C   UNL     1       1.345  10.080  18.462  0.00  0.00    +0.000 A 
ATOM     21  S   UNL     1       1.966   8.557  17.976  0.00  0.00    +0.000 S 
ENDBRANCH  16  17
ENDBRANCH   7  16
TORSDOF 3
ENDMDL
MODEL 3
REMARK VINA RESULT:      -6.9      0.837      1.384
REMARK  Name = 
REMARK  4 active torsions:
REMARK  status: ('A' for Active; 'I' for Inactive)
REMARK    1  A    between atoms: C_1  and  C_2
REMARK    2  A    between atoms: C_5  and  C_6
REMARK    3  A    between atoms: C_12  and  C_13
REMARK    4  A    between atoms: C_13  and  C_14
REMARK                            x       y       z     vdW  Elec       q    Type
REMARK                         _______ _______ _______ _____ _____    ______ ____
ROOT
ATOM      1  C   UNL     1       5.205   4.375  17.402  0.00  0.00    +0.000 C 
ATOM      2  O   UNL     1       5.463   3.688  16.420  0.00  0.00    +0.000 OA
ATOM      3  N   UNL     1       4.180   4.063  18.297  0.00  0.00    +0.000 N 
ATOM      4  C   UNL     1       3.595   2.729  18.231  0.00  0.00    +0.000 C 
ATOM      5  C   UNL     1       2.076   2.810  18.185  0.00  0.00    +0.000 C 
ATOM      6  C   UNL     1       1.531   3.619  19.364  0.00  0.00    +0.000 C 
ATOM      7  C   UNL     1       2.159   5.020  19.422  0.00  0.00    +0.000 C 
ATOM      8  C   UNL     1       3.685   4.923  19.372  0.00  0.00    +0.000 C 
ENDROOT
BRANCH   1  13
ATOM      9  C   UNL     1       8.551   8.933  17.992  0.00  0.00    +0.000 C 
ATOM     10  C   UNL     1       7.639   7.759  17.858  0.00  0.00    +0.000 A 
ATOM     11  N   UNL     1       6.595   7.838  17.009  0.00  0.00    +0.000 NA
ATOM     12  C   UNL     1       5.826   6.728  16.898  0.00  0.00    +0.000 A 
ATOM     13  C   UNL     1       6.054   5.567  17.609  0.00  0.00    +0.000 A 
ATOM     14  C   UNL     1       7.173   5.595  18.410  0.00  0.00    +0.000 A 
ATOM     15  N   UNL     1       7.960   6.675  18.579  0.00  0.00    +0.000 NA
ENDBRANCH   1  13
BRANCH   7  16
ATOM     16  C   UNL     1       1.704   5.779  20.684  0.00  0.00    +0.000 C 
BRANCH  16  17
ATOM     17  C   UNL     1       1.453   7.246  20.451  0.00  0.00    +0.000 A 
ATOM     18  N   UNL     1       0.837   8.032  21.313  0.00  0.00    +0.000 NA
ATOM     19  C   UNL     1       0.730   9.308  20.787  0.00  0.00    +0.000 A 
ATOM     20  C   UNL     1       1.286   9.485  19.539  0.00  0.00    +0.000 A 
ATOM     21  S   UNL     1       1.968   8.008  18.997  0.00  0.00    +0.000 S 
ENDBRANCH  16  17
ENDBRANCH   7  16
TORSDOF 3
ENDMDL
MODEL 4
REMARK VINA RESULT:      -6.9      1.067      1.146
REMARK  Name = 
REMARK  4 active torsions:
REMARK  status: ('A' for Active; 'I' for Inactive)
REMARK    1  A    between atoms: C_1  and  C_2
REMARK    2  A    between atoms: C_5  and  C_6
REMARK    3  A    between atoms: C_12  and  C_13
REMARK    4  A    between atoms: C_13  and  C_14
REMARK                            x       y       z     vdW  Elec       q    Type
REMARK                         _______ _______ _______ _____ _____    ______ ____
ROOT
ATOM      1  C   UNL     1       4.608   4.096  17.837  0.00  0.00    +0.000 C 
ATOM      2  O   UNL     1       4.705   3.220  16.985  0.00  0.00    +0.000 OA
ATOM      3  N   UNL     1       3.657   4.056  18.859  0.00  0.00    +0.000 N 
ATOM      4  C   UNL     1       2.960   2.799  19.098  0.00  0.00    +0.000 C 
ATOM      5  C   UNL     1       1.456   3.022  19.167  0.00  0.00    +0.000 C 
ATOM      6  C   UNL     1       1.105   4.082  20.213  0.00  0.00    +0.000 C 
ATOM      7  C   UNL     1       1.849   5.400  19.950  0.00  0.00    +0.000 C 
ATOM      8  C   UNL     1       3.349   5.143  19.789  0.00  0.00    +0.000 C 
ENDROOT
BRANCH   1  13
ATOM      9  C   UNL     1       8.239   8.467  17.665  0.00  0.00    +0.000 C 
ATOM     10  C   UNL     1       7.318   7.293  17.693  0.00  0.00    +0.000 A 
ATOM     11  N   UNL     1       7.567   6.288  18.555  0.00  0.00    +0.000 NA
ATOM     12  C   UNL     1       6.675   5.269  18.564  0.00  0.00    +0.000 A 
ATOM     13  C   UNL     1       5.569   5.215  17.740  0.00  0.00    +0.000 A 
ATOM     14  C   UNL     1       5.400   6.318  16.934  0.00  0.00    +0.000 A 
ATOM     15  N   UNL     1       6.264   7.348  16.864  0.00  0.00    +0.000 NA
ENDBRANCH   1  13
BRANCH   7  16
ATOM     16  C   UNL     1       1.591   6.418  21.079  0.00  0.00    +0.000 C 
BRANCH  16  17
ATOM     17  C   UNL     1       1.296   7.809  20.585  0.00  0.00    +0.000 A 
ATOM     18  N   UNL     1       0.599   8.699  21.266  0.00  0.00    +0.000 NA
ATOM     19  C   UNL     1       0.474   9.860  20.524  0.00  0.00    +0.000 A 
ATOM     20  C   UNL     1       1.095   9.850  19.294  0.00  0.00    +0.000 A 
ATOM     21  S   UNL     1       1.867   8.338  19.050  0.00  0.00    +0.000 S 
ENDBRANCH  16  17
ENDBRANCH   7  16
TORSDOF 3
ENDMDL
MODEL 5
REMARK VINA RESULT:      -6.7      2.380      3.316
REMARK  Name = 
REMARK  4 active torsions:
REMARK  status: ('A' for Active; 'I' for Inactive)
REMARK    1  A    between atoms: C_1  and  C_2
REMARK    2  A    between atoms: C_5  and  C_6
REMARK    3  A    between atoms: C_12  and  C_13
REMARK    4  A    between atoms: C_13  and  C_14
REMARK                            x       y       z     vdW  Elec       q    Type
REMARK                         _______ _______ _______ _____ _____    ______ ____
ROOT
ATOM      1  C   UNL     1       4.671   4.482  17.857  0.00  0.00    +0.000 C 
ATOM      2  O   UNL     1       4.613   3.333  18.279  0.00  0.00    +0.000 OA
ATOM      3  N   UNL     1       4.062   5.559  18.505  0.00  0.00    +0.000 N 
ATOM      4  C   UNL     1       3.599   5.362  19.873  0.00  0.00    +0.000 C 
ATOM      5  C   UNL     1       2.163   5.841  20.029  0.00  0.00    +0.000 C 
ATOM      6  C   UNL     1       2.015   7.295  19.575  0.00  0.00    +0.000 C 
ATOM      7  C   UNL     1       2.510   7.487  18.134  0.00  0.00    +0.000 C 
ATOM      8  C   UNL     1       3.919   6.914  17.973  0.00  0.00    +0.000 C 
ENDROOT
BRANCH   1  13
ATOM      9  C   UNL     1       7.673   5.046  13.062  0.00  0.00    +0.000 C 
ATOM     10  C   UNL     1       6.854   4.927  14.305  0.00  0.00    +0.000 A 
ATOM     11  N   UNL     1       5.653   4.321  14.240  0.00  0.00    +0.000 NA
ATOM     12  C   UNL     1       4.973   4.206  15.406  0.00  0.00    +0.000 A 
ATOM     13  C   UNL     1       5.441   4.686  16.612  0.00  0.00    +0.000 A 
ATOM     14  C   UNL     1       6.697   5.248  16.558  0.00  0.00    +0.000 A 
ATOM     15  N   UNL     1       7.409   5.410  15.427  0.00  0.00    +0.000 NA
ENDBRANCH   1  13
BRANCH   7  16
ATOM     16  C   UNL     1       2.480   8.975  17.731  0.00  0.00    +0.000 C 
BRANCH  16  17
ATOM     17  C   UNL     1       1.211   9.684  18.127  0.00  0.00    +0.000 A 
ATOM     18  N   UNL     1       0.022   9.392  17.635  0.00  0.00    +0.000 NA
ATOM     19  C   UNL     1      -0.926  10.247  18.170  0.00  0.00    +0.000 A 
ATOM     20  C   UNL     1      -0.452  11.166  19.080  0.00  0.00    +0.000 A 
ATOM     21  S   UNL     1       1.239  10.961  19.280  0.00  0.00    +0.000 S 
ENDBRANCH  16  17
ENDBRANCH   7  16
TORSDOF 3
ENDMDL
MODEL 6
REMARK VINA RESULT:      -6.6      2.344      3.151
REMARK  Name = 
REMARK  4 active torsions:
REMARK  status: ('A' for Active; 'I' for Inactive)
REMARK    1  A    between atoms: C_1  and  C_2
REMARK    2  A    between atoms: C_5  and  C_6
REMARK    3  A    between atoms: C_12  and  C_13
REMARK    4  A    between atoms: C_13  and  C_14
REMARK                            x       y       z     vdW  Elec       q    Type
REMARK                         _______ _______ _______ _____ _____    ______ ____
ROOT
ATOM      1  C   UNL     1       4.575   4.207  17.996  0.00  0.00    +0.000 C 
ATOM      2  O   UNL     1       4.466   3.066  18.431  0.00  0.00    +0.000 OA
ATOM      3  N   UNL     1       4.001   5.314  18.623  0.00  0.00    +0.000 N 
ATOM      4  C   UNL     1       3.513   5.153  19.987  0.00  0.00    +0.000 C 
ATOM      5  C   UNL     1       2.095   5.690  20.118  0.00  0.00    +0.000 C 
ATOM      6  C   UNL     1       2.010   7.143  19.644  0.00  0.00    +0.000 C 
ATOM      7  C   UNL     1       2.532   7.297  18.208  0.00  0.00    +0.000 C 
ATOM      8  C   UNL     1       3.919   6.667  18.073  0.00  0.00    +0.000 C 
ENDROOT
BRANCH   1  13
ATOM      9  C   UNL     1       7.641   5.028  13.280  0.00  0.00    +0.000 C 
ATOM     10  C   UNL     1       6.860   4.775  14.526  0.00  0.00    +0.000 A 
ATOM     11  N   UNL     1       7.473   4.908  15.719  0.00  0.00    +0.000 NA
ATOM     12  C   UNL     1       6.704   4.706  16.816  0.00  0.00    +0.000 A 
ATOM     13  C   UNL     1       5.369   4.363  16.759  0.00  0.00    +0.000 A 
ATOM     14  C   UNL     1       4.846   4.298  15.487  0.00  0.00    +0.000 A 
ATOM     15  N   UNL     1       5.565   4.465  14.361  0.00  0.00    +0.000 NA
ENDBRANCH   1  13
BRANCH   7  16
ATOM     16  C   UNL     1       2.565   8.780  17.787  0.00  0.00    +0.000 C 
BRANCH  16  17
ATOM     17  C   UNL     1       1.307   9.535  18.127  0.00  0.00    +0.000 A 
ATOM     18  N   UNL     1       0.126   9.268  17.604  0.00  0.00    +0.000 NA
ATOM     19  C   UNL     1      -0.812  10.162  18.089  0.00  0.00    +0.000 A 
ATOM     20  C   UNL     1      -0.339  11.088  18.993  0.00  0.00    +0.000 A 
ATOM     21  S   UNL     1       1.338  10.837  19.251  0.00  0.00    +0.000 S 
ENDBRANCH  16  17
ENDBRANCH   7  16
TORSDOF 3
ENDMDL
MODEL 7
REMARK VINA RESULT:      -6.2      2.286      3.106
REMARK  Name = 
REMARK  4 active torsions:
REMARK  status: ('A' for Active; 'I' for Inactive)
REMARK    1  A    between atoms: C_1  and  C_2
REMARK    2  A    between atoms: C_5  and  C_6
REMARK    3  A    between atoms: C_12  and  C_13
REMARK    4  A    between atoms: C_13  and  C_14
REMARK                            x       y       z     vdW  Elec       q    Type
REMARK                         _______ _______ _______ _____ _____    ______ ____
ROOT
ATOM      1  C   UNL     1       4.563   4.006  17.929  0.00  0.00    +0.000 C 
ATOM      2  O   UNL     1       4.470   2.818  18.219  0.00  0.00    +0.000 OA
ATOM      3  N   UNL     1       3.946   5.016  18.669  0.00  0.00    +0.000 N 
ATOM      4  C   UNL     1       3.426   4.680  19.989  0.00  0.00    +0.000 C 
ATOM      5  C   UNL     1       1.993   5.167  20.143  0.00  0.00    +0.000 C 
ATOM      6  C   UNL     1       1.886   6.665  19.847  0.00  0.00    +0.000 C 
ATOM      7  C   UNL     1       2.440   7.004  18.455  0.00  0.00    +0.000 C 
ATOM      8  C   UNL     1       3.845   6.424  18.285  0.00  0.00    +0.000 C 
ENDROOT
BRANCH   1  13
ATOM      9  C   UNL     1       7.719   5.034  13.314  0.00  0.00    +0.000 C 
ATOM     10  C   UNL     1       6.867   4.802  14.517  0.00  0.00    +0.000 A 
ATOM     11  N   UNL     1       5.573   4.467  14.345  0.00  0.00    +0.000 NA
ATOM     12  C   UNL     1       4.859   4.228  15.472  0.00  0.00    +0.000 A 
ATOM     13  C   UNL     1       5.384   4.329  16.743  0.00  0.00    +0.000 A 
ATOM     14  C   UNL     1       6.726   4.637  16.788  0.00  0.00    +0.000 A 
ATOM     15  N   UNL     1       7.479   4.908  15.706  0.00  0.00    +0.000 NA
ENDBRANCH   1  13
BRANCH   7  16
ATOM     16  C   UNL     1       2.449   8.528  18.219  0.00  0.00    +0.000 C 
BRANCH  16  17
ATOM     17  C   UNL     1       1.313   9.252  18.893  0.00  0.00    +0.000 A 
ATOM     18  N   UNL     1       1.272   9.512  20.186  0.00  0.00    +0.000 NA
ATOM     19  C   UNL     1       0.084  10.151  20.495  0.00  0.00    +0.000 A 
ATOM     20  C   UNL     1      -0.757  10.390  19.431  0.00  0.00    +0.000 A 
ATOM     21  S   UNL     1      -0.044   9.798  17.988  0.00  0.00    +0.000 S 
ENDBRANCH  16  17
ENDBRANCH   7  16
TORSDOF 3
ENDMDL
MODEL 8
REMARK VINA RESULT:      -6.0      2.728      5.618
REMARK  Name = 
REMARK  4 active torsions:
REMARK  status: ('A' for Active; 'I' for Inactive)
REMARK    1  A    between atoms: C_1  and  C_2
REMARK    2  A    between atoms: C_5  and  C_6
REMARK    3  A    between atoms: C_12  and  C_13
REMARK    4  A    between atoms: C_13  and  C_14
REMARK                            x       y       z     vdW  Elec       q    Type
REMARK                         _______ _______ _______ _____ _____    ______ ____
ROOT
ATOM      1  C   UNL     1       3.370   7.530  17.654  0.00  0.00    +0.000 C 
ATOM      2  O   UNL     1       3.503   8.474  16.884  0.00  0.00    +0.000 OA
ATOM      3  N   UNL     1       4.065   6.328  17.507  0.00  0.00    +0.000 N 
ATOM      4  C   UNL     1       5.199   6.300  16.591  0.00  0.00    +0.000 C 
ATOM      5  C   UNL     1       5.094   5.116  15.641  0.00  0.00    +0.000 C 
ATOM      6  C   UNL     1       4.946   3.803  16.413  0.00  0.00    +0.000 C 
ATOM      7  C   UNL     1       3.750   3.849  17.376  0.00  0.00    +0.000 C 
ATOM      8  C   UNL     1       3.823   5.097  18.258  0.00  0.00    +0.000 C 
ENDROOT
BRANCH   1  13
ATOM      9  C   UNL     1      -0.114   8.453  22.051  0.00  0.00    +0.000 C 
ATOM     10  C   UNL     1       0.765   8.206  20.870  0.00  0.00    +0.000 A 
ATOM     11  N   UNL     1       0.827   9.137  19.897  0.00  0.00    +0.000 NA
ATOM     12  C   UNL     1       1.672   8.876  18.870  0.00  0.00    +0.000 A 
ATOM     13  C   UNL     1       2.430   7.728  18.778  0.00  0.00    +0.000 A 
ATOM     14  C   UNL     1       2.311   6.873  19.852  0.00  0.00    +0.000 A 
ATOM     15  N   UNL     1       1.472   7.067  20.887  0.00  0.00    +0.000 NA
ENDBRANCH   1  13
BRANCH   7  16
ATOM     16  C   UNL     1       3.687   2.575  18.242  0.00  0.00    +0.000 C 
BRANCH  16  17
ATOM     17  C   UNL     1       2.857   2.730  19.489  0.00  0.00    +0.000 A 
ATOM     18  N   UNL     1       3.356   2.725  20.710  0.00  0.00    +0.000 NA
ATOM     19  C   UNL     1       2.332   2.849  21.633  0.00  0.00    +0.000 A 
ATOM     20  C   UNL     1       1.066   2.968  21.104  0.00  0.00    +0.000 A 
ATOM     21  S   UNL     1       1.150   2.925  19.392  0.00  0.00    +0.000 S 
ENDBRANCH  16  17
ENDBRANCH   7  16
TORSDOF 3
ENDMDL
MODEL 9
REMARK VINA RESULT:      -6.0      7.485     11.079
REMARK  Name = 
REMARK  4 active torsions:
REMARK  status: ('A' for Active; 'I' for Inactive)
REMARK    1  A    between atoms: C_1  and  C_2
REMARK    2  A    between atoms: C_5  and  C_6
REMARK    3  A    between atoms: C_12  and  C_13
REMARK    4  A    between atoms: C_13  and  C_14
REMARK                            x       y       z     vdW  Elec       q    Type
REMARK                         _______ _______ _______ _____ _____    ______ ____
ROOT
ATOM      1  C   UNL     1      -5.459  11.712  18.411  0.00  0.00    +0.000 C 
ATOM      2  O   UNL     1      -6.460  11.403  17.774  0.00  0.00    +0.000 OA
ATOM      3  N   UNL     1      -4.164  11.502  17.935  0.00  0.00    +0.000 N 
ATOM      4  C   UNL     1      -3.995  11.184  16.523  0.00  0.00    +0.000 C 
ATOM      5  C   UNL     1      -3.107   9.961  16.349  0.00  0.00    +0.000 C 
ATOM      6  C   UNL     1      -1.765  10.150  17.060  0.00  0.00    +0.000 C 
ATOM      7  C   UNL     1      -1.959  10.488  18.545  0.00  0.00    +0.000 C 
ATOM      8  C   UNL     1      -2.929  11.660  18.704  0.00  0.00    +0.000 C 
ENDROOT
BRANCH   1  13
ATOM      9  C   UNL     1      -6.563  14.133  23.435  0.00  0.00    +0.000 C 
ATOM     10  C   UNL     1      -6.243  13.471  22.136  0.00  0.00    +0.000 A 
ATOM     11  N   UNL     1      -6.613  12.188  21.949  0.00  0.00    +0.000 NA
ATOM     12  C   UNL     1      -6.333  11.653  20.737  0.00  0.00    +0.000 A 
ATOM     13  C   UNL     1      -5.690  12.341  19.729  0.00  0.00    +0.000 A 
ATOM     14  C   UNL     1      -5.399  13.654  20.025  0.00  0.00    +0.000 A 
ATOM     15  N   UNL     1      -5.631  14.233  21.218  0.00  0.00    +0.000 NA
ENDBRANCH   1  13
BRANCH   7  16
ATOM     16  C   UNL     1      -0.610  10.805  19.222  0.00  0.00    +0.000 C 
BRANCH  16  17
ATOM     17  C   UNL     1      -0.543  10.385  20.667  0.00  0.00    +0.000 A 
ATOM     18  N   UNL     1      -0.270   9.156  21.063  0.00  0.00    +0.000 NA
ATOM     19  C   UNL     1      -0.324   9.089  22.444  0.00  0.00    +0.000 A 
ATOM     20  C   UNL     1      -0.617  10.272  23.087  0.00  0.00    +0.000 A 
ATOM     21  S   UNL     1      -0.833  11.519  21.929  0.00  0.00    +0.000 S 
ENDBRANCH  16  17
ENDBRANCH   7  16
TORSDOF 3
ENDMDL
