MODEL 1
REMARK VINA RESULT:      -7.4      0.000      0.000
REMARK  Name = 
REMARK  9 active torsions:
REMARK  status: ('A' for Active; 'I' for Inactive)
REMARK    1  A    between atoms: C_2  and  C_3
REMARK    2  A    between atoms: C_3  and  C_4
REMARK    3  A    between atoms: C_4  and  C_5
REMARK    4  A    between atoms: C_5  and  C_6
REMARK    5  A    between atoms: C_6  and  C_7
REMARK    6  A    between atoms: C_7  and  C_8
REMARK    7  A    between atoms: C_8  and  C_9
REMARK    8  A    between atoms: C_9  and  N_10
REMARK    9  A    between atoms: N_21  and  O_22
REMARK                            x       y       z     vdW  Elec       q    Type
REMARK                         _______ _______ _______ _____ _____    ______ ____
ROOT
ATOM      1  C   UNL     1       7.289   8.509  17.749  0.00  0.00    +0.000 C 
ENDROOT
BRANCH   1   2
ATOM      2  C   UNL     1       8.419   9.539  17.712  0.00  0.00    +0.000 C 
BRANCH   2   3
ATOM      3  C   UNL     1       9.063   9.696  19.089  0.00  0.00    +0.000 C 
BRANCH   3   4
ATOM      4  C   UNL     1       9.854  11.001  19.197  0.00  0.00    +0.000 C 
BRANCH   4   5
ATOM      5  C   UNL     1      10.126  11.585  17.811  0.00  0.00    +0.000 C 
BRANCH   5   6
ATOM      6  C   UNL     1      11.484  12.280  17.746  0.00  0.00    +0.000 C 
BRANCH   6   8
ATOM      7  O   UNL     1      11.406  14.620  18.426  0.00  0.00    +0.000 OA
ATOM      8  C   UNL     1      11.357  13.777  17.534  0.00  0.00    +0.000 C 
ATOM      9  N   UNL     1      11.178  14.117  16.215  0.00  0.00    +0.000 N 
ATOM     10  H   UNL     1      11.129  13.464  15.446  0.00  0.00    +0.000 HD
BRANCH   9  11
ATOM     11  O   UNL     1      11.047  15.488  15.914  0.00  0.00    +0.000 OA
ATOM     12  H   UNL     1      11.948  15.724  15.600  0.00  0.00    +0.000 HD
ENDBRANCH   9  11
ENDBRANCH   6   8
ENDBRANCH   5   6
ENDBRANCH   4   5
ENDBRANCH   3   4
ENDBRANCH   2   3
ENDBRANCH   1   2
BRANCH   1  13
ATOM     13  C   UNL     1       7.837   7.087  17.647  0.00  0.00    +0.000 C 
BRANCH  13  14
ATOM     14  N   UNL     1       6.786   6.100  17.783  0.00  0.00    +0.000 N 
ATOM     15  C   UNL     1       6.552   5.376  18.921  0.00  0.00    +0.000 C 
ATOM     16  O   UNL     1       7.142   5.400  19.985  0.00  0.00    +0.000 OA
ATOM     17  C   UNL     1       5.414   4.505  18.630  0.00  0.00    +0.000 A 
ATOM     18  C   UNL     1       4.741   3.609  19.435  0.00  0.00    +0.000 A 
ATOM     19  C   UNL     1       3.669   2.915  18.863  0.00  0.00    +0.000 A 
ATOM     20  C   UNL     1       3.306   3.128  17.515  0.00  0.00    +0.000 A 
ATOM     21  C   UNL     1       4.002   4.042  16.721  0.00  0.00    +0.000 A 
ATOM     22  C   UNL     1       5.051   4.719  17.312  0.00  0.00    +0.000 A 
ATOM     23  C   UNL     1       5.945   5.738  16.767  0.00  0.00    +0.000 C 
ATOM     24  O   UNL     1       5.903   6.143  15.621  0.00  0.00    +0.000 OA
ENDBRANCH  13  14
ENDBRANCH   1  13
TORSDOF 9
ENDMDL
MODEL 2
REMARK VINA RESULT:      -7.4      5.592      7.585
REMARK  Name = 
REMARK  9 active torsions:
REMARK  status: ('A' for Active; 'I' for Inactive)
REMARK    1  A    between atoms: C_2  and  C_3
REMARK    2  A    between atoms: C_3  and  C_4
REMARK    3  A    between atoms: C_4  and  C_5
REMARK    4  A    between atoms: C_5  and  C_6
REMARK    5  A    between atoms: C_6  and  C_7
REMARK    6  A    between atoms: C_7  and  C_8
REMARK    7  A    between atoms: C_8  and  C_9
REMARK    8  A    between atoms: C_9  and  N_10
REMARK    9  A    between atoms: N_21  and  O_22
REMARK                            x       y       z     vdW  Elec       q    Type
REMARK                         _______ _______ _______ _____ _____    ______ ____
ROOT
ATOM      1  C   UNL     1       7.200   4.833  18.057  0.00  0.00    +0.000 C 
ENDROOT
BRANCH   1   2
ATOM      2  C   UNL     1       7.347   6.057  17.152  0.00  0.00    +0.000 C 
BRANCH   2   3
ATOM      3  C   UNL     1       6.906   5.740  15.723  0.00  0.00    +0.000 C 
BRANCH   3   4
ATOM      4  C   UNL     1       6.370   4.313  15.602  0.00  0.00    +0.000 C 
BRANCH   4   5
ATOM      5  C   UNL     1       5.520   4.160  14.340  0.00  0.00    +0.000 C 
BRANCH   5   6
ATOM      6  C   UNL     1       6.383   4.073  13.083  0.00  0.00    +0.000 C 
BRANCH   6   8
ATOM      7  O   UNL     1       4.746   2.973  11.650  0.00  0.00    +0.000 OA
ATOM      8  C   UNL     1       5.883   3.021  12.111  0.00  0.00    +0.000 C 
ATOM      9  N   UNL     1       6.846   2.097  11.782  0.00  0.00    +0.000 N 
ATOM     10  H   UNL     1       7.793   2.091  12.134  0.00  0.00    +0.000 HD
BRANCH   9  11
ATOM     11  O   UNL     1       6.479   1.074  10.883  0.00  0.00    +0.000 OA
ATOM     12  H   UNL     1       6.058   0.412  11.475  0.00  0.00    +0.000 HD
ENDBRANCH   9  11
ENDBRANCH   6   8
ENDBRANCH   5   6
ENDBRANCH   4   5
ENDBRANCH   3   4
ENDBRANCH   2   3
ENDBRANCH   1   2
BRANCH   1  13
ATOM     13  C   UNL     1       6.286   5.133  19.243  0.00  0.00    +0.000 C 
BRANCH  13  14
ATOM     14  N   UNL     1       4.960   4.585  19.046  0.00  0.00    +0.000 N 
ATOM     15  C   UNL     1       4.563   3.351  19.486  0.00  0.00    +0.000 C 
ATOM     16  O   UNL     1       5.199   2.506  20.087  0.00  0.00    +0.000 OA
ATOM     17  C   UNL     1       3.167   3.197  19.080  0.00  0.00    +0.000 A 
ATOM     18  C   UNL     1       2.275   2.168  19.307  0.00  0.00    +0.000 A 
ATOM     19  C   UNL     1       0.984   2.317  18.789  0.00  0.00    +0.000 A 
ATOM     20  C   UNL     1       0.623   3.472  18.061  0.00  0.00    +0.000 A 
ATOM     21  C   UNL     1       1.544   4.500  17.847  0.00  0.00    +0.000 A 
ATOM     22  C   UNL     1       2.810   4.332  18.375  0.00  0.00    +0.000 A 
ATOM     23  C   UNL     1       3.971   5.219  18.345  0.00  0.00    +0.000 C 
ATOM     24  O   UNL     1       3.995   6.297  17.785  0.00  0.00    +0.000 OA
ENDBRANCH  13  14
ENDBRANCH   1  13
TORSDOF 9
ENDMDL
MODEL 3
REMARK VINA RESULT:      -7.4      5.427      8.729
REMARK  Name = 
REMARK  9 active torsions:
REMARK  status: ('A' for Active; 'I' for Inactive)
REMARK    1  A    between atoms: C_2  and  C_3
REMARK    2  A    between atoms: C_3  and  C_4
REMARK    3  A    between atoms: C_4  and  C_5
REMARK    4  A    between atoms: C_5  and  C_6
REMARK    5  A    between atoms: C_6  and  C_7
REMARK    6  A    between atoms: C_7  and  C_8
REMARK    7  A    between atoms: C_8  and  C_9
REMARK    8  A    between atoms: C_9  and  N_10
REMARK    9  A    between atoms: N_21  and  O_22
REMARK                            x       y       z     vdW  Elec       q    Type
REMARK                         _______ _______ _______ _____ _____    ______ ____
ROOT
ATOM      1  C   UNL     1       4.400   6.131  18.299  0.00  0.00    +0.000 C 
ENDROOT
BRANCH   1   2
ATOM      2  C   UNL     1       3.680   5.821  19.613  0.00  0.00    +0.000 C 
BRANCH   2   3
ATOM      3  C   UNL     1       2.174   5.681  19.394  0.00  0.00    +0.000 C 
BRANCH   3   4
ATOM      4  C   UNL     1       1.848   4.536  18.435  0.00  0.00    +0.000 C 
BRANCH   4   5
ATOM      5  C   UNL     1       1.249   3.350  19.192  0.00  0.00    +0.000 C 
BRANCH   5   6
ATOM      6  C   UNL     1       2.223   2.785  20.223  0.00  0.00    +0.000 C 
BRANCH   6   8
ATOM      7  O   UNL     1       4.617   2.415  19.950  0.00  0.00    +0.000 OA
ATOM      8  C   UNL     1       3.466   2.198  19.581  0.00  0.00    +0.000 C 
ATOM      9  N   UNL     1       3.182   1.376  18.518  0.00  0.00    +0.000 N 
ATOM     10  H   UNL     1       2.255   1.166  18.174  0.00  0.00    +0.000 HD
BRANCH   9  11
ATOM     11  O   UNL     1       4.273   0.781  17.852  0.00  0.00    +0.000 OA
ATOM     12  H   UNL     1       4.754   1.560  17.494  0.00  0.00    +0.000 HD
ENDBRANCH   9  11
ENDBRANCH   6   8
ENDBRANCH   5   6
ENDBRANCH   4   5
ENDBRANCH   3   4
ENDBRANCH   2   3
ENDBRANCH   1   2
BRANCH   1  13
ATOM     13  C   UNL     1       5.661   5.283  18.149  0.00  0.00    +0.000 C 
BRANCH  13  14
ATOM     14  N   UNL     1       5.944   4.990  16.759  0.00  0.00    +0.000 N 
ATOM     15  C   UNL     1       6.912   5.617  16.021  0.00  0.00    +0.000 C 
ATOM     16  O   UNL     1       7.683   6.499  16.351  0.00  0.00    +0.000 OA
ATOM     17  C   UNL     1       6.859   5.027  14.684  0.00  0.00    +0.000 A 
ATOM     18  C   UNL     1       7.641   5.258  13.570  0.00  0.00    +0.000 A 
ATOM     19  C   UNL     1       7.346   4.520  12.419  0.00  0.00    +0.000 A 
ATOM     20  C   UNL     1       6.287   3.586  12.408  0.00  0.00    +0.000 A 
ATOM     21  C   UNL     1       5.511   3.369  13.550  0.00  0.00    +0.000 A 
ATOM     22  C   UNL     1       5.828   4.105  14.676  0.00  0.00    +0.000 A 
ATOM     23  C   UNL     1       5.233   4.093  16.010  0.00  0.00    +0.000 C 
ATOM     24  O   UNL     1       4.287   3.401  16.332  0.00  0.00    +0.000 OA
ENDBRANCH  13  14
ENDBRANCH   1  13
TORSDOF 9
ENDMDL
MODEL 4
REMARK VINA RESULT:      -7.3      5.443      8.611
REMARK  Name = 
REMARK  9 active torsions:
REMARK  status: ('A' for Active; 'I' for Inactive)
REMARK    1  A    between atoms: C_2  and  C_3
REMARK    2  A    between atoms: C_3  and  C_4
REMARK    3  A    between atoms: C_4  and  C_5
REMARK    4  A    between atoms: C_5  and  C_6
REMARK    5  A    between atoms: C_6  and  C_7
REMARK    6  A    between atoms: C_7  and  C_8
REMARK    7  A    between atoms: C_8  and  C_9
REMARK    8  A    between atoms: C_9  and  N_10
REMARK    9  A    between atoms: N_21  and  O_22
REMARK                            x       y       z     vdW  Elec       q    Type
REMARK                         _______ _______ _______ _____ _____    ______ ____
ROOT
ATOM      1  C   UNL     1       4.186   6.595  18.040  0.00  0.00    +0.000 C 
ENDROOT
BRANCH   1   2
ATOM      2  C   UNL     1       2.908   5.884  18.490  0.00  0.00    +0.000 C 
BRANCH   2   3
ATOM      3  C   UNL     1       2.892   5.693  20.006  0.00  0.00    +0.000 C 
BRANCH   3   4
ATOM      4  C   UNL     1       1.573   5.085  20.483  0.00  0.00    +0.000 C 
BRANCH   4   5
ATOM      5  C   UNL     1       1.601   3.561  20.355  0.00  0.00    +0.000 C 
BRANCH   5   6
ATOM      6  C   UNL     1       2.812   2.956  21.062  0.00  0.00    +0.000 C 
BRANCH   6   8
ATOM      7  O   UNL     1       5.024   2.314  20.264  0.00  0.00    +0.000 OA
ATOM      8  C   UNL     1       3.809   2.357  20.089  0.00  0.00    +0.000 C 
ATOM      9  N   UNL     1       3.215   1.850  18.958  0.00  0.00    +0.000 N 
ATOM     10  H   UNL     1       2.223   1.862  18.766  0.00  0.00    +0.000 HD
BRANCH   9  11
ATOM     11  O   UNL     1       4.059   1.271  17.989  0.00  0.00    +0.000 OA
ATOM     12  H   UNL     1       4.916   1.203  18.466  0.00  0.00    +0.000 HD
ENDBRANCH   9  11
ENDBRANCH   6   8
ENDBRANCH   5   6
ENDBRANCH   4   5
ENDBRANCH   3   4
ENDBRANCH   2   3
ENDBRANCH   1   2
BRANCH   1  13
ATOM     13  C   UNL     1       5.373   5.634  18.019  0.00  0.00    +0.000 C 
BRANCH  13  14
ATOM     14  N   UNL     1       5.698   5.219  16.671  0.00  0.00    +0.000 N 
ATOM     15  C   UNL     1       5.005   4.271  15.968  0.00  0.00    +0.000 C 
ATOM     16  O   UNL     1       4.038   3.614  16.306  0.00  0.00    +0.000 OA
ATOM     17  C   UNL     1       5.662   4.158  14.666  0.00  0.00    +0.000 A 
ATOM     18  C   UNL     1       5.345   3.388  13.565  0.00  0.00    +0.000 A 
ATOM     19  C   UNL     1       6.174   3.505  12.445  0.00  0.00    +0.000 A 
ATOM     20  C   UNL     1       7.288   4.373  12.454  0.00  0.00    +0.000 A 
ATOM     21  C   UNL     1       7.586   5.143  13.581  0.00  0.00    +0.000 A 
ATOM     22  C   UNL     1       6.748   5.014  14.672  0.00  0.00    +0.000 A 
ATOM     23  C   UNL     1       6.775   5.687  15.968  0.00  0.00    +0.000 C 
ATOM     24  O   UNL     1       7.620   6.494  16.304  0.00  0.00    +0.000 OA
ENDBRANCH  13  14
ENDBRANCH   1  13
TORSDOF 9
ENDMDL
MODEL 5
REMARK VINA RESULT:      -7.3      5.533      9.035
REMARK  Name = 
REMARK  9 active torsions:
REMARK  status: ('A' for Active; 'I' for Inactive)
REMARK    1  A    between atoms: C_2  and  C_3
REMARK    2  A    between atoms: C_3  and  C_4
REMARK    3  A    between atoms: C_4  and  C_5
REMARK    4  A    between atoms: C_5  and  C_6
REMARK    5  A    between atoms: C_6  and  C_7
REMARK    6  A    between atoms: C_7  and  C_8
REMARK    7  A    between atoms: C_8  and  C_9
REMARK    8  A    between atoms: C_9  and  N_10
REMARK    9  A    between atoms: N_21  and  O_22
REMARK                            x       y       z     vdW  Elec       q    Type
REMARK                         _______ _______ _______ _____ _____    ______ ____
ROOT
ATOM      1  C   UNL     1       4.281   5.805  18.214  0.00  0.00    +0.000 C 
ENDROOT
BRANCH   1   2
ATOM      2  C   UNL     1       3.725   5.606  19.625  0.00  0.00    +0.000 C 
BRANCH   2   3
ATOM      3  C   UNL     1       2.315   6.182  19.746  0.00  0.00    +0.000 C 
BRANCH   3   4
ATOM      4  C   UNL     1       1.484   5.427  20.784  0.00  0.00    +0.000 C 
BRANCH   4   5
ATOM      5  C   UNL     1       2.166   4.114  21.172  0.00  0.00    +0.000 C 
BRANCH   5   6
ATOM      6  C   UNL     1       1.247   2.914  20.958  0.00  0.00    +0.000 C 
BRANCH   6   8
ATOM      7  O   UNL     1       0.301   2.329  18.788  0.00  0.00    +0.000 OA
ATOM      8  C   UNL     1       1.279   2.410  19.527  0.00  0.00    +0.000 C 
ATOM      9  N   UNL     1       2.538   2.042  19.118  0.00  0.00    +0.000 N 
ATOM     10  H   UNL     1       3.373   2.088  19.687  0.00  0.00    +0.000 HD
BRANCH   9  11
ATOM     11  O   UNL     1       2.673   1.558  17.801  0.00  0.00    +0.000 OA
ATOM     12  H   UNL     1       2.993   0.640  17.944  0.00  0.00    +0.000 HD
ENDBRANCH   9  11
ENDBRANCH   6   8
ENDBRANCH   5   6
ENDBRANCH   4   5
ENDBRANCH   3   4
ENDBRANCH   2   3
ENDBRANCH   1   2
BRANCH   1  13
ATOM     13  C   UNL     1       5.616   5.083  18.041  0.00  0.00    +0.000 C 
BRANCH  13  14
ATOM     14  N   UNL     1       5.925   4.862  16.644  0.00  0.00    +0.000 N 
ATOM     15  C   UNL     1       6.912   5.519  15.960  0.00  0.00    +0.000 C 
ATOM     16  O   UNL     1       7.682   6.377  16.352  0.00  0.00    +0.000 OA
ATOM     17  C   UNL     1       6.883   5.001  14.593  0.00  0.00    +0.000 A 
ATOM     18  C   UNL     1       7.689   5.285  13.509  0.00  0.00    +0.000 A 
ATOM     19  C   UNL     1       7.413   4.612  12.315  0.00  0.00    +0.000 A 
ATOM     20  C   UNL     1       6.349   3.687  12.232  0.00  0.00    +0.000 A 
ATOM     21  C   UNL     1       5.548   3.416  13.345  0.00  0.00    +0.000 A 
ATOM     22  C   UNL     1       5.847   4.089  14.515  0.00  0.00    +0.000 A 
ATOM     23  C   UNL     1       5.224   4.011  15.834  0.00  0.00    +0.000 C 
ATOM     24  O   UNL     1       4.267   3.310  16.100  0.00  0.00    +0.000 OA
ENDBRANCH  13  14
ENDBRANCH   1  13
TORSDOF 9
ENDMDL
MODEL 6
REMARK VINA RESULT:      -7.1      6.068      8.476
REMARK  Name = 
REMARK  9 active torsions:
REMARK  status: ('A' for Active; 'I' for Inactive)
REMARK    1  A    between atoms: C_2  and  C_3
REMARK    2  A    between atoms: C_3  and  C_4
REMARK    3  A    between atoms: C_4  and  C_5
REMARK    4  A    between atoms: C_5  and  C_6
REMARK    5  A    between atoms: C_6  and  C_7
REMARK    6  A    between atoms: C_7  and  C_8
REMARK    7  A    between atoms: C_8  and  C_9
REMARK    8  A    between atoms: C_9  and  N_10
REMARK    9  A    between atoms: N_21  and  O_22
REMARK                            x       y       z     vdW  Elec       q    Type
REMARK                         _______ _______ _______ _____ _____    ______ ____
ROOT
ATOM      1  C   UNL     1       5.140   5.722  15.943  0.00  0.00    +0.000 C 
ENDROOT
BRANCH   1   2
ATOM      2  C   UNL     1       6.624   5.762  15.573  0.00  0.00    +0.000 C 
BRANCH   2   3
ATOM      3  C   UNL     1       7.080   4.427  14.987  0.00  0.00    +0.000 C 
BRANCH   3   4
ATOM      4  C   UNL     1       6.019   3.823  14.066  0.00  0.00    +0.000 C 
BRANCH   4   5
ATOM      5  C   UNL     1       6.488   3.849  12.610  0.00  0.00    +0.000 C 
BRANCH   5   6
ATOM      6  C   UNL     1       5.694   2.876  11.742  0.00  0.00    +0.000 C 
BRANCH   6   8
ATOM      7  O   UNL     1       7.668   1.624  11.050  0.00  0.00    +0.000 OA
ATOM      8  C   UNL     1       6.489   1.632  11.393  0.00  0.00    +0.000 C 
ATOM      9  N   UNL     1       5.751   0.478  11.500  0.00  0.00    +0.000 N 
ATOM     10  H   UNL     1       4.780   0.430  11.776  0.00  0.00    +0.000 HD
BRANCH   9  11
ATOM     11  O   UNL     1       6.401  -0.735  11.195  0.00  0.00    +0.000 OA
ATOM     12  H   UNL     1       6.774  -0.559  10.303  0.00  0.00    +0.000 HD
ENDBRANCH   9  11
ENDBRANCH   6   8
ENDBRANCH   5   6
ENDBRANCH   4   5
ENDBRANCH   3   4
ENDBRANCH   2   3
ENDBRANCH   1   2
BRANCH   1  13
ATOM     13  C   UNL     1       4.879   6.465  17.251  0.00  0.00    +0.000 C 
BRANCH  13  14
ATOM     14  N   UNL     1       4.149   5.643  18.194  0.00  0.00    +0.000 N 
ATOM     15  C   UNL     1       2.885   5.919  18.640  0.00  0.00    +0.000 C 
ATOM     16  O   UNL     1       2.157   6.854  18.363  0.00  0.00    +0.000 OA
ATOM     17  C   UNL     1       2.531   4.847  19.570  0.00  0.00    +0.000 A 
ATOM     18  C   UNL     1       1.362   4.612  20.265  0.00  0.00    +0.000 A 
ATOM     19  C   UNL     1       1.324   3.481  21.086  0.00  0.00    +0.000 A 
ATOM     20  C   UNL     1       2.443   2.626  21.196  0.00  0.00    +0.000 A 
ATOM     21  C   UNL     1       3.615   2.885  20.480  0.00  0.00    +0.000 A 
ATOM     22  C   UNL     1       3.623   4.005  19.670  0.00  0.00    +0.000 A 
ATOM     23  C   UNL     1       4.668   4.527  18.793  0.00  0.00    +0.000 C 
ATOM     24  O   UNL     1       5.768   4.026  18.663  0.00  0.00    +0.000 OA
ENDBRANCH  13  14
ENDBRANCH   1  13
TORSDOF 9
ENDMDL
MODEL 7
REMARK VINA RESULT:      -7.1      5.470      7.853
REMARK  Name = 
REMARK  9 active torsions:
REMARK  status: ('A' for Active; 'I' for Inactive)
REMARK    1  A    between atoms: C_2  and  C_3
REMARK    2  A    between atoms: C_3  and  C_4
REMARK    3  A    between atoms: C_4  and  C_5
REMARK    4  A    between atoms: C_5  and  C_6
REMARK    5  A    between atoms: C_6  and  C_7
REMARK    6  A    between atoms: C_7  and  C_8
REMARK    7  A    between atoms: C_8  and  C_9
REMARK    8  A    between atoms: C_9  and  N_10
REMARK    9  A    between atoms: N_21  and  O_22
REMARK                            x       y       z     vdW  Elec       q    Type
REMARK                         _______ _______ _______ _____ _____    ______ ____
ROOT
ATOM      1  C   UNL     1       7.447   5.712  17.945  0.00  0.00    +0.000 C 
ENDROOT
BRANCH   1   2
ATOM      2  C   UNL     1       7.480   4.397  17.164  0.00  0.00    +0.000 C 
BRANCH   2   3
ATOM      3  C   UNL     1       7.099   4.618  15.701  0.00  0.00    +0.000 C 
BRANCH   3   4
ATOM      4  C   UNL     1       5.702   4.078  15.393  0.00  0.00    +0.000 C 
BRANCH   4   5
ATOM      5  C   UNL     1       5.345   4.305  13.923  0.00  0.00    +0.000 C 
BRANCH   5   6
ATOM      6  C   UNL     1       6.189   3.435  12.995  0.00  0.00    +0.000 C 
BRANCH   6   8
ATOM      7  O   UNL     1       5.604   1.690  11.396  0.00  0.00    +0.000 OA
ATOM      8  C   UNL     1       5.361   2.781  11.906  0.00  0.00    +0.000 C 
ATOM      9  N   UNL     1       4.279   3.539  11.528  0.00  0.00    +0.000 N 
ATOM     10  H   UNL     1       4.036   4.441  11.914  0.00  0.00    +0.000 HD
BRANCH   9  11
ATOM     11  O   UNL     1       3.445   3.018  10.518  0.00  0.00    +0.000 OA
ATOM     12  H   UNL     1       4.079   2.520   9.955  0.00  0.00    +0.000 HD
ENDBRANCH   9  11
ENDBRANCH   6   8
ENDBRANCH   5   6
ENDBRANCH   4   5
ENDBRANCH   3   4
ENDBRANCH   2   3
ENDBRANCH   1   2
BRANCH   1  13
ATOM     13  C   UNL     1       6.619   5.574  19.221  0.00  0.00    +0.000 C 
BRANCH  13  14
ATOM     14  N   UNL     1       5.304   5.033  18.947  0.00  0.00    +0.000 N 
ATOM     15  C   UNL     1       4.287   5.739  18.363  0.00  0.00    +0.000 C 
ATOM     16  O   UNL     1       4.271   6.895  17.981  0.00  0.00    +0.000 OA
ATOM     17  C   UNL     1       3.148   4.827  18.275  0.00  0.00    +0.000 A 
ATOM     18  C   UNL     1       1.892   5.010  17.731  0.00  0.00    +0.000 A 
ATOM     19  C   UNL     1       1.006   3.929  17.793  0.00  0.00    +0.000 A 
ATOM     20  C   UNL     1       1.390   2.710  18.395  0.00  0.00    +0.000 A 
ATOM     21  C   UNL     1       2.669   2.550  18.936  0.00  0.00    +0.000 A 
ATOM     22  C   UNL     1       3.527   3.630  18.855  0.00  0.00    +0.000 A 
ATOM     23  C   UNL     1       4.911   3.771  19.298  0.00  0.00    +0.000 C 
ATOM     24  O   UNL     1       5.541   2.900  19.867  0.00  0.00    +0.000 OA
ENDBRANCH  13  14
ENDBRANCH   1  13
TORSDOF 9
ENDMDL
MODEL 8
REMARK VINA RESULT:      -7.1      1.680      2.061
REMARK  Name = 
REMARK  9 active torsions:
REMARK  status: ('A' for Active; 'I' for Inactive)
REMARK    1  A    between atoms: C_2  and  C_3
REMARK    2  A    between atoms: C_3  and  C_4
REMARK    3  A    between atoms: C_4  and  C_5
REMARK    4  A    between atoms: C_5  and  C_6
REMARK    5  A    between atoms: C_6  and  C_7
REMARK    6  A    between atoms: C_7  and  C_8
REMARK    7  A    between atoms: C_8  and  C_9
REMARK    8  A    between atoms: C_9  and  N_10
REMARK    9  A    between atoms: N_21  and  O_22
REMARK                            x       y       z     vdW  Elec       q    Type
REMARK                         _______ _______ _______ _____ _____    ______ ____
ROOT
ATOM      1  C   UNL     1       7.740   6.950  18.220  0.00  0.00    +0.000 C 
ENDROOT
BRANCH   1   2
ATOM      2  C   UNL     1       8.427   8.256  18.625  0.00  0.00    +0.000 C 
BRANCH   2   3
ATOM      3  C   UNL     1       8.094   9.379  17.644  0.00  0.00    +0.000 C 
BRANCH   3   4
ATOM      4  C   UNL     1       8.632  10.727  18.125  0.00  0.00    +0.000 C 
BRANCH   4   5
ATOM      5  C   UNL     1       9.940  10.544  18.896  0.00  0.00    +0.000 C 
BRANCH   5   6
ATOM      6  C   UNL     1      10.612  11.881  19.198  0.00  0.00    +0.000 C 
BRANCH   6   8
ATOM      7  O   UNL     1      10.237  13.652  17.565  0.00  0.00    +0.000 OA
ATOM      8  C   UNL     1      10.892  12.683  17.941  0.00  0.00    +0.000 C 
ATOM      9  N   UNL     1      11.977  12.217  17.239  0.00  0.00    +0.000 N 
ATOM     10  H   UNL     1      12.546  11.424  17.504  0.00  0.00    +0.000 HD
BRANCH   9  11
ATOM     11  O   UNL     1      12.319  12.895  16.052  0.00  0.00    +0.000 OA
ATOM     12  H   UNL     1      11.652  13.617  16.020  0.00  0.00    +0.000 HD
ENDBRANCH   9  11
ENDBRANCH   6   8
ENDBRANCH   5   6
ENDBRANCH   4   5
ENDBRANCH   3   4
ENDBRANCH   2   3
ENDBRANCH   1   2
BRANCH   1  13
ATOM     13  C   UNL     1       6.641   7.204  17.189  0.00  0.00    +0.000 C 
BRANCH  13  14
ATOM     14  N   UNL     1       5.553   6.258  17.327  0.00  0.00    +0.000 N 
ATOM     15  C   UNL     1       5.674   4.910  17.122  0.00  0.00    +0.000 C 
ATOM     16  O   UNL     1       6.652   4.264  16.796  0.00  0.00    +0.000 OA
ATOM     17  C   UNL     1       4.351   4.335  17.363  0.00  0.00    +0.000 A 
ATOM     18  C   UNL     1       3.925   3.022  17.340  0.00  0.00    +0.000 A 
ATOM     19  C   UNL     1       2.577   2.783  17.624  0.00  0.00    +0.000 A 
ATOM     20  C   UNL     1       1.697   3.849  17.914  0.00  0.00    +0.000 A 
ATOM     21  C   UNL     1       2.153   5.169  17.933  0.00  0.00    +0.000 A 
ATOM     22  C   UNL     1       3.491   5.378  17.656  0.00  0.00    +0.000 A 
ATOM     23  C   UNL     1       4.266   6.616  17.620  0.00  0.00    +0.000 C 
ATOM     24  O   UNL     1       3.800   7.721  17.817  0.00  0.00    +0.000 OA
ENDBRANCH  13  14
ENDBRANCH   1  13
TORSDOF 9
ENDMDL
MODEL 9
REMARK VINA RESULT:      -7.0      1.318      2.358
REMARK  Name = 
REMARK  9 active torsions:
REMARK  status: ('A' for Active; 'I' for Inactive)
REMARK    1  A    between atoms: C_2  and  C_3
REMARK    2  A    between atoms: C_3  and  C_4
REMARK    3  A    between atoms: C_4  and  C_5
REMARK    4  A    between atoms: C_5  and  C_6
REMARK    5  A    between atoms: C_6  and  C_7
REMARK    6  A    between atoms: C_7  and  C_8
REMARK    7  A    between atoms: C_8  and  C_9
REMARK    8  A    between atoms: C_9  and  N_10
REMARK    9  A    between atoms: N_21  and  O_22
REMARK                            x       y       z     vdW  Elec       q    Type
REMARK                         _______ _______ _______ _____ _____    ______ ____
ROOT
ATOM      1  C   UNL     1       7.985   7.408  18.299  0.00  0.00    +0.000 C 
ENDROOT
BRANCH   1   2
ATOM      2  C   UNL     1       7.567   8.791  17.796  0.00  0.00    +0.000 C 
BRANCH   2   3
ATOM      3  C   UNL     1       8.719   9.788  17.909  0.00  0.00    +0.000 C 
BRANCH   3   4
ATOM      4  C   UNL     1       9.180   9.956  19.358  0.00  0.00    +0.000 C 
BRANCH   4   5
ATOM      5  C   UNL     1      10.147  11.134  19.486  0.00  0.00    +0.000 C 
BRANCH   5   6
ATOM      6  C   UNL     1       9.694  12.331  18.653  0.00  0.00    +0.000 C 
BRANCH   6   8
ATOM      7  O   UNL     1      11.959  12.483  17.764  0.00  0.00    +0.000 OA
ATOM      8  C   UNL     1      10.782  12.831  17.722  0.00  0.00    +0.000 C 
ATOM      9  N   UNL     1      10.320  13.737  16.797  0.00  0.00    +0.000 N 
ATOM     10  H   UNL     1       9.364  14.057  16.721  0.00  0.00    +0.000 HD
BRANCH   9  11
ATOM     11  O   UNL     1      11.257  14.263  15.884  0.00  0.00    +0.000 OA
ATOM     12  H   UNL     1      11.576  15.069  16.348  0.00  0.00    +0.000 HD
ENDBRANCH   9  11
ENDBRANCH   6   8
ENDBRANCH   5   6
ENDBRANCH   4   5
ENDBRANCH   3   4
ENDBRANCH   2   3
ENDBRANCH   1   2
BRANCH   1  13
ATOM     13  C   UNL     1       7.422   6.305  17.405  0.00  0.00    +0.000 C 
BRANCH  13  14
ATOM     14  N   UNL     1       6.125   5.857  17.865  0.00  0.00    +0.000 N 
ATOM     15  C   UNL     1       4.951   6.084  17.199  0.00  0.00    +0.000 C 
ATOM     16  O   UNL     1       4.760   6.677  16.154  0.00  0.00    +0.000 OA
ATOM     17  C   UNL     1       3.894   5.470  18.003  0.00  0.00    +0.000 A 
ATOM     18  C   UNL     1       2.537   5.366  17.771  0.00  0.00    +0.000 A 
ATOM     19  C   UNL     1       1.774   4.704  18.739  0.00  0.00    +0.000 A 
ATOM     20  C   UNL     1       2.376   4.176  19.901  0.00  0.00    +0.000 A 
ATOM     21  C   UNL     1       3.753   4.293  20.111  0.00  0.00    +0.000 A 
ATOM     22  C   UNL     1       4.485   4.945  19.137  0.00  0.00    +0.000 A 
ATOM     23  C   UNL     1       5.919   5.206  19.051  0.00  0.00    +0.000 C 
ATOM     24  O   UNL     1       6.726   4.887  19.903  0.00  0.00    +0.000 OA
ENDBRANCH  13  14
ENDBRANCH   1  13
TORSDOF 9
ENDMDL
