MODEL 1
REMARK VINA RESULT:      -6.0      0.000      0.000
REMARK  Name = 
REMARK  5 active torsions:
REMARK  status: ('A' for Active; 'I' for Inactive)
REMARK    1  A    between atoms: C_2  and  O_3
REMARK    2  A    between atoms: C_2  and  C_4
REMARK    3  A    between atoms: C_5  and  C_6
REMARK    4  A    between atoms: C_6  and  O_7
REMARK    5  A    between atoms: C_6  and  C_8
REMARK                            x       y       z     vdW  Elec       q    Type
REMARK                         _______ _______ _______ _____ _____    ______ ____
ROOT
ATOM      1  C   UNL     1       4.095   4.500  19.130  0.00  0.00    +0.000 C 
ENDROOT
BRANCH   1   2
ATOM      2  C   UNL     1       2.752   4.618  18.349  0.00  0.00    +0.000 C 
ATOM      3  C   UNL     1       2.490   3.491  17.332  0.00  0.00    +0.000 C 
ATOM      4  C   UNL     1       2.072   2.163  17.957  0.00  0.00    +0.000 C 
ATOM      5  C   UNL     1       0.911   2.296  18.939  0.00  0.00    +0.000 C 
ATOM      6  C   UNL     1       1.074   3.444  19.927  0.00  0.00    +0.000 C 
ATOM      7  C   UNL     1       1.520   4.751  19.274  0.00  0.00    +0.000 C 
ENDBRANCH   1   2
BRANCH   1   9
ATOM      8  C   UNL     1       6.244   5.077  17.861  0.00  0.00    +0.000 C 
ATOM      9  C   UNL     1       5.310   4.191  18.270  0.00  0.00    +0.000 C 
BRANCH   8  11
ATOM     10  O   UNL     1       7.467   4.792  15.829  0.00  0.00    +0.000 OA
ATOM     11  C   UNL     1       7.387   4.629  17.036  0.00  0.00    +0.000 C 
BRANCH  11  12
ATOM     12  O   UNL     1       8.338   4.020  17.763  0.00  0.00    +0.000 OA
ATOM     13  H   UNL     1       8.990   3.491  17.264  0.00  0.00    +0.000 HD
ENDBRANCH  11  12
ENDBRANCH   8  11
ENDBRANCH   1   9
BRANCH   1  14
ATOM     14  O   UNL     1       4.351   5.721  19.825  0.00  0.00    +0.000 OA
ATOM     15  H   UNL     1       3.540   6.257  19.772  0.00  0.00    +0.000 HD
ENDBRANCH   1  14
TORSDOF 5
ENDMDL
MODEL 2
REMARK VINA RESULT:      -5.9      1.301      1.512
REMARK  Name = 
REMARK  5 active torsions:
REMARK  status: ('A' for Active; 'I' for Inactive)
REMARK    1  A    between atoms: C_2  and  O_3
REMARK    2  A    between atoms: C_2  and  C_4
REMARK    3  A    between atoms: C_5  and  C_6
REMARK    4  A    between atoms: C_6  and  O_7
REMARK    5  A    between atoms: C_6  and  C_8
REMARK                            x       y       z     vdW  Elec       q    Type
REMARK                         _______ _______ _______ _____ _____    ______ ____
ROOT
ATOM      1  C   UNL     1       4.230   4.518  18.577  0.00  0.00    +0.000 C 
ENDROOT
BRANCH   1   2
ATOM      2  C   UNL     1       2.785   5.093  18.483  0.00  0.00    +0.000 C 
ATOM      3  C   UNL     1       1.766   4.179  17.779  0.00  0.00    +0.000 C 
ATOM      4  C   UNL     1       1.297   2.993  18.618  0.00  0.00    +0.000 C 
ATOM      5  C   UNL     1       0.807   3.392  20.008  0.00  0.00    +0.000 C 
ATOM      6  C   UNL     1       1.738   4.359  20.730  0.00  0.00    +0.000 C 
ATOM      7  C   UNL     1       2.210   5.518  19.855  0.00  0.00    +0.000 C 
ENDBRANCH   1   2
BRANCH   1   9
ATOM      8  C   UNL     1       5.985   4.941  16.760  0.00  0.00    +0.000 C 
ATOM      9  C   UNL     1       4.910   4.277  17.238  0.00  0.00    +0.000 C 
BRANCH   8  11
ATOM     10  O   UNL     1       6.167   3.653  14.756  0.00  0.00    +0.000 OA
ATOM     11  C   UNL     1       6.553   4.587  15.440  0.00  0.00    +0.000 C 
BRANCH  11  12
ATOM     12  O   UNL     1       7.545   5.413  15.070  0.00  0.00    +0.000 OA
ATOM     13  H   UNL     1       7.274   6.262  14.671  0.00  0.00    +0.000 HD
ENDBRANCH  11  12
ENDBRANCH   8  11
ENDBRANCH   1   9
BRANCH   1  14
ATOM     14  O   UNL     1       5.051   5.412  19.330  0.00  0.00    +0.000 OA
ATOM     15  H   UNL     1       5.798   5.664  18.760  0.00  0.00    +0.000 HD
ENDBRANCH   1  14
TORSDOF 5
ENDMDL
MODEL 3
REMARK VINA RESULT:      -5.8      1.763      2.100
REMARK  Name = 
REMARK  5 active torsions:
REMARK  status: ('A' for Active; 'I' for Inactive)
REMARK    1  A    between atoms: C_2  and  O_3
REMARK    2  A    between atoms: C_2  and  C_4
REMARK    3  A    between atoms: C_5  and  C_6
REMARK    4  A    between atoms: C_6  and  O_7
REMARK    5  A    between atoms: C_6  and  C_8
REMARK                            x       y       z     vdW  Elec       q    Type
REMARK                         _______ _______ _______ _____ _____    ______ ____
ROOT
ATOM      1  C   UNL     1       4.066   4.320  17.419  0.00  0.00    +0.000 C 
ENDROOT
BRANCH   1   2
ATOM      2  C   UNL     1       2.724   3.562  17.188  0.00  0.00    +0.000 C 
ATOM      3  C   UNL     1       2.715   2.097  17.661  0.00  0.00    +0.000 C 
ATOM      4  C   UNL     1       2.613   1.924  19.174  0.00  0.00    +0.000 C 
ATOM      5  C   UNL     1       1.461   2.708  19.796  0.00  0.00    +0.000 C 
ATOM      6  C   UNL     1       1.369   4.149  19.310  0.00  0.00    +0.000 C 
ATOM      7  C   UNL     1       1.502   4.290  17.795  0.00  0.00    +0.000 C 
ENDBRANCH   1   2
BRANCH   1   9
ATOM      8  C   UNL     1       5.480   4.966  15.384  0.00  0.00    +0.000 C 
ATOM      9  C   UNL     1       5.122   4.092  16.350  0.00  0.00    +0.000 C 
BRANCH   8  11
ATOM     10  O   UNL     1       6.420   3.764  13.546  0.00  0.00    +0.000 OA
ATOM     11  C   UNL     1       6.540   4.613  14.414  0.00  0.00    +0.000 C 
BRANCH  11  12
ATOM     12  O   UNL     1       7.658   5.336  14.591  0.00  0.00    +0.000 OA
ATOM     13  H   UNL     1       8.464   4.834  14.819  0.00  0.00    +0.000 HD
ENDBRANCH  11  12
ENDBRANCH   8  11
ENDBRANCH   1   9
BRANCH   1  14
ATOM     14  O   UNL     1       3.813   5.724  17.493  0.00  0.00    +0.000 OA
ATOM     15  H   UNL     1       4.628   6.145  17.818  0.00  0.00    +0.000 HD
ENDBRANCH   1  14
TORSDOF 5
ENDMDL
MODEL 4
REMARK VINA RESULT:      -5.8      1.312      1.379
REMARK  Name = 
REMARK  5 active torsions:
REMARK  status: ('A' for Active; 'I' for Inactive)
REMARK    1  A    between atoms: C_2  and  O_3
REMARK    2  A    between atoms: C_2  and  C_4
REMARK    3  A    between atoms: C_5  and  C_6
REMARK    4  A    between atoms: C_6  and  O_7
REMARK    5  A    between atoms: C_6  and  C_8
REMARK                            x       y       z     vdW  Elec       q    Type
REMARK                         _______ _______ _______ _____ _____    ______ ____
ROOT
ATOM      1  C   UNL     1       3.951   4.951  18.091  0.00  0.00    +0.000 C 
ENDROOT
BRANCH   1   2
ATOM      2  C   UNL     1       2.991   3.884  17.484  0.00  0.00    +0.000 C 
ATOM      3  C   UNL     1       3.366   2.422  17.791  0.00  0.00    +0.000 C 
ATOM      4  C   UNL     1       3.047   1.977  19.216  0.00  0.00    +0.000 C 
ATOM      5  C   UNL     1       1.609   2.274  19.634  0.00  0.00    +0.000 C 
ATOM      6  C   UNL     1       1.150   3.685  19.288  0.00  0.00    +0.000 C 
ATOM      7  C   UNL     1       1.510   4.110  17.865  0.00  0.00    +0.000 C 
ENDBRANCH   1   2
BRANCH   1   9
ATOM      8  C   UNL     1       5.696   4.873  16.218  0.00  0.00    +0.000 C 
ATOM      9  C   UNL     1       5.362   4.938  17.525  0.00  0.00    +0.000 C 
BRANCH   8  11
ATOM     10  O   UNL     1       7.522   5.323  14.746  0.00  0.00    +0.000 OA
ATOM     11  C   UNL     1       7.118   4.884  15.810  0.00  0.00    +0.000 C 
BRANCH  11  12
ATOM     12  O   UNL     1       7.925   4.357  16.745  0.00  0.00    +0.000 OA
ATOM     13  H   UNL     1       8.792   4.791  16.861  0.00  0.00    +0.000 HD
ENDBRANCH  11  12
ENDBRANCH   8  11
ENDBRANCH   1   9
BRANCH   1  14
ATOM     14  O   UNL     1       3.407   6.255  17.881  0.00  0.00    +0.000 OA
ATOM     15  H   UNL     1       4.096   6.785  17.443  0.00  0.00    +0.000 HD
ENDBRANCH   1  14
TORSDOF 5
ENDMDL
MODEL 5
REMARK VINA RESULT:      -5.8      1.261      1.783
REMARK  Name = 
REMARK  5 active torsions:
REMARK  status: ('A' for Active; 'I' for Inactive)
REMARK    1  A    between atoms: C_2  and  O_3
REMARK    2  A    between atoms: C_2  and  C_4
REMARK    3  A    between atoms: C_5  and  C_6
REMARK    4  A    between atoms: C_6  and  O_7
REMARK    5  A    between atoms: C_6  and  C_8
REMARK                            x       y       z     vdW  Elec       q    Type
REMARK                         _______ _______ _______ _____ _____    ______ ____
ROOT
ATOM      1  C   UNL     1       3.901   5.137  18.870  0.00  0.00    +0.000 C 
ENDROOT
BRANCH   1   2
ATOM      2  C   UNL     1       3.145   3.799  18.611  0.00  0.00    +0.000 C 
ATOM      3  C   UNL     1       3.549   2.635  19.534  0.00  0.00    +0.000 C 
ATOM      4  C   UNL     1       2.997   2.735  20.953  0.00  0.00    +0.000 C 
ATOM      5  C   UNL     1       1.490   2.974  21.000  0.00  0.00    +0.000 C 
ATOM      6  C   UNL     1       1.014   4.066  20.050  0.00  0.00    +0.000 C 
ATOM      7  C   UNL     1       1.607   3.953  18.647  0.00  0.00    +0.000 C 
ENDBRANCH   1   2
BRANCH   1   9
ATOM      8  C   UNL     1       5.763   4.692  17.168  0.00  0.00    +0.000 C 
ATOM      9  C   UNL     1       5.331   5.173  18.354  0.00  0.00    +0.000 C 
BRANCH   8  11
ATOM     10  O   UNL     1       8.094   4.196  17.328  0.00  0.00    +0.000 OA
ATOM     11  C   UNL     1       7.188   4.811  16.789  0.00  0.00    +0.000 C 
BRANCH  11  12
ATOM     12  O   UNL     1       7.380   5.673  15.778  0.00  0.00    +0.000 OA
ATOM     13  H   UNL     1       7.716   5.292  14.944  0.00  0.00    +0.000 HD
ENDBRANCH  11  12
ENDBRANCH   8  11
ENDBRANCH   1   9
BRANCH   1  14
ATOM     14  O   UNL     1       3.188   6.213  18.259  0.00  0.00    +0.000 OA
ATOM     15  H   UNL     1       2.793   6.739  18.976  0.00  0.00    +0.000 HD
ENDBRANCH   1  14
TORSDOF 5
ENDMDL
MODEL 6
REMARK VINA RESULT:      -5.8      1.717      2.123
REMARK  Name = 
REMARK  5 active torsions:
REMARK  status: ('A' for Active; 'I' for Inactive)
REMARK    1  A    between atoms: C_2  and  O_3
REMARK    2  A    between atoms: C_2  and  C_4
REMARK    3  A    between atoms: C_5  and  C_6
REMARK    4  A    between atoms: C_6  and  O_7
REMARK    5  A    between atoms: C_6  and  C_8
REMARK                            x       y       z     vdW  Elec       q    Type
REMARK                         _______ _______ _______ _____ _____    ______ ____
ROOT
ATOM      1  C   UNL     1       3.565   4.713  18.619  0.00  0.00    +0.000 C 
ENDROOT
BRANCH   1   2
ATOM      2  C   UNL     1       2.789   3.362  18.625  0.00  0.00    +0.000 C 
ATOM      3  C   UNL     1       3.278   2.335  19.664  0.00  0.00    +0.000 C 
ATOM      4  C   UNL     1       2.861   2.643  21.099  0.00  0.00    +0.000 C 
ATOM      5  C   UNL     1       1.365   2.905  21.251  0.00  0.00    +0.000 C 
ATOM      6  C   UNL     1       0.801   3.858  20.203  0.00  0.00    +0.000 C 
ATOM      7  C   UNL     1       1.260   3.539  18.781  0.00  0.00    +0.000 C 
ENDBRANCH   1   2
BRANCH   1   9
ATOM      8  C   UNL     1       5.940   5.395  19.291  0.00  0.00    +0.000 C 
ATOM      9  C   UNL     1       5.079   4.580  18.643  0.00  0.00    +0.000 C 
BRANCH   8  11
ATOM     10  O   UNL     1       7.961   4.587  18.306  0.00  0.00    +0.000 OA
ATOM     11  C   UNL     1       7.396   5.134  19.239  0.00  0.00    +0.000 C 
BRANCH  11  12
ATOM     12  O   UNL     1       8.035   5.570  20.337  0.00  0.00    +0.000 OA
ATOM     13  H   UNL     1       8.049   4.959  21.099  0.00  0.00    +0.000 HD
ENDBRANCH  11  12
ENDBRANCH   8  11
ENDBRANCH   1   9
BRANCH   1  14
ATOM     14  O   UNL     1       3.210   5.461  17.456  0.00  0.00    +0.000 OA
ATOM     15  H   UNL     1       4.034   5.814  17.079  0.00  0.00    +0.000 HD
ENDBRANCH   1  14
TORSDOF 5
ENDMDL
MODEL 7
REMARK VINA RESULT:      -5.8      2.440      5.576
REMARK  Name = 
REMARK  5 active torsions:
REMARK  status: ('A' for Active; 'I' for Inactive)
REMARK    1  A    between atoms: C_2  and  O_3
REMARK    2  A    between atoms: C_2  and  C_4
REMARK    3  A    between atoms: C_5  and  C_6
REMARK    4  A    between atoms: C_6  and  O_7
REMARK    5  A    between atoms: C_6  and  C_8
REMARK                            x       y       z     vdW  Elec       q    Type
REMARK                         _______ _______ _______ _____ _____    ______ ____
ROOT
ATOM      1  C   UNL     1       5.072   4.204  18.712  0.00  0.00    +0.000 C 
ENDROOT
BRANCH   1   2
ATOM      2  C   UNL     1       5.989   4.438  17.474  0.00  0.00    +0.000 C 
ATOM      3  C   UNL     1       5.496   5.520  16.495  0.00  0.00    +0.000 C 
ATOM      4  C   UNL     1       5.698   6.951  16.984  0.00  0.00    +0.000 C 
ATOM      5  C   UNL     1       7.125   7.238  17.443  0.00  0.00    +0.000 C 
ATOM      6  C   UNL     1       7.701   6.163  18.357  0.00  0.00    +0.000 C 
ATOM      7  C   UNL     1       7.457   4.742  17.854  0.00  0.00    +0.000 C 
ENDBRANCH   1   2
BRANCH   1   9
ATOM      8  C   UNL     1       2.790   3.047  18.603  0.00  0.00    +0.000 C 
ATOM      9  C   UNL     1       3.586   4.118  18.400  0.00  0.00    +0.000 C 
BRANCH   8  11
ATOM     10  O   UNL     1       0.498   2.390  18.755  0.00  0.00    +0.000 OA
ATOM     11  C   UNL     1       1.351   3.112  18.265  0.00  0.00    +0.000 C 
BRANCH  11  12
ATOM     12  O   UNL     1       1.080   4.061  17.354  0.00  0.00    +0.000 OA
ATOM     13  H   UNL     1       0.903   3.749  16.446  0.00  0.00    +0.000 HD
ENDBRANCH  11  12
ENDBRANCH   8  11
ENDBRANCH   1   9
BRANCH   1  14
ATOM     14  O   UNL     1       5.453   2.991  19.364  0.00  0.00    +0.000 OA
ATOM     15  H   UNL     1       4.748   2.774  19.999  0.00  0.00    +0.000 HD
ENDBRANCH   1  14
TORSDOF 5
ENDMDL
MODEL 8
REMARK VINA RESULT:      -5.8      1.307      1.667
REMARK  Name = 
REMARK  5 active torsions:
REMARK  status: ('A' for Active; 'I' for Inactive)
REMARK    1  A    between atoms: C_2  and  O_3
REMARK    2  A    between atoms: C_2  and  C_4
REMARK    3  A    between atoms: C_5  and  C_6
REMARK    4  A    between atoms: C_6  and  O_7
REMARK    5  A    between atoms: C_6  and  C_8
REMARK                            x       y       z     vdW  Elec       q    Type
REMARK                         _______ _______ _______ _____ _____    ______ ____
ROOT
ATOM      1  C   UNL     1       4.483   4.176  18.316  0.00  0.00    +0.000 C 
ENDROOT
BRANCH   1   2
ATOM      2  C   UNL     1       3.024   4.395  17.815  0.00  0.00    +0.000 C 
ATOM      3  C   UNL     1       2.252   3.107  17.475  0.00  0.00    +0.000 C 
ATOM      4  C   UNL     1       1.773   2.320  18.692  0.00  0.00    +0.000 C 
ATOM      5  C   UNL     1       1.003   3.170  19.698  0.00  0.00    +0.000 C 
ATOM      6  C   UNL     1       1.678   4.498  20.021  0.00  0.00    +0.000 C 
ATOM      7  C   UNL     1       2.170   5.247  18.784  0.00  0.00    +0.000 C 
ENDBRANCH   1   2
BRANCH   1   9
ATOM      8  C   UNL     1       5.362   4.553  15.940  0.00  0.00    +0.000 C 
ATOM      9  C   UNL     1       5.539   4.168  17.222  0.00  0.00    +0.000 C 
BRANCH   8  11
ATOM     10  O   UNL     1       7.423   5.294  14.985  0.00  0.00    +0.000 OA
ATOM     11  C   UNL     1       6.491   4.506  14.984  0.00  0.00    +0.000 C 
BRANCH  11  12
ATOM     12  O   UNL     1       6.381   3.494  14.110  0.00  0.00    +0.000 OA
ATOM     13  H   UNL     1       5.902   2.703  14.423  0.00  0.00    +0.000 HD
ENDBRANCH  11  12
ENDBRANCH   8  11
ENDBRANCH   1   9
BRANCH   1  14
ATOM     14  O   UNL     1       4.826   5.201  19.249  0.00  0.00    +0.000 OA
ATOM     15  H   UNL     1       5.770   5.092  19.460  0.00  0.00    +0.000 HD
ENDBRANCH   1  14
TORSDOF 5
ENDMDL
MODEL 9
REMARK VINA RESULT:      -5.7      1.874      2.485
REMARK  Name = 
REMARK  5 active torsions:
REMARK  status: ('A' for Active; 'I' for Inactive)
REMARK    1  A    between atoms: C_2  and  O_3
REMARK    2  A    between atoms: C_2  and  C_4
REMARK    3  A    between atoms: C_5  and  C_6
REMARK    4  A    between atoms: C_6  and  O_7
REMARK    5  A    between atoms: C_6  and  C_8
REMARK                            x       y       z     vdW  Elec       q    Type
REMARK                         _______ _______ _______ _____ _____    ______ ____
ROOT
ATOM      1  C   UNL     1       4.205   4.230  18.369  0.00  0.00    +0.000 C 
ENDROOT
BRANCH   1   2
ATOM      2  C   UNL     1       3.729   2.892  19.009  0.00  0.00    +0.000 C 
ATOM      3  C   UNL     1       3.379   2.975  20.507  0.00  0.00    +0.000 C 
ATOM      4  C   UNL     1       2.046   3.655  20.805  0.00  0.00    +0.000 C 
ATOM      5  C   UNL     1       0.882   3.082  20.002  0.00  0.00    +0.000 C 
ATOM      6  C   UNL     1       1.190   2.903  18.520  0.00  0.00    +0.000 C 
ATOM      7  C   UNL     1       2.543   2.245  18.256  0.00  0.00    +0.000 C 
ENDBRANCH   1   2
BRANCH   1   9
ATOM      8  C   UNL     1       6.483   5.400  18.382  0.00  0.00    +0.000 C 
ATOM      9  C   UNL     1       5.429   4.852  19.023  0.00  0.00    +0.000 C 
BRANCH   8  11
ATOM     10  O   UNL     1       8.290   6.916  18.763  0.00  0.00    +0.000 OA
ATOM     11  C   UNL     1       7.604   5.985  19.152  0.00  0.00    +0.000 C 
BRANCH  11  12
ATOM     12  O   UNL     1       7.784   5.378  20.336  0.00  0.00    +0.000 OA
ATOM     13  H   UNL     1       7.019   5.377  20.941  0.00  0.00    +0.000 HD
ENDBRANCH  11  12
ENDBRANCH   8  11
ENDBRANCH   1   9
BRANCH   1  14
ATOM     14  O   UNL     1       4.507   4.018  16.990  0.00  0.00    +0.000 OA
ATOM     15  H   UNL     1       4.327   4.854  16.525  0.00  0.00    +0.000 HD
ENDBRANCH   1  14
TORSDOF 5
ENDMDL
