MODEL 1
REMARK VINA RESULT:      -7.8      0.000      0.000
REMARK  Name = 
REMARK  12 active torsions:
REMARK  status: ('A' for Active; 'I' for Inactive)
REMARK    1  A    between atoms: C_1  and  C_2
REMARK    2  A    between atoms: C_2  and  O_3
REMARK    3  A    between atoms: O_3  and  C_4
REMARK    4  A    between atoms: C_4  and  C_6
REMARK    5  A    between atoms: C_7  and  C_8
REMARK    6  A    between atoms: C_13  and  O_14
REMARK    7  A    between atoms: O_14  and  C_15
REMARK    8  A    between atoms: C_15  and  C_16
REMARK    9  A    between atoms: C_18  and  C_19
REMARK   10  A    between atoms: C_19  and  O_21
REMARK   11  A    between atoms: O_21  and  C_22
REMARK   12  A    between atoms: C_24  and  C_25
REMARK                            x       y       z     vdW  Elec       q    Type
REMARK                         _______ _______ _______ _____ _____    ______ ____
ROOT
ATOM      1  C   UNL     1       6.538   4.184  13.591  0.00  0.00    +0.000 A 
ATOM      2  C   UNL     1       7.597   5.078  13.545  0.00  0.00    +0.000 A 
ATOM      3  C   UNL     1       8.519   5.534  12.482  0.00  0.00    +0.000 C 
ATOM      4  O   UNL     1       7.776   5.671  14.763  0.00  0.00    +0.000 OA
ATOM      5  C   UNL     1       6.840   5.162  15.605  0.00  0.00    +0.000 A 
ATOM      6  C   UNL     1       6.660   5.520  16.940  0.00  0.00    +0.000 A 
ATOM      7  C   UNL     1       5.617   4.879  17.626  0.00  0.00    +0.000 A 
ATOM      8  C   UNL     1       4.806   3.934  16.993  0.00  0.00    +0.000 A 
ATOM      9  C   UNL     1       5.044   3.578  15.662  0.00  0.00    +0.000 A 
ATOM     10  C   UNL     1       6.067   4.222  14.942  0.00  0.00    +0.000 A 
ENDROOT
BRANCH   1  11
ATOM     11  C   UNL     1       5.988   3.445  12.468  0.00  0.00    +0.000 C 
ATOM     12  O   UNL     1       6.646   2.714  11.738  0.00  0.00    +0.000 OA
BRANCH  11  13
ATOM     13  O   UNL     1       4.676   3.755  12.249  0.00  0.00    +0.000 OA
BRANCH  13  15
ATOM     14  C   UNL     1       3.455   3.869  10.203  0.00  0.00    +0.000 C 
ATOM     15  C   UNL     1       3.984   2.949  11.290  0.00  0.00    +0.000 C 
ENDBRANCH  13  15
ENDBRANCH  11  13
ENDBRANCH   1  11
BRANCH   8  16
ATOM     16  O   UNL     1       3.796   3.398  17.747  0.00  0.00    +0.000 OA
BRANCH  16  17
ATOM     17  C   UNL     1       3.984   3.488  19.168  0.00  0.00    +0.000 C 
BRANCH  17  18
ATOM     18  C   UNL     1       3.130   4.557  19.747  0.00  0.00    +0.000 A 
ATOM     19  C   UNL     1       3.021   5.916  19.341  0.00  0.00    +0.000 A 
ATOM     20  C   UNL     1       2.127   6.524  20.205  0.00  0.00    +0.000 A 
ATOM     21  O   UNL     1       1.688   5.604  21.119  0.00  0.00    +0.000 OA
ATOM     22  C   UNL     1       2.296   4.424  20.839  0.00  0.00    +0.000 A 
ATOM     23  C   UNL     1       1.968   3.280  21.715  0.00  0.00    +0.000 C 
BRANCH  20  24
ATOM     24  C   UNL     1       1.644   7.881  20.268  0.00  0.00    +0.000 C 
ATOM     25  O   UNL     1       1.658   8.690  19.344  0.00  0.00    +0.000 OA
BRANCH  24  26
ATOM     26  O   UNL     1       1.166   8.143  21.520  0.00  0.00    +0.000 OA
ATOM     27  C   UNL     1      -0.188   8.577  21.564  0.00  0.00    +0.000 C 
ENDBRANCH  24  26
ENDBRANCH  20  24
ENDBRANCH  17  18
ENDBRANCH  16  17
ENDBRANCH   8  16
TORSDOF 8
ENDMDL
MODEL 2
REMARK VINA RESULT:      -7.6      1.741      8.059
REMARK  Name = 
REMARK  12 active torsions:
REMARK  status: ('A' for Active; 'I' for Inactive)
REMARK    1  A    between atoms: C_1  and  C_2
REMARK    2  A    between atoms: C_2  and  O_3
REMARK    3  A    between atoms: O_3  and  C_4
REMARK    4  A    between atoms: C_4  and  C_6
REMARK    5  A    between atoms: C_7  and  C_8
REMARK    6  A    between atoms: C_13  and  O_14
REMARK    7  A    between atoms: O_14  and  C_15
REMARK    8  A    between atoms: C_15  and  C_16
REMARK    9  A    between atoms: C_18  and  C_19
REMARK   10  A    between atoms: C_19  and  O_21
REMARK   11  A    between atoms: O_21  and  C_22
REMARK   12  A    between atoms: C_24  and  C_25
REMARK                            x       y       z     vdW  Elec       q    Type
REMARK                         _______ _______ _______ _____ _____    ______ ____
ROOT
ATOM      1  C   UNL     1       3.541   4.326  19.348  0.00  0.00    +0.000 A 
ATOM      2  C   UNL     1       2.437   5.036  19.796  0.00  0.00    +0.000 A 
ATOM      3  C   UNL     1       1.357   4.761  20.769  0.00  0.00    +0.000 C 
ATOM      4  O   UNL     1       2.388   6.268  19.207  0.00  0.00    +0.000 OA
ATOM      5  C   UNL     1       3.455   6.362  18.372  0.00  0.00    +0.000 A 
ATOM      6  C   UNL     1       3.792   7.471  17.597  0.00  0.00    +0.000 A 
ATOM      7  C   UNL     1       4.951   7.359  16.814  0.00  0.00    +0.000 A 
ATOM      8  C   UNL     1       5.722   6.195  16.820  0.00  0.00    +0.000 A 
ATOM      9  C   UNL     1       5.329   5.093  17.586  0.00  0.00    +0.000 A 
ATOM     10  C   UNL     1       4.184   5.184  18.400  0.00  0.00    +0.000 A 
ENDROOT
BRANCH   1  11
ATOM     11  C   UNL     1       3.977   3.024  19.823  0.00  0.00    +0.000 C 
ATOM     12  O   UNL     1       5.129   2.762  20.147  0.00  0.00    +0.000 OA
BRANCH  11  13
ATOM     13  O   UNL     1       2.979   2.096  19.749  0.00  0.00    +0.000 OA
BRANCH  13  15
ATOM     14  C   UNL     1       0.879   2.120  18.617  0.00  0.00    +0.000 C 
ATOM     15  C   UNL     1       2.376   1.911  18.465  0.00  0.00    +0.000 C 
ENDBRANCH  13  15
ENDBRANCH  11  13
ENDBRANCH   1  11
BRANCH   8  16
ATOM     16  O   UNL     1       6.852   6.210  16.045  0.00  0.00    +0.000 OA
BRANCH  16  17
ATOM     17  C   UNL     1       7.383   4.917  15.720  0.00  0.00    +0.000 C 
BRANCH  17  18
ATOM     18  C   UNL     1       6.951   4.494  14.362  0.00  0.00    +0.000 A 
ATOM     19  C   UNL     1       5.925   3.575  14.009  0.00  0.00    +0.000 A 
ATOM     20  C   UNL     1       5.923   3.485  12.628  0.00  0.00    +0.000 A 
ATOM     21  O   UNL     1       6.898   4.302  12.122  0.00  0.00    +0.000 OA
ATOM     22  C   UNL     1       7.514   4.904  13.170  0.00  0.00    +0.000 A 
ATOM     23  C   UNL     1       8.616   5.836  12.851  0.00  0.00    +0.000 C 
BRANCH  20  24
ATOM     24  C   UNL     1       5.105   2.708  11.730  0.00  0.00    +0.000 C 
ATOM     25  O   UNL     1       5.434   1.653  11.194  0.00  0.00    +0.000 OA
BRANCH  24  26
ATOM     26  O   UNL     1       3.898   3.321  11.556  0.00  0.00    +0.000 OA
ATOM     27  C   UNL     1       3.522   3.526  10.200  0.00  0.00    +0.000 C 
ENDBRANCH  24  26
ENDBRANCH  20  24
ENDBRANCH  17  18
ENDBRANCH  16  17
ENDBRANCH   8  16
TORSDOF 8
ENDMDL
MODEL 3
REMARK VINA RESULT:      -7.6      3.041      9.423
REMARK  Name = 
REMARK  12 active torsions:
REMARK  status: ('A' for Active; 'I' for Inactive)
REMARK    1  A    between atoms: C_1  and  C_2
REMARK    2  A    between atoms: C_2  and  O_3
REMARK    3  A    between atoms: O_3  and  C_4
REMARK    4  A    between atoms: C_4  and  C_6
REMARK    5  A    between atoms: C_7  and  C_8
REMARK    6  A    between atoms: C_13  and  O_14
REMARK    7  A    between atoms: O_14  and  C_15
REMARK    8  A    between atoms: C_15  and  C_16
REMARK    9  A    between atoms: C_18  and  C_19
REMARK   10  A    between atoms: C_19  and  O_21
REMARK   11  A    between atoms: O_21  and  C_22
REMARK   12  A    between atoms: C_24  and  C_25
REMARK                            x       y       z     vdW  Elec       q    Type
REMARK                         _______ _______ _______ _____ _____    ______ ____
ROOT
ATOM      1  C   UNL     1      -1.065  11.482  19.883  0.00  0.00    +0.000 A 
ATOM      2  C   UNL     1      -1.677  11.911  21.051  0.00  0.00    +0.000 A 
ATOM      3  C   UNL     1      -2.698  12.932  21.366  0.00  0.00    +0.000 C 
ATOM      4  O   UNL     1      -1.234  11.183  22.119  0.00  0.00    +0.000 OA
ATOM      5  C   UNL     1      -0.329  10.283  21.652  0.00  0.00    +0.000 A 
ATOM      6  C   UNL     1       0.344   9.329  22.413  0.00  0.00    +0.000 A 
ATOM      7  C   UNL     1       1.227   8.485  21.722  0.00  0.00    +0.000 A 
ATOM      8  C   UNL     1       1.412   8.601  20.342  0.00  0.00    +0.000 A 
ATOM      9  C   UNL     1       0.742   9.595  19.623  0.00  0.00    +0.000 A 
ATOM     10  C   UNL     1      -0.167  10.441  20.284  0.00  0.00    +0.000 A 
ENDROOT
BRANCH   1  11
ATOM     11  C   UNL     1      -1.356  11.947  18.538  0.00  0.00    +0.000 C 
ATOM     12  O   UNL     1      -0.636  12.710  17.904  0.00  0.00    +0.000 OA
BRANCH  11  13
ATOM     13  O   UNL     1      -2.584  11.532  18.111  0.00  0.00    +0.000 OA
BRANCH  13  15
ATOM     14  C   UNL     1      -2.515  10.049  16.243  0.00  0.00    +0.000 C 
ATOM     15  C   UNL     1      -2.698  10.152  17.748  0.00  0.00    +0.000 C 
ENDBRANCH  13  15
ENDBRANCH  11  13
ENDBRANCH   1  11
BRANCH   8  16
ATOM     16  O   UNL     1       2.270   7.702  19.767  0.00  0.00    +0.000 OA
BRANCH  16  17
ATOM     17  C   UNL     1       2.422   7.831  18.345  0.00  0.00    +0.000 C 
BRANCH  17  18
ATOM     18  C   UNL     1       3.365   6.808  17.820  0.00  0.00    +0.000 A 
ATOM     19  C   UNL     1       4.670   7.002  17.288  0.00  0.00    +0.000 A 
ATOM     20  C   UNL     1       5.135   5.758  16.900  0.00  0.00    +0.000 A 
ATOM     21  O   UNL     1       4.178   4.816  17.167  0.00  0.00    +0.000 OA
ATOM     22  C   UNL     1       3.116   5.454  17.718  0.00  0.00    +0.000 A 
ATOM     23  C   UNL     1       1.952   4.620  18.084  0.00  0.00    +0.000 C 
BRANCH  20  24
ATOM     24  C   UNL     1       6.383   5.359  16.298  0.00  0.00    +0.000 C 
ATOM     25  O   UNL     1       7.382   6.064  16.187  0.00  0.00    +0.000 OA
BRANCH  24  26
ATOM     26  O   UNL     1       6.293   4.068  15.862  0.00  0.00    +0.000 OA
ATOM     27  C   UNL     1       6.071   3.924  14.464  0.00  0.00    +0.000 C 
ENDBRANCH  24  26
ENDBRANCH  20  24
ENDBRANCH  17  18
ENDBRANCH  16  17
ENDBRANCH   8  16
TORSDOF 8
ENDMDL
MODEL 4
REMARK VINA RESULT:      -7.6      2.707      5.438
REMARK  Name = 
REMARK  12 active torsions:
REMARK  status: ('A' for Active; 'I' for Inactive)
REMARK    1  A    between atoms: C_1  and  C_2
REMARK    2  A    between atoms: C_2  and  O_3
REMARK    3  A    between atoms: O_3  and  C_4
REMARK    4  A    between atoms: C_4  and  C_6
REMARK    5  A    between atoms: C_7  and  C_8
REMARK    6  A    between atoms: C_13  and  O_14
REMARK    7  A    between atoms: O_14  and  C_15
REMARK    8  A    between atoms: C_15  and  C_16
REMARK    9  A    between atoms: C_18  and  C_19
REMARK   10  A    between atoms: C_19  and  O_21
REMARK   11  A    between atoms: O_21  and  C_22
REMARK   12  A    between atoms: C_24  and  C_25
REMARK                            x       y       z     vdW  Elec       q    Type
REMARK                         _______ _______ _______ _____ _____    ______ ____
ROOT
ATOM      1  C   UNL     1       4.555   5.409  16.917  0.00  0.00    +0.000 A 
ATOM      2  C   UNL     1       4.866   4.117  16.523  0.00  0.00    +0.000 A 
ATOM      3  C   UNL     1       5.803   3.534  15.539  0.00  0.00    +0.000 C 
ATOM      4  O   UNL     1       4.150   3.209  17.251  0.00  0.00    +0.000 OA
ATOM      5  C   UNL     1       3.367   3.906  18.116  0.00  0.00    +0.000 A 
ATOM      6  C   UNL     1       2.499   3.358  19.059  0.00  0.00    +0.000 A 
ATOM      7  C   UNL     1       1.796   4.265  19.865  0.00  0.00    +0.000 A 
ATOM      8  C   UNL     1       1.965   5.644  19.724  0.00  0.00    +0.000 A 
ATOM      9  C   UNL     1       2.820   6.153  18.742  0.00  0.00    +0.000 A 
ATOM     10  C   UNL     1       3.557   5.267  17.934  0.00  0.00    +0.000 A 
ENDROOT
BRANCH   1  11
ATOM     11  C   UNL     1       5.186   6.629  16.442  0.00  0.00    +0.000 C 
ATOM     12  O   UNL     1       5.212   6.976  15.268  0.00  0.00    +0.000 OA
BRANCH  11  13
ATOM     13  O   UNL     1       5.851   7.279  17.442  0.00  0.00    +0.000 OA
BRANCH  13  15
ATOM     14  C   UNL     1       7.657   6.072  18.429  0.00  0.00    +0.000 C 
ATOM     15  C   UNL     1       7.277   7.160  17.438  0.00  0.00    +0.000 C 
ENDBRANCH  13  15
ENDBRANCH  11  13
ENDBRANCH   1  11
BRANCH   8  16
ATOM     16  O   UNL     1       1.255   6.435  20.589  0.00  0.00    +0.000 OA
BRANCH  16  17
ATOM     17  C   UNL     1       2.004   7.500  21.193  0.00  0.00    +0.000 C 
BRANCH  17  18
ATOM     18  C   UNL     1       1.189   8.742  21.269  0.00  0.00    +0.000 A 
ATOM     19  C   UNL     1       0.547   9.307  22.405  0.00  0.00    +0.000 A 
ATOM     20  C   UNL     1      -0.116  10.441  21.970  0.00  0.00    +0.000 A 
ATOM     21  O   UNL     1       0.088  10.593  20.625  0.00  0.00    +0.000 OA
ATOM     22  C   UNL     1       0.872   9.567  20.209  0.00  0.00    +0.000 A 
ATOM     23  C   UNL     1       1.217   9.531  18.773  0.00  0.00    +0.000 C 
BRANCH  20  24
ATOM     24  C   UNL     1      -0.928  11.396  22.683  0.00  0.00    +0.000 C 
ATOM     25  O   UNL     1      -1.932  11.133  23.338  0.00  0.00    +0.000 OA
BRANCH  24  26
ATOM     26  O   UNL     1      -0.416  12.651  22.520  0.00  0.00    +0.000 OA
ATOM     27  C   UNL     1      -1.114  13.676  23.214  0.00  0.00    +0.000 C 
ENDBRANCH  24  26
ENDBRANCH  20  24
ENDBRANCH  17  18
ENDBRANCH  16  17
ENDBRANCH   8  16
TORSDOF 8
ENDMDL
MODEL 5
REMARK VINA RESULT:      -7.6      1.693      8.319
REMARK  Name = 
REMARK  12 active torsions:
REMARK  status: ('A' for Active; 'I' for Inactive)
REMARK    1  A    between atoms: C_1  and  C_2
REMARK    2  A    between atoms: C_2  and  O_3
REMARK    3  A    between atoms: O_3  and  C_4
REMARK    4  A    between atoms: C_4  and  C_6
REMARK    5  A    between atoms: C_7  and  C_8
REMARK    6  A    between atoms: C_13  and  O_14
REMARK    7  A    between atoms: O_14  and  C_15
REMARK    8  A    between atoms: C_15  and  C_16
REMARK    9  A    between atoms: C_18  and  C_19
REMARK   10  A    between atoms: C_19  and  O_21
REMARK   11  A    between atoms: O_21  and  C_22
REMARK   12  A    between atoms: C_24  and  C_25
REMARK                            x       y       z     vdW  Elec       q    Type
REMARK                         _______ _______ _______ _____ _____    ______ ____
ROOT
ATOM      1  C   UNL     1       1.664   8.439  19.304  0.00  0.00    +0.000 A 
ATOM      2  C   UNL     1       1.289   8.522  20.637  0.00  0.00    +0.000 A 
ATOM      3  C   UNL     1       0.711   9.589  21.483  0.00  0.00    +0.000 C 
ATOM      4  O   UNL     1       1.483   7.325  21.265  0.00  0.00    +0.000 OA
ATOM      5  C   UNL     1       1.989   6.460  20.347  0.00  0.00    +0.000 A 
ATOM      6  C   UNL     1       2.306   5.122  20.570  0.00  0.00    +0.000 A 
ATOM      7  C   UNL     1       2.803   4.403  19.473  0.00  0.00    +0.000 A 
ATOM      8  C   UNL     1       2.966   5.007  18.224  0.00  0.00    +0.000 A 
ATOM      9  C   UNL     1       2.669   6.362  18.052  0.00  0.00    +0.000 A 
ATOM     10  C   UNL     1       2.146   7.103  19.128  0.00  0.00    +0.000 A 
ENDROOT
BRANCH   1  11
ATOM     11  C   UNL     1       1.509   9.477  18.300  0.00  0.00    +0.000 C 
ATOM     12  O   UNL     1       2.338   9.725  17.434  0.00  0.00    +0.000 OA
BRANCH  11  13
ATOM     13  O   UNL     1       0.385  10.224  18.512  0.00  0.00    +0.000 OA
BRANCH  13  15
ATOM     14  C   UNL     1      -1.993  10.333  18.359  0.00  0.00    +0.000 C 
ATOM     15  C   UNL     1      -0.710   9.990  17.621  0.00  0.00    +0.000 C 
ENDBRANCH  13  15
ENDBRANCH  11  13
ENDBRANCH   1  11
BRANCH   8  16
ATOM     16  O   UNL     1       3.425   4.202  17.215  0.00  0.00    +0.000 OA
BRANCH  16  17
ATOM     17  C   UNL     1       4.714   3.613  17.445  0.00  0.00    +0.000 C 
BRANCH  17  18
ATOM     18  C   UNL     1       5.710   4.123  16.466  0.00  0.00    +0.000 A 
ATOM     19  C   UNL     1       5.635   4.115  15.046  0.00  0.00    +0.000 A 
ATOM     20  C   UNL     1       6.815   4.666  14.577  0.00  0.00    +0.000 A 
ATOM     21  O   UNL     1       7.606   5.007  15.642  0.00  0.00    +0.000 OA
ATOM     22  C   UNL     1       6.937   4.677  16.774  0.00  0.00    +0.000 A 
ATOM     23  C   UNL     1       7.615   4.957  18.057  0.00  0.00    +0.000 C 
BRANCH  20  24
ATOM     24  C   UNL     1       7.283   4.901  13.235  0.00  0.00    +0.000 C 
ATOM     25  O   UNL     1       8.230   5.617  12.922  0.00  0.00    +0.000 OA
BRANCH  24  26
ATOM     26  O   UNL     1       6.512   4.206  12.348  0.00  0.00    +0.000 OA
ATOM     27  C   UNL     1       7.134   3.057  11.786  0.00  0.00    +0.000 C 
ENDBRANCH  24  26
ENDBRANCH  20  24
ENDBRANCH  17  18
ENDBRANCH  16  17
ENDBRANCH   8  16
TORSDOF 8
ENDMDL
MODEL 6
REMARK VINA RESULT:      -7.6      1.795      8.270
REMARK  Name = 
REMARK  12 active torsions:
REMARK  status: ('A' for Active; 'I' for Inactive)
REMARK    1  A    between atoms: C_1  and  C_2
REMARK    2  A    between atoms: C_2  and  O_3
REMARK    3  A    between atoms: O_3  and  C_4
REMARK    4  A    between atoms: C_4  and  C_6
REMARK    5  A    between atoms: C_7  and  C_8
REMARK    6  A    between atoms: C_13  and  O_14
REMARK    7  A    between atoms: O_14  and  C_15
REMARK    8  A    between atoms: C_15  and  C_16
REMARK    9  A    between atoms: C_18  and  C_19
REMARK   10  A    between atoms: C_19  and  O_21
REMARK   11  A    between atoms: O_21  and  C_22
REMARK   12  A    between atoms: C_24  and  C_25
REMARK                            x       y       z     vdW  Elec       q    Type
REMARK                         _______ _______ _______ _____ _____    ______ ____
ROOT
ATOM      1  C   UNL     1       1.838   8.342  19.289  0.00  0.00    +0.000 A 
ATOM      2  C   UNL     1       1.087   8.550  20.436  0.00  0.00    +0.000 A 
ATOM      3  C   UNL     1       0.275   9.674  20.949  0.00  0.00    +0.000 C 
ATOM      4  O   UNL     1       1.098   7.435  21.225  0.00  0.00    +0.000 OA
ATOM      5  C   UNL     1       1.861   6.501  20.599  0.00  0.00    +0.000 A 
ATOM      6  C   UNL     1       2.110   5.208  21.056  0.00  0.00    +0.000 A 
ATOM      7  C   UNL     1       2.915   4.399  20.240  0.00  0.00    +0.000 A 
ATOM      8  C   UNL     1       3.433   4.874  19.033  0.00  0.00    +0.000 A 
ATOM      9  C   UNL     1       3.187   6.189  18.629  0.00  0.00    +0.000 A 
ATOM     10  C   UNL     1       2.363   7.016  19.414  0.00  0.00    +0.000 A 
ENDROOT
BRANCH   1  11
ATOM     11  C   UNL     1       1.976   9.261  18.172  0.00  0.00    +0.000 C 
ATOM     12  O   UNL     1       2.520   8.977  17.112  0.00  0.00    +0.000 OA
BRANCH  11  13
ATOM     13  O   UNL     1       1.536  10.515  18.488  0.00  0.00    +0.000 OA
BRANCH  13  15
ATOM     14  C   UNL     1       1.848  12.867  18.737  0.00  0.00    +0.000 C 
ATOM     15  C   UNL     1       2.367  11.602  18.073  0.00  0.00    +0.000 C 
ENDBRANCH  13  15
ENDBRANCH  11  13
ENDBRANCH   1  11
BRANCH   8  16
ATOM     16  O   UNL     1       4.177   3.987  18.300  0.00  0.00    +0.000 OA
BRANCH  16  17
ATOM     17  C   UNL     1       5.599   4.125  18.439  0.00  0.00    +0.000 C 
BRANCH  17  18
ATOM     18  C   UNL     1       6.207   4.631  17.180  0.00  0.00    +0.000 A 
ATOM     19  C   UNL     1       6.085   4.099  15.866  0.00  0.00    +0.000 A 
ATOM     20  C   UNL     1       6.858   4.893  15.037  0.00  0.00    +0.000 A 
ATOM     21  O   UNL     1       7.446   5.881  15.782  0.00  0.00    +0.000 OA
ATOM     22  C   UNL     1       7.052   5.716  17.069  0.00  0.00    +0.000 A 
ATOM     23  C   UNL     1       7.578   6.681  18.057  0.00  0.00    +0.000 C 
BRANCH  20  24
ATOM     24  C   UNL     1       7.109   4.821  13.620  0.00  0.00    +0.000 C 
ATOM     25  O   UNL     1       7.939   5.485  13.005  0.00  0.00    +0.000 OA
BRANCH  24  26
ATOM     26  O   UNL     1       6.279   3.899  13.050  0.00  0.00    +0.000 OA
ATOM     27  C   UNL     1       6.795   3.271  11.883  0.00  0.00    +0.000 C 
ENDBRANCH  24  26
ENDBRANCH  20  24
ENDBRANCH  17  18
ENDBRANCH  16  17
ENDBRANCH   8  16
TORSDOF 8
ENDMDL
MODEL 7
REMARK VINA RESULT:      -7.6      3.843      7.095
REMARK  Name = 
REMARK  12 active torsions:
REMARK  status: ('A' for Active; 'I' for Inactive)
REMARK    1  A    between atoms: C_1  and  C_2
REMARK    2  A    between atoms: C_2  and  O_3
REMARK    3  A    between atoms: O_3  and  C_4
REMARK    4  A    between atoms: C_4  and  C_6
REMARK    5  A    between atoms: C_7  and  C_8
REMARK    6  A    between atoms: C_13  and  O_14
REMARK    7  A    between atoms: O_14  and  C_15
REMARK    8  A    between atoms: C_15  and  C_16
REMARK    9  A    between atoms: C_18  and  C_19
REMARK   10  A    between atoms: C_19  and  O_21
REMARK   11  A    between atoms: O_21  and  C_22
REMARK   12  A    between atoms: C_24  and  C_25
REMARK                            x       y       z     vdW  Elec       q    Type
REMARK                         _______ _______ _______ _____ _____    ______ ____
ROOT
ATOM      1  C   UNL     1       4.026   5.503  18.077  0.00  0.00    +0.000 A 
ATOM      2  C   UNL     1       3.974   4.486  19.017  0.00  0.00    +0.000 A 
ATOM      3  C   UNL     1       4.626   3.165  19.147  0.00  0.00    +0.000 C 
ATOM      4  O   UNL     1       3.153   4.832  20.052  0.00  0.00    +0.000 OA
ATOM      5  C   UNL     1       2.663   6.071  19.787  0.00  0.00    +0.000 A 
ATOM      6  C   UNL     1       1.805   6.804  20.605  0.00  0.00    +0.000 A 
ATOM      7  C   UNL     1       1.434   8.076  20.144  0.00  0.00    +0.000 A 
ATOM      8  C   UNL     1       1.909   8.574  18.928  0.00  0.00    +0.000 A 
ATOM      9  C   UNL     1       2.741   7.792  18.122  0.00  0.00    +0.000 A 
ATOM     10  C   UNL     1       3.148   6.521  18.569  0.00  0.00    +0.000 A 
ENDROOT
BRANCH   1  11
ATOM     11  C   UNL     1       4.869   5.539  16.894  0.00  0.00    +0.000 C 
ATOM     12  O   UNL     1       4.810   4.723  15.982  0.00  0.00    +0.000 OA
BRANCH  11  13
ATOM     13  O   UNL     1       5.818   6.518  16.976  0.00  0.00    +0.000 OA
BRANCH  13  15
ATOM     14  C   UNL     1       7.627   6.176  18.493  0.00  0.00    +0.000 C 
ATOM     15  C   UNL     1       7.178   6.080  17.044  0.00  0.00    +0.000 C 
ENDBRANCH  13  15
ENDBRANCH  11  13
ENDBRANCH   1  11
BRANCH   8  16
ATOM     16  O   UNL     1       1.511   9.842  18.594  0.00  0.00    +0.000 OA
BRANCH  16  17
ATOM     17  C   UNL     1       0.522  10.417  19.461  0.00  0.00    +0.000 C 
BRANCH  17  18
ATOM     18  C   UNL     1      -0.664  10.866  18.684  0.00  0.00    +0.000 A 
ATOM     19  C   UNL     1      -1.332  10.190  17.625  0.00  0.00    +0.000 A 
ATOM     20  C   UNL     1      -2.354  11.021  17.199  0.00  0.00    +0.000 A 
ATOM     21  O   UNL     1      -2.339  12.171  17.944  0.00  0.00    +0.000 OA
ATOM     22  C   UNL     1      -1.320  12.072  18.833  0.00  0.00    +0.000 A 
ATOM     23  C   UNL     1      -1.115  13.216  19.745  0.00  0.00    +0.000 C 
BRANCH  20  24
ATOM     24  C   UNL     1      -3.340  10.855  16.162  0.00  0.00    +0.000 C 
ATOM     25  O   UNL     1      -4.545  11.060  16.280  0.00  0.00    +0.000 OA
BRANCH  24  26
ATOM     26  O   UNL     1      -2.736  10.428  15.014  0.00  0.00    +0.000 OA
ATOM     27  C   UNL     1      -3.629  10.024  13.983  0.00  0.00    +0.000 C 
ENDBRANCH  24  26
ENDBRANCH  20  24
ENDBRANCH  17  18
ENDBRANCH  16  17
ENDBRANCH   8  16
TORSDOF 8
ENDMDL
MODEL 8
REMARK VINA RESULT:      -7.5      3.574      6.442
REMARK  Name = 
REMARK  12 active torsions:
REMARK  status: ('A' for Active; 'I' for Inactive)
REMARK    1  A    between atoms: C_1  and  C_2
REMARK    2  A    between atoms: C_2  and  O_3
REMARK    3  A    between atoms: O_3  and  C_4
REMARK    4  A    between atoms: C_4  and  C_6
REMARK    5  A    between atoms: C_7  and  C_8
REMARK    6  A    between atoms: C_13  and  O_14
REMARK    7  A    between atoms: O_14  and  C_15
REMARK    8  A    between atoms: C_15  and  C_16
REMARK    9  A    between atoms: C_18  and  C_19
REMARK   10  A    between atoms: C_19  and  O_21
REMARK   11  A    between atoms: O_21  and  C_22
REMARK   12  A    between atoms: C_24  and  C_25
REMARK                            x       y       z     vdW  Elec       q    Type
REMARK                         _______ _______ _______ _____ _____    ______ ____
ROOT
ATOM      1  C   UNL     1       2.416   3.705  18.501  0.00  0.00    +0.000 A 
ATOM      2  C   UNL     1       3.415   2.833  18.098  0.00  0.00    +0.000 A 
ATOM      3  C   UNL     1       3.573   1.363  18.121  0.00  0.00    +0.000 C 
ATOM      4  O   UNL     1       4.452   3.520  17.532  0.00  0.00    +0.000 OA
ATOM      5  C   UNL     1       4.134   4.840  17.570  0.00  0.00    +0.000 A 
ATOM      6  C   UNL     1       4.912   5.883  17.069  0.00  0.00    +0.000 A 
ATOM      7  C   UNL     1       4.383   7.176  17.198  0.00  0.00    +0.000 A 
ATOM      8  C   UNL     1       3.140   7.396  17.796  0.00  0.00    +0.000 A 
ATOM      9  C   UNL     1       2.408   6.324  18.315  0.00  0.00    +0.000 A 
ATOM     10  C   UNL     1       2.902   5.013  18.180  0.00  0.00    +0.000 A 
ENDROOT
BRANCH   1  11
ATOM     11  C   UNL     1       1.122   3.338  19.049  0.00  0.00    +0.000 C 
ATOM     12  O   UNL     1       0.324   2.595  18.489  0.00  0.00    +0.000 OA
BRANCH  11  13
ATOM     13  O   UNL     1       0.848   4.013  20.204  0.00  0.00    +0.000 OA
BRANCH  13  15
ATOM     14  C   UNL     1       1.684   2.469  21.819  0.00  0.00    +0.000 C 
ATOM     15  C   UNL     1       1.804   3.877  21.260  0.00  0.00    +0.000 C 
ENDBRANCH  13  15
ENDBRANCH  11  13
ENDBRANCH   1  11
BRANCH   8  16
ATOM     16  O   UNL     1       2.706   8.695  17.836  0.00  0.00    +0.000 OA
BRANCH  16  17
ATOM     17  C   UNL     1       1.280   8.860  17.828  0.00  0.00    +0.000 C 
BRANCH  17  18
ATOM     18  C   UNL     1       0.856   9.840  18.862  0.00  0.00    +0.000 A 
ATOM     19  C   UNL     1       0.397  11.174  18.678  0.00  0.00    +0.000 A 
ATOM     20  C   UNL     1       0.157  11.694  19.938  0.00  0.00    +0.000 A 
ATOM     21  O   UNL     1       0.449  10.744  20.880  0.00  0.00    +0.000 OA
ATOM     22  C   UNL     1       0.870   9.633  20.227  0.00  0.00    +0.000 A 
ATOM     23  C   UNL     1       1.247   8.472  21.060  0.00  0.00    +0.000 C 
BRANCH  20  24
ATOM     24  C   UNL     1      -0.312  12.992  20.353  0.00  0.00    +0.000 C 
ATOM     25  O   UNL     1      -1.452  13.255  20.729  0.00  0.00    +0.000 OA
BRANCH  24  26
ATOM     26  O   UNL     1       0.703  13.901  20.264  0.00  0.00    +0.000 OA
ATOM     27  C   UNL     1       1.312  14.239  21.504  0.00  0.00    +0.000 C 
ENDBRANCH  24  26
ENDBRANCH  20  24
ENDBRANCH  17  18
ENDBRANCH  16  17
ENDBRANCH   8  16
TORSDOF 8
ENDMDL
MODEL 9
REMARK VINA RESULT:      -7.4      3.673      6.827
REMARK  Name = 
REMARK  12 active torsions:
REMARK  status: ('A' for Active; 'I' for Inactive)
REMARK    1  A    between atoms: C_1  and  C_2
REMARK    2  A    between atoms: C_2  and  O_3
REMARK    3  A    between atoms: O_3  and  C_4
REMARK    4  A    between atoms: C_4  and  C_6
REMARK    5  A    between atoms: C_7  and  C_8
REMARK    6  A    between atoms: C_13  and  O_14
REMARK    7  A    between atoms: O_14  and  C_15
REMARK    8  A    between atoms: C_15  and  C_16
REMARK    9  A    between atoms: C_18  and  C_19
REMARK   10  A    between atoms: C_19  and  O_21
REMARK   11  A    between atoms: O_21  and  C_22
REMARK   12  A    between atoms: C_24  and  C_25
REMARK                            x       y       z     vdW  Elec       q    Type
REMARK                         _______ _______ _______ _____ _____    ______ ____
ROOT
ATOM      1  C   UNL     1       2.541   3.758  18.481  0.00  0.00    +0.000 A 
ATOM      2  C   UNL     1       3.583   2.882  18.215  0.00  0.00    +0.000 A 
ATOM      3  C   UNL     1       3.769   1.423  18.365  0.00  0.00    +0.000 C 
ATOM      4  O   UNL     1       4.640   3.549  17.664  0.00  0.00    +0.000 OA
ATOM      5  C   UNL     1       4.294   4.859  17.575  0.00  0.00    +0.000 A 
ATOM      6  C   UNL     1       5.082   5.880  17.045  0.00  0.00    +0.000 A 
ATOM      7  C   UNL     1       4.521   7.165  17.036  0.00  0.00    +0.000 A 
ATOM      8  C   UNL     1       3.236   7.399  17.532  0.00  0.00    +0.000 A 
ATOM      9  C   UNL     1       2.493   6.353  18.087  0.00  0.00    +0.000 A 
ATOM     10  C   UNL     1       3.021   5.048  18.089  0.00  0.00    +0.000 A 
ENDROOT
BRANCH   1  11
ATOM     11  C   UNL     1       1.221   3.401  18.971  0.00  0.00    +0.000 C 
ATOM     12  O   UNL     1       0.432   2.687  18.364  0.00  0.00    +0.000 OA
BRANCH  11  13
ATOM     13  O   UNL     1       0.917   4.054  20.131  0.00  0.00    +0.000 OA
BRANCH  13  15
ATOM     14  C   UNL     1       1.629   2.500  21.795  0.00  0.00    +0.000 C 
ATOM     15  C   UNL     1       1.838   3.888  21.214  0.00  0.00    +0.000 C 
ENDBRANCH  13  15
ENDBRANCH  11  13
ENDBRANCH   1  11
BRANCH   8  16
ATOM     16  O   UNL     1       2.774   8.686  17.440  0.00  0.00    +0.000 OA
BRANCH  16  17
ATOM     17  C   UNL     1       1.617   8.975  18.240  0.00  0.00    +0.000 C 
BRANCH  17  18
ATOM     18  C   UNL     1       1.458  10.441  18.426  0.00  0.00    +0.000 A 
ATOM     19  C   UNL     1       2.367  11.479  18.078  0.00  0.00    +0.000 A 
ATOM     20  C   UNL     1       1.789  12.671  18.480  0.00  0.00    +0.000 A 
ATOM     21  O   UNL     1       0.575  12.411  19.057  0.00  0.00    +0.000 OA
ATOM     22  C   UNL     1       0.383  11.069  19.024  0.00  0.00    +0.000 A 
ATOM     23  C   UNL     1      -0.877  10.560  19.606  0.00  0.00    +0.000 C 
BRANCH  20  24
ATOM     24  C   UNL     1       2.259  14.030  18.385  0.00  0.00    +0.000 C 
ATOM     25  O   UNL     1       3.387  14.376  18.044  0.00  0.00    +0.000 OA
BRANCH  24  26
ATOM     26  O   UNL     1       1.259  14.891  18.735  0.00  0.00    +0.000 OA
ATOM     27  C   UNL     1       1.564  15.750  19.826  0.00  0.00    +0.000 C 
ENDBRANCH  24  26
ENDBRANCH  20  24
ENDBRANCH  17  18
ENDBRANCH  16  17
ENDBRANCH   8  16
TORSDOF 8
ENDMDL
