MODEL 1
REMARK VINA RESULT:      -7.0      0.000      0.000
REMARK  Name = 
REMARK  10 active torsions:
REMARK  status: ('A' for Active; 'I' for Inactive)
REMARK    1  A    between atoms: C_1  and  C_2
REMARK    2  A    between atoms: C_2  and  O_3
REMARK    3  A    between atoms: O_3  and  C_4
REMARK    4  A    between atoms: C_10  and  C_12
REMARK    5  A    between atoms: C_12  and  N_13
REMARK    6  A    between atoms: C_12  and  C_23
REMARK    7  A    between atoms: C_14  and  C_16
REMARK    8  A    between atoms: C_19  and  C_20
REMARK    9  A    between atoms: C_23  and  C_24
REMARK   10  A    between atoms: C_23  and  C_25
REMARK                            x       y       z     vdW  Elec       q    Type
REMARK                         _______ _______ _______ _____ _____    ______ ____
ROOT
ATOM      1  C   UNL     1       0.718  10.785  19.223  0.00  0.00    +0.000 C 
ENDROOT
BRANCH   1   8
ATOM      2  C   UNL     1       2.189  17.143  18.829  0.00  0.00    +0.000 C 
ATOM      3  O   UNL     1       2.134  18.095  19.607  0.00  0.00    +0.000 OA
ATOM      4  N   UNL     1       2.438  15.839  19.205  0.00  0.00    +0.000 N 
ATOM      5  C   UNL     1       2.552  15.446  20.607  0.00  0.00    +0.000 C 
ATOM      6  C   UNL     1       1.636  14.250  20.971  0.00  0.00    +0.000 C 
ATOM      7  N   UNL     1       1.502  13.207  19.905  0.00  0.00    +0.000 N 
ATOM      8  C   UNL     1       1.143  11.910  20.282  0.00  0.00    +0.000 C 
ATOM      9  O   UNL     1       1.123  11.652  21.492  0.00  0.00    +0.000 OA
ATOM     10  C   UNL     1       1.326  13.774  18.567  0.00  0.00    +0.000 C 
ATOM     11  C   UNL     1       2.482  14.726  18.261  0.00  0.00    +0.000 C 
BRANCH   2  12
ATOM     12  O   UNL     1       2.008  17.262  17.483  0.00  0.00    +0.000 OA
BRANCH  12  14
ATOM     13  C   UNL     1      -0.231  18.103  16.988  0.00  0.00    +0.000 C 
ATOM     14  C   UNL     1       1.261  18.381  16.991  0.00  0.00    +0.000 C 
ENDBRANCH  12  14
ENDBRANCH   2  12
ENDBRANCH   1   8
BRANCH   1  15
ATOM     15  N   UNL     1       1.362   9.418  19.292  0.00  0.00    +0.000 N 
ATOM     16  C   UNL     1       2.041   8.841  18.238  0.00  0.00    +0.000 C 
ATOM     17  O   UNL     1       2.312   9.487  17.220  0.00  0.00    +0.000 OA
ATOM     18  H   UNL     1       1.029   8.805  20.025  0.00  0.00    +0.000 HD
BRANCH  16  19
ATOM     19  C   UNL     1       2.398   7.326  18.255  0.00  0.00    +0.000 C 
ATOM     20  C   UNL     1       3.699   6.868  17.603  0.00  0.00    +0.000 C 
ATOM     21  C   UNL     1       3.872   5.334  17.605  0.00  0.00    +0.000 C 
ATOM     22  C   UNL     1       3.411   4.564  18.860  0.00  0.00    +0.000 C 
ATOM     23  C   UNL     1       2.975   3.131  18.488  0.00  0.00    +0.000 C 
ATOM     24  C   UNL     1       2.290   5.231  19.667  0.00  0.00    +0.000 C 
ATOM     25  C   UNL     1       2.317   6.760  19.675  0.00  0.00    +0.000 C 
ENDBRANCH  16  19
ENDBRANCH   1  15
BRANCH   1  26
ATOM     26  C   UNL     1      -0.851  10.576  19.196  0.00  0.00    +0.000 C 
ATOM     27  C   UNL     1      -1.692  11.768  19.688  0.00  0.00    +0.000 C 
ATOM     28  C   UNL     1      -1.385  10.123  17.829  0.00  0.00    +0.000 C 
ENDBRANCH   1  26
TORSDOF 6
ENDMDL
MODEL 2
REMARK VINA RESULT:      -7.0      5.148      9.921
REMARK  Name = 
REMARK  10 active torsions:
REMARK  status: ('A' for Active; 'I' for Inactive)
REMARK    1  A    between atoms: C_1  and  C_2
REMARK    2  A    between atoms: C_2  and  O_3
REMARK    3  A    between atoms: O_3  and  C_4
REMARK    4  A    between atoms: C_10  and  C_12
REMARK    5  A    between atoms: C_12  and  N_13
REMARK    6  A    between atoms: C_12  and  C_23
REMARK    7  A    between atoms: C_14  and  C_16
REMARK    8  A    between atoms: C_19  and  C_20
REMARK    9  A    between atoms: C_23  and  C_24
REMARK   10  A    between atoms: C_23  and  C_25
REMARK                            x       y       z     vdW  Elec       q    Type
REMARK                         _______ _______ _______ _____ _____    ______ ____
ROOT
ATOM      1  C   UNL     1       3.758   4.731  19.785  0.00  0.00    +0.000 C 
ENDROOT
BRANCH   1   8
ATOM      2  C   UNL     1       6.314   4.211  13.790  0.00  0.00    +0.000 C 
ATOM      3  O   UNL     1       7.228   4.771  13.186  0.00  0.00    +0.000 OA
ATOM      4  N   UNL     1       6.301   3.981  15.150  0.00  0.00    +0.000 N 
ATOM      5  C   UNL     1       7.345   4.496  16.032  0.00  0.00    +0.000 C 
ATOM      6  C   UNL     1       6.777   5.285  17.239  0.00  0.00    +0.000 C 
ATOM      7  N   UNL     1       5.508   4.737  17.814  0.00  0.00    +0.000 N 
ATOM      8  C   UNL     1       5.194   5.036  19.143  0.00  0.00    +0.000 C 
ATOM      9  O   UNL     1       6.064   5.594  19.824  0.00  0.00    +0.000 OA
ATOM     10  C   UNL     1       4.542   4.333  16.791  0.00  0.00    +0.000 C 
ATOM     11  C   UNL     1       5.194   3.327  15.843  0.00  0.00    +0.000 C 
BRANCH   2  12
ATOM     12  O   UNL     1       5.189   3.741  13.180  0.00  0.00    +0.000 OA
BRANCH  12  14
ATOM     13  C   UNL     1       4.016   3.275  11.090  0.00  0.00    +0.000 C 
ATOM     14  C   UNL     1       5.311   3.166  11.873  0.00  0.00    +0.000 C 
ENDBRANCH  12  14
ENDBRANCH   2  12
ENDBRANCH   1   8
BRANCH   1  15
ATOM     15  N   UNL     1       2.812   5.876  20.071  0.00  0.00    +0.000 N 
ATOM     16  C   UNL     1       2.667   6.971  19.242  0.00  0.00    +0.000 C 
ATOM     17  O   UNL     1       3.183   6.997  18.119  0.00  0.00    +0.000 OA
ATOM     18  H   UNL     1       2.507   5.973  21.030  0.00  0.00    +0.000 HD
BRANCH  16  19
ATOM     19  C   UNL     1       1.934   8.251  19.736  0.00  0.00    +0.000 C 
ATOM     20  C   UNL     1       1.193   9.115  18.719  0.00  0.00    +0.000 C 
ATOM     21  C   UNL     1       0.601  10.402  19.332  0.00  0.00    +0.000 C 
ATOM     22  C   UNL     1      -0.012  10.305  20.744  0.00  0.00    +0.000 C 
ATOM     23  C   UNL     1       0.104  11.655  21.481  0.00  0.00    +0.000 C 
ATOM     24  C   UNL     1       0.564   9.200  21.639  0.00  0.00    +0.000 C 
ATOM     25  C   UNL     1       0.998   7.930  20.904  0.00  0.00    +0.000 C 
ENDBRANCH  16  19
ENDBRANCH   1  15
BRANCH   1  26
ATOM     26  C   UNL     1       2.964   3.650  18.943  0.00  0.00    +0.000 C 
ATOM     27  C   UNL     1       3.236   2.182  19.315  0.00  0.00    +0.000 C 
ATOM     28  C   UNL     1       1.446   3.884  18.925  0.00  0.00    +0.000 C 
ENDBRANCH   1  26
TORSDOF 6
ENDMDL
MODEL 3
REMARK VINA RESULT:      -6.8      5.158      9.907
REMARK  Name = 
REMARK  10 active torsions:
REMARK  status: ('A' for Active; 'I' for Inactive)
REMARK    1  A    between atoms: C_1  and  C_2
REMARK    2  A    between atoms: C_2  and  O_3
REMARK    3  A    between atoms: O_3  and  C_4
REMARK    4  A    between atoms: C_10  and  C_12
REMARK    5  A    between atoms: C_12  and  N_13
REMARK    6  A    between atoms: C_12  and  C_23
REMARK    7  A    between atoms: C_14  and  C_16
REMARK    8  A    between atoms: C_19  and  C_20
REMARK    9  A    between atoms: C_23  and  C_24
REMARK   10  A    between atoms: C_23  and  C_25
REMARK                            x       y       z     vdW  Elec       q    Type
REMARK                         _______ _______ _______ _____ _____    ______ ____
ROOT
ATOM      1  C   UNL     1       3.450   4.567  19.524  0.00  0.00    +0.000 C 
ENDROOT
BRANCH   1   8
ATOM      2  C   UNL     1       6.897   4.662  13.969  0.00  0.00    +0.000 C 
ATOM      3  O   UNL     1       7.874   5.292  13.566  0.00  0.00    +0.000 OA
ATOM      4  N   UNL     1       6.685   4.304  15.285  0.00  0.00    +0.000 N 
ATOM      5  C   UNL     1       7.568   4.749  16.360  0.00  0.00    +0.000 C 
ATOM      6  C   UNL     1       6.801   5.411  17.532  0.00  0.00    +0.000 C 
ATOM      7  N   UNL     1       5.477   4.790  17.854  0.00  0.00    +0.000 N 
ATOM      8  C   UNL     1       4.957   4.956  19.140  0.00  0.00    +0.000 C 
ATOM      9  O   UNL     1       5.696   5.460  19.995  0.00  0.00    +0.000 OA
ATOM     10  C   UNL     1       4.689   4.469  16.662  0.00  0.00    +0.000 C 
ATOM     11  C   UNL     1       5.507   3.569  15.737  0.00  0.00    +0.000 C 
BRANCH   2  12
ATOM     12  O   UNL     1       5.892   4.234  13.154  0.00  0.00    +0.000 OA
BRANCH  12  14
ATOM     13  C   UNL     1       4.954   2.804  11.410  0.00  0.00    +0.000 C 
ATOM     14  C   UNL     1       6.202   3.280  12.131  0.00  0.00    +0.000 C 
ENDBRANCH  12  14
ENDBRANCH   2  12
ENDBRANCH   1   8
BRANCH   1  15
ATOM     15  N   UNL     1       2.404   5.655  19.627  0.00  0.00    +0.000 N 
ATOM     16  C   UNL     1       2.493   6.863  18.965  0.00  0.00    +0.000 C 
ATOM     17  O   UNL     1       3.357   7.060  18.105  0.00  0.00    +0.000 OA
ATOM     18  H   UNL     1       1.786   5.604  20.426  0.00  0.00    +0.000 HD
BRANCH  16  19
ATOM     19  C   UNL     1       1.569   8.053  19.354  0.00  0.00    +0.000 C 
ATOM     20  C   UNL     1       1.506   8.491  20.814  0.00  0.00    +0.000 C 
ATOM     21  C   UNL     1       0.474   9.611  21.069  0.00  0.00    +0.000 C 
ATOM     22  C   UNL     1       0.343  10.717  20.001  0.00  0.00    +0.000 C 
ATOM     23  C   UNL     1      -1.087  11.297  19.993  0.00  0.00    +0.000 C 
ATOM     24  C   UNL     1       0.719  10.304  18.573  0.00  0.00    +0.000 C 
ATOM     25  C   UNL     1       1.845   9.273  18.471  0.00  0.00    +0.000 C 
ENDBRANCH  16  19
ENDBRANCH   1  15
BRANCH   1  26
ATOM     26  C   UNL     1       2.879   3.441  18.568  0.00  0.00    +0.000 C 
ATOM     27  C   UNL     1       3.263   1.997  18.934  0.00  0.00    +0.000 C 
ATOM     28  C   UNL     1       1.357   3.516  18.375  0.00  0.00    +0.000 C 
ENDBRANCH   1  26
TORSDOF 6
ENDMDL
MODEL 4
REMARK VINA RESULT:      -6.4      3.353      5.381
REMARK  Name = 
REMARK  10 active torsions:
REMARK  status: ('A' for Active; 'I' for Inactive)
REMARK    1  A    between atoms: C_1  and  C_2
REMARK    2  A    between atoms: C_2  and  O_3
REMARK    3  A    between atoms: O_3  and  C_4
REMARK    4  A    between atoms: C_10  and  C_12
REMARK    5  A    between atoms: C_12  and  N_13
REMARK    6  A    between atoms: C_12  and  C_23
REMARK    7  A    between atoms: C_14  and  C_16
REMARK    8  A    between atoms: C_19  and  C_20
REMARK    9  A    between atoms: C_23  and  C_24
REMARK   10  A    between atoms: C_23  and  C_25
REMARK                            x       y       z     vdW  Elec       q    Type
REMARK                         _______ _______ _______ _____ _____    ______ ____
ROOT
ATOM      1  C   UNL     1       0.549  11.014  20.172  0.00  0.00    +0.000 C 
ENDROOT
BRANCH   1   8
ATOM      2  C   UNL     1      -4.188  13.778  23.730  0.00  0.00    +0.000 C 
ATOM      3  O   UNL     1      -5.143  14.513  23.481  0.00  0.00    +0.000 OA
ATOM      4  N   UNL     1      -3.689  12.824  22.868  0.00  0.00    +0.000 N 
ATOM      5  C   UNL     1      -4.191  12.676  21.503  0.00  0.00    +0.000 C 
ATOM      6  C   UNL     1      -3.061  12.687  20.443  0.00  0.00    +0.000 C 
ATOM      7  N   UNL     1      -1.795  12.003  20.859  0.00  0.00    +0.000 N 
ATOM      8  C   UNL     1      -0.938  11.524  19.864  0.00  0.00    +0.000 C 
ATOM      9  O   UNL     1      -1.353  11.537  18.698  0.00  0.00    +0.000 OA
ATOM     10  C   UNL     1      -1.399  12.316  22.233  0.00  0.00    +0.000 C 
ATOM     11  C   UNL     1      -2.544  11.974  23.185  0.00  0.00    +0.000 C 
BRANCH   2  12
ATOM     12  O   UNL     1      -3.499  13.815  24.906  0.00  0.00    +0.000 OA
BRANCH  12  14
ATOM     13  C   UNL     1      -1.552  15.264  24.636  0.00  0.00    +0.000 C 
ATOM     14  C   UNL     1      -2.897  15.052  25.306  0.00  0.00    +0.000 C 
ENDBRANCH  12  14
ENDBRANCH   2  12
ENDBRANCH   1   8
BRANCH   1  15
ATOM     15  N   UNL     1       0.977   9.640  19.705  0.00  0.00    +0.000 N 
ATOM     16  C   UNL     1       1.421   8.649  20.557  0.00  0.00    +0.000 C 
ATOM     17  O   UNL     1       1.332   8.772  21.784  0.00  0.00    +0.000 OA
ATOM     18  H   UNL     1       1.217   9.557  18.726  0.00  0.00    +0.000 HD
BRANCH  16  19
ATOM     19  C   UNL     1       2.141   7.387  20.002  0.00  0.00    +0.000 C 
ATOM     20  C   UNL     1       1.636   6.008  20.416  0.00  0.00    +0.000 C 
ATOM     21  C   UNL     1       2.507   4.854  19.874  0.00  0.00    +0.000 C 
ATOM     22  C   UNL     1       3.067   4.993  18.443  0.00  0.00    +0.000 C 
ATOM     23  C   UNL     1       4.397   4.223  18.303  0.00  0.00    +0.000 C 
ATOM     24  C   UNL     1       3.271   6.431  17.951  0.00  0.00    +0.000 C 
ATOM     25  C   UNL     1       2.256   7.447  18.477  0.00  0.00    +0.000 C 
ENDBRANCH  16  19
ENDBRANCH   1  15
BRANCH   1  26
ATOM     26  C   UNL     1       1.635  12.051  19.668  0.00  0.00    +0.000 C 
ATOM     27  C   UNL     1       2.177  11.813  18.248  0.00  0.00    +0.000 C 
ATOM     28  C   UNL     1       1.184  13.515  19.787  0.00  0.00    +0.000 C 
ENDBRANCH   1  26
TORSDOF 6
ENDMDL
MODEL 5
REMARK VINA RESULT:      -6.3      4.021      9.325
REMARK  Name = 
REMARK  10 active torsions:
REMARK  status: ('A' for Active; 'I' for Inactive)
REMARK    1  A    between atoms: C_1  and  C_2
REMARK    2  A    between atoms: C_2  and  O_3
REMARK    3  A    between atoms: O_3  and  C_4
REMARK    4  A    between atoms: C_10  and  C_12
REMARK    5  A    between atoms: C_12  and  N_13
REMARK    6  A    between atoms: C_12  and  C_23
REMARK    7  A    between atoms: C_14  and  C_16
REMARK    8  A    between atoms: C_19  and  C_20
REMARK    9  A    between atoms: C_23  and  C_24
REMARK   10  A    between atoms: C_23  and  C_25
REMARK                            x       y       z     vdW  Elec       q    Type
REMARK                         _______ _______ _______ _____ _____    ______ ____
ROOT
ATOM      1  C   UNL     1       0.873   9.612  19.643  0.00  0.00    +0.000 C 
ENDROOT
BRANCH   1   8
ATOM      2  C   UNL     1       3.876   3.945  18.376  0.00  0.00    +0.000 C 
ATOM      3  O   UNL     1       4.375   3.433  17.374  0.00  0.00    +0.000 OA
ATOM      4  N   UNL     1       3.855   5.300  18.633  0.00  0.00    +0.000 N 
ATOM      5  C   UNL     1       4.334   6.280  17.662  0.00  0.00    +0.000 C 
ATOM      6  C   UNL     1       3.301   7.401  17.380  0.00  0.00    +0.000 C 
ATOM      7  N   UNL     1       2.508   7.845  18.570  0.00  0.00    +0.000 N 
ATOM      8  C   UNL     1       1.946   9.125  18.558  0.00  0.00    +0.000 C 
ATOM      9  O   UNL     1       2.278   9.885  17.640  0.00  0.00    +0.000 OA
ATOM     10  C   UNL     1       2.046   6.731  19.400  0.00  0.00    +0.000 C 
ATOM     11  C   UNL     1       3.243   5.881  19.825  0.00  0.00    +0.000 C 
BRANCH   2  12
ATOM     12  O   UNL     1       3.279   3.225  19.367  0.00  0.00    +0.000 OA
BRANCH  12  14
ATOM     13  C   UNL     1       0.969   2.959  20.116  0.00  0.00    +0.000 C 
ATOM     14  C   UNL     1       2.025   2.590  19.090  0.00  0.00    +0.000 C 
ENDBRANCH  12  14
ENDBRANCH   2  12
ENDBRANCH   1   8
BRANCH   1  15
ATOM     15  N   UNL     1      -0.571   9.798  19.231  0.00  0.00    +0.000 N 
ATOM     16  C   UNL     1      -1.084  10.993  18.769  0.00  0.00    +0.000 C 
ATOM     17  O   UNL     1      -0.345  11.947  18.502  0.00  0.00    +0.000 OA
ATOM     18  H   UNL     1      -1.226   9.112  19.582  0.00  0.00    +0.000 HD
BRANCH  16  19
ATOM     19  C   UNL     1      -2.621  11.213  18.668  0.00  0.00    +0.000 C 
ATOM     20  C   UNL     1      -3.268  12.302  19.518  0.00  0.00    +0.000 C 
ATOM     21  C   UNL     1      -4.807  12.337  19.393  0.00  0.00    +0.000 C 
ATOM     22  C   UNL     1      -5.415  12.086  17.997  0.00  0.00    +0.000 C 
ATOM     23  C   UNL     1      -6.819  11.458  18.122  0.00  0.00    +0.000 C 
ATOM     24  C   UNL     1      -4.568  11.224  17.054  0.00  0.00    +0.000 C 
ATOM     25  C   UNL     1      -3.055  11.385  17.210  0.00  0.00    +0.000 C 
ENDBRANCH  16  19
ENDBRANCH   1  15
BRANCH   1  26
ATOM     26  C   UNL     1       0.889   8.690  20.931  0.00  0.00    +0.000 C 
ATOM     27  C   UNL     1       1.726   9.210  22.113  0.00  0.00    +0.000 C 
ATOM     28  C   UNL     1      -0.513   8.323  21.439  0.00  0.00    +0.000 C 
ENDBRANCH   1  26
TORSDOF 6
ENDMDL
MODEL 6
REMARK VINA RESULT:      -6.3      3.903      8.840
REMARK  Name = 
REMARK  10 active torsions:
REMARK  status: ('A' for Active; 'I' for Inactive)
REMARK    1  A    between atoms: C_1  and  C_2
REMARK    2  A    between atoms: C_2  and  O_3
REMARK    3  A    between atoms: O_3  and  C_4
REMARK    4  A    between atoms: C_10  and  C_12
REMARK    5  A    between atoms: C_12  and  N_13
REMARK    6  A    between atoms: C_12  and  C_23
REMARK    7  A    between atoms: C_14  and  C_16
REMARK    8  A    between atoms: C_19  and  C_20
REMARK    9  A    between atoms: C_23  and  C_24
REMARK   10  A    between atoms: C_23  and  C_25
REMARK                            x       y       z     vdW  Elec       q    Type
REMARK                         _______ _______ _______ _____ _____    ______ ____
ROOT
ATOM      1  C   UNL     1       0.509   9.769  19.388  0.00  0.00    +0.000 C 
ENDROOT
BRANCH   1   8
ATOM      2  C   UNL     1       5.048   5.194  18.291  0.00  0.00    +0.000 C 
ATOM      3  O   UNL     1       5.727   4.457  19.006  0.00  0.00    +0.000 OA
ATOM      4  N   UNL     1       3.771   5.617  18.594  0.00  0.00    +0.000 N 
ATOM      5  C   UNL     1       3.138   5.313  19.875  0.00  0.00    +0.000 C 
ATOM      6  C   UNL     1       2.574   6.572  20.581  0.00  0.00    +0.000 C 
ATOM      7  N   UNL     1       1.972   7.594  19.667  0.00  0.00    +0.000 N 
ATOM      8  C   UNL     1       1.025   8.480  20.189  0.00  0.00    +0.000 C 
ATOM      9  O   UNL     1       0.608   8.262  21.333  0.00  0.00    +0.000 OA
ATOM     10  C   UNL     1       2.771   7.829  18.463  0.00  0.00    +0.000 C 
ATOM     11  C   UNL     1       2.994   6.504  17.733  0.00  0.00    +0.000 C 
BRANCH   2  12
ATOM     12  O   UNL     1       5.481   5.686  17.096  0.00  0.00    +0.000 OA
BRANCH  12  14
ATOM     13  C   UNL     1       7.363   7.186  17.512  0.00  0.00    +0.000 C 
ATOM     14  C   UNL     1       6.888   5.878  16.906  0.00  0.00    +0.000 C 
ENDBRANCH  12  14
ENDBRANCH   2  12
ENDBRANCH   1   8
BRANCH   1  15
ATOM     15  N   UNL     1      -0.968  10.095  19.376  0.00  0.00    +0.000 N 
ATOM     16  C   UNL     1      -1.722  10.174  18.223  0.00  0.00    +0.000 C 
ATOM     17  O   UNL     1      -1.266   9.812  17.133  0.00  0.00    +0.000 OA
ATOM     18  H   UNL     1      -1.331  10.549  20.204  0.00  0.00    +0.000 HD
BRANCH  16  19
ATOM     19  C   UNL     1      -3.138  10.819  18.241  0.00  0.00    +0.000 C 
ATOM     20  C   UNL     1      -3.412  11.969  19.206  0.00  0.00    +0.000 C 
ATOM     21  C   UNL     1      -4.882  12.440  19.188  0.00  0.00    +0.000 C 
ATOM     22  C   UNL     1      -5.600  12.488  17.823  0.00  0.00    +0.000 C 
ATOM     23  C   UNL     1      -7.117  12.266  18.000  0.00  0.00    +0.000 C 
ATOM     24  C   UNL     1      -5.075  11.507  16.767  0.00  0.00    +0.000 C 
ATOM     25  C   UNL     1      -3.573  11.228  16.831  0.00  0.00    +0.000 C 
ENDBRANCH  16  19
ENDBRANCH   1  15
BRANCH   1  26
ATOM     26  C   UNL     1       1.285  11.076  19.830  0.00  0.00    +0.000 C 
ATOM     27  C   UNL     1       1.709  12.018  18.689  0.00  0.00    +0.000 C 
ATOM     28  C   UNL     1       0.547  11.894  20.900  0.00  0.00    +0.000 C 
ENDBRANCH   1  26
TORSDOF 6
ENDMDL
MODEL 7
REMARK VINA RESULT:      -6.2      1.702      1.860
REMARK  Name = 
REMARK  10 active torsions:
REMARK  status: ('A' for Active; 'I' for Inactive)
REMARK    1  A    between atoms: C_1  and  C_2
REMARK    2  A    between atoms: C_2  and  O_3
REMARK    3  A    between atoms: O_3  and  C_4
REMARK    4  A    between atoms: C_10  and  C_12
REMARK    5  A    between atoms: C_12  and  N_13
REMARK    6  A    between atoms: C_12  and  C_23
REMARK    7  A    between atoms: C_14  and  C_16
REMARK    8  A    between atoms: C_19  and  C_20
REMARK    9  A    between atoms: C_23  and  C_24
REMARK   10  A    between atoms: C_23  and  C_25
REMARK                            x       y       z     vdW  Elec       q    Type
REMARK                         _______ _______ _______ _____ _____    ______ ____
ROOT
ATOM      1  C   UNL     1      -0.597  10.759  18.809  0.00  0.00    +0.000 C 
ENDROOT
BRANCH   1   8
ATOM      2  C   UNL     1      -0.691  17.262  19.475  0.00  0.00    +0.000 C 
ATOM      3  O   UNL     1      -1.189  18.043  20.285  0.00  0.00    +0.000 OA
ATOM      4  N   UNL     1      -0.240  15.996  19.786  0.00  0.00    +0.000 N 
ATOM      5  C   UNL     1      -0.422  15.414  21.114  0.00  0.00    +0.000 C 
ATOM      6  C   UNL     1      -1.077  14.010  21.069  0.00  0.00    +0.000 C 
ATOM      7  N   UNL     1      -0.653  13.149  19.920  0.00  0.00    +0.000 N 
ATOM      8  C   UNL     1      -0.770  11.762  20.047  0.00  0.00    +0.000 C 
ATOM      9  O   UNL     1      -1.056  11.312  21.164  0.00  0.00    +0.000 OA
ATOM     10  C   UNL     1      -0.590  13.876  18.651  0.00  0.00    +0.000 C 
ATOM     11  C   UNL     1       0.334  15.084  18.801  0.00  0.00    +0.000 C 
BRANCH   2  12
ATOM     12  O   UNL     1      -0.519  17.558  18.156  0.00  0.00    +0.000 OA
BRANCH  12  14
ATOM     13  C   UNL     1       0.695  18.597  16.310  0.00  0.00    +0.000 C 
ATOM     14  C   UNL     1       0.419  18.581  17.801  0.00  0.00    +0.000 C 
ENDBRANCH  12  14
ENDBRANCH   2  12
ENDBRANCH   1   8
BRANCH   1  15
ATOM     15  N   UNL     1       0.220   9.498  18.981  0.00  0.00    +0.000 N 
ATOM     16  C   UNL     1       1.466   9.313  18.416  0.00  0.00    +0.000 C 
ATOM     17  O   UNL     1       2.067  10.244  17.871  0.00  0.00    +0.000 OA
ATOM     18  H   UNL     1      -0.290   8.673  19.269  0.00  0.00    +0.000 HD
BRANCH  16  19
ATOM     19  C   UNL     1       2.110   7.898  18.358  0.00  0.00    +0.000 C 
ATOM     20  C   UNL     1       3.436   7.721  17.623  0.00  0.00    +0.000 C 
ATOM     21  C   UNL     1       3.903   6.251  17.557  0.00  0.00    +0.000 C 
ATOM     22  C   UNL     1       3.673   5.372  18.804  0.00  0.00    +0.000 C 
ATOM     23  C   UNL     1       3.503   3.892  18.402  0.00  0.00    +0.000 C 
ATOM     24  C   UNL     1       2.493   5.784  19.693  0.00  0.00    +0.000 C 
ATOM     25  C   UNL     1       2.223   7.288  19.757  0.00  0.00    +0.000 C 
ENDBRANCH  16  19
ENDBRANCH   1  15
BRANCH   1  26
ATOM     26  C   UNL     1      -1.997  10.345  18.197  0.00  0.00    +0.000 C 
ATOM     27  C   UNL     1      -3.124  11.382  18.347  0.00  0.00    +0.000 C 
ATOM     28  C   UNL     1      -1.918   9.908  16.727  0.00  0.00    +0.000 C 
ENDBRANCH   1  26
TORSDOF 6
ENDMDL
MODEL 8
REMARK VINA RESULT:      -6.2      5.057      9.746
REMARK  Name = 
REMARK  10 active torsions:
REMARK  status: ('A' for Active; 'I' for Inactive)
REMARK    1  A    between atoms: C_1  and  C_2
REMARK    2  A    between atoms: C_2  and  O_3
REMARK    3  A    between atoms: O_3  and  C_4
REMARK    4  A    between atoms: C_10  and  C_12
REMARK    5  A    between atoms: C_12  and  N_13
REMARK    6  A    between atoms: C_12  and  C_23
REMARK    7  A    between atoms: C_14  and  C_16
REMARK    8  A    between atoms: C_19  and  C_20
REMARK    9  A    between atoms: C_23  and  C_24
REMARK   10  A    between atoms: C_23  and  C_25
REMARK                            x       y       z     vdW  Elec       q    Type
REMARK                         _______ _______ _______ _____ _____    ______ ____
ROOT
ATOM      1  C   UNL     1       3.238   5.280  19.382  0.00  0.00    +0.000 C 
ENDROOT
BRANCH   1   8
ATOM      2  C   UNL     1       7.080   4.767  14.116  0.00  0.00    +0.000 C 
ATOM      3  O   UNL     1       8.223   5.128  13.839  0.00  0.00    +0.000 OA
ATOM      4  N   UNL     1       6.660   4.401  15.379  0.00  0.00    +0.000 N 
ATOM      5  C   UNL     1       7.528   4.520  16.548  0.00  0.00    +0.000 C 
ATOM      6  C   UNL     1       6.861   5.294  17.714  0.00  0.00    +0.000 C 
ATOM      7  N   UNL     1       5.395   5.041  17.886  0.00  0.00    +0.000 N 
ATOM      8  C   UNL     1       4.823   5.264  19.141  0.00  0.00    +0.000 C 
ATOM      9  O   UNL     1       5.588   5.493  20.086  0.00  0.00    +0.000 OA
ATOM     10  C   UNL     1       4.664   5.022  16.618  0.00  0.00    +0.000 C 
ATOM     11  C   UNL     1       5.292   3.990  15.682  0.00  0.00    +0.000 C 
BRANCH   2  12
ATOM     12  O   UNL     1       6.076   4.681  13.198  0.00  0.00    +0.000 OA
BRANCH  12  14
ATOM     13  C   UNL     1       4.703   3.237  11.787  0.00  0.00    +0.000 C 
ATOM     14  C   UNL     1       6.098   3.597  12.262  0.00  0.00    +0.000 C 
ENDBRANCH  12  14
ENDBRANCH   2  12
ENDBRANCH   1   8
BRANCH   1  15
ATOM     15  N   UNL     1       2.448   6.527  19.049  0.00  0.00    +0.000 N 
ATOM     16  C   UNL     1       1.991   7.416  20.000  0.00  0.00    +0.000 C 
ATOM     17  O   UNL     1       2.351   7.335  21.179  0.00  0.00    +0.000 OA
ATOM     18  H   UNL     1       2.001   6.541  18.142  0.00  0.00    +0.000 HD
BRANCH  16  19
ATOM     19  C   UNL     1       0.925   8.490  19.637  0.00  0.00    +0.000 C 
ATOM     20  C   UNL     1       0.540   9.531  20.685  0.00  0.00    +0.000 C 
ATOM     21  C   UNL     1      -0.599  10.465  20.224  0.00  0.00    +0.000 C 
ATOM     22  C   UNL     1      -0.593  10.926  18.752  0.00  0.00    +0.000 C 
ATOM     23  C   UNL     1      -2.030  11.205  18.264  0.00  0.00    +0.000 C 
ATOM     24  C   UNL     1       0.091   9.972  17.765  0.00  0.00    +0.000 C 
ATOM     25  C   UNL     1       1.284   9.200  18.329  0.00  0.00    +0.000 C 
ENDBRANCH  16  19
ENDBRANCH   1  15
BRANCH   1  26
ATOM     26  C   UNL     1       2.530   4.058  18.668  0.00  0.00    +0.000 C 
ATOM     27  C   UNL     1       2.002   2.954  19.601  0.00  0.00    +0.000 C 
ATOM     28  C   UNL     1       1.405   4.477  17.710  0.00  0.00    +0.000 C 
ENDBRANCH   1  26
TORSDOF 6
ENDMDL
MODEL 9
REMARK VINA RESULT:      -6.2      1.038      1.139
REMARK  Name = 
REMARK  10 active torsions:
REMARK  status: ('A' for Active; 'I' for Inactive)
REMARK    1  A    between atoms: C_1  and  C_2
REMARK    2  A    between atoms: C_2  and  O_3
REMARK    3  A    between atoms: O_3  and  C_4
REMARK    4  A    between atoms: C_10  and  C_12
REMARK    5  A    between atoms: C_12  and  N_13
REMARK    6  A    between atoms: C_12  and  C_23
REMARK    7  A    between atoms: C_14  and  C_16
REMARK    8  A    between atoms: C_19  and  C_20
REMARK    9  A    between atoms: C_23  and  C_24
REMARK   10  A    between atoms: C_23  and  C_25
REMARK                            x       y       z     vdW  Elec       q    Type
REMARK                         _______ _______ _______ _____ _____    ______ ____
ROOT
ATOM      1  C   UNL     1       0.417  11.121  18.785  0.00  0.00    +0.000 C 
ENDROOT
BRANCH   1   8
ATOM      2  C   UNL     1       2.885  17.163  19.180  0.00  0.00    +0.000 C 
ATOM      3  O   UNL     1       3.152  17.931  20.104  0.00  0.00    +0.000 OA
ATOM      4  N   UNL     1       2.968  15.788  19.258  0.00  0.00    +0.000 N 
ATOM      5  C   UNL     1       3.280  15.101  20.510  0.00  0.00    +0.000 C 
ATOM      6  C   UNL     1       2.255  13.991  20.856  0.00  0.00    +0.000 C 
ATOM      7  N   UNL     1       1.734  13.220  19.683  0.00  0.00    +0.000 N 
ATOM      8  C   UNL     1       1.232  11.934  19.900  0.00  0.00    +0.000 C 
ATOM      9  O   UNL     1       1.402  11.435  21.020  0.00  0.00    +0.000 OA
ATOM     10  C   UNL     1       1.406  14.070  18.538  0.00  0.00    +0.000 C 
ATOM     11  C   UNL     1       2.630  14.899  18.150  0.00  0.00    +0.000 C 
BRANCH   2  12
ATOM     12  O   UNL     1       2.471  17.582  17.951  0.00  0.00    +0.000 OA
BRANCH  12  14
ATOM     13  C   UNL     1       0.821  18.474  16.386  0.00  0.00    +0.000 C 
ATOM     14  C   UNL     1       1.165  18.159  17.830  0.00  0.00    +0.000 C 
ENDBRANCH  12  14
ENDBRANCH   2  12
ENDBRANCH   1   8
BRANCH   1  15
ATOM     15  N   UNL     1       1.005   9.849  18.215  0.00  0.00    +0.000 N 
ATOM     16  C   UNL     1       1.361   8.761  18.986  0.00  0.00    +0.000 C 
ATOM     17  O   UNL     1       1.059   8.697  20.182  0.00  0.00    +0.000 OA
ATOM     18  H   UNL     1       1.412   9.921  17.292  0.00  0.00    +0.000 HD
BRANCH  16  19
ATOM     19  C   UNL     1       2.245   7.624  18.397  0.00  0.00    +0.000 C 
ATOM     20  C   UNL     1       3.530   7.994  17.662  0.00  0.00    +0.000 C 
ATOM     21  C   UNL     1       4.249   6.776  17.044  0.00  0.00    +0.000 C 
ATOM     22  C   UNL     1       4.263   5.465  17.859  0.00  0.00    +0.000 C 
ATOM     23  C   UNL     1       4.337   4.243  16.920  0.00  0.00    +0.000 C 
ATOM     24  C   UNL     1       3.088   5.278  18.826  0.00  0.00    +0.000 C 
ATOM     25  C   UNL     1       2.556   6.565  19.458  0.00  0.00    +0.000 C 
ENDBRANCH  16  19
ENDBRANCH   1  15
BRANCH   1  26
ATOM     26  C   UNL     1      -1.057  10.797  19.263  0.00  0.00    +0.000 C 
ATOM     27  C   UNL     1      -1.825  11.970  19.898  0.00  0.00    +0.000 C 
ATOM     28  C   UNL     1      -1.931  10.168  18.167  0.00  0.00    +0.000 C 
ENDBRANCH   1  26
TORSDOF 6
ENDMDL
