MODEL 1
REMARK VINA RESULT:      -7.1      0.000      0.000
REMARK  Name = 
REMARK  7 active torsions:
REMARK  status: ('A' for Active; 'I' for Inactive)
REMARK    1  A    between atoms: C_1  and  C_2
REMARK    2  A    between atoms: C_2  and  O_3
REMARK    3  A    between atoms: O_3  and  C_4
REMARK    4  A    between atoms: C_4  and  C_6
REMARK    5  A    between atoms: C_10  and  C_11
REMARK    6  A    between atoms: C_14  and  O_15
REMARK    7  A    between atoms: C_16  and  O_17
REMARK                            x       y       z     vdW  Elec       q    Type
REMARK                         _______ _______ _______ _____ _____    ______ ____
ROOT
ATOM      1  C   UNL     1       6.733   4.837  16.423  0.00  0.00    +0.000 A 
ATOM      2  N   UNL     1       7.395   4.908  15.205  0.00  0.00    +0.000 NA
ATOM      3  C   UNL     1       6.512   4.447  14.349  0.00  0.00    +0.000 A 
ATOM      4  O   UNL     1       5.311   4.098  14.883  0.00  0.00    +0.000 OA
ATOM      5  C   UNL     1       5.444   4.375  16.223  0.00  0.00    +0.000 A 
ENDROOT
BRANCH   5   6
ATOM      6  C   UNL     1       4.245   4.209  17.034  0.00  0.00    +0.000 A 
ATOM      7  C   UNL     1       3.534   5.324  17.513  0.00  0.00    +0.000 A 
ATOM      8  C   UNL     1       2.412   5.165  18.334  0.00  0.00    +0.000 A 
ATOM      9  C   UNL     1       2.001   3.885  18.682  0.00  0.00    +0.000 A 
ATOM     10  C   UNL     1       2.690   2.776  18.204  0.00  0.00    +0.000 A 
ATOM     11  C   UNL     1       3.802   2.927  17.388  0.00  0.00    +0.000 A 
BRANCH   9  12
ATOM     12  O   UNL     1       0.933   3.661  19.505  0.00  0.00    +0.000 OA
ATOM     13  H   UNL     1       0.135   3.995  19.061  0.00  0.00    +0.000 HD
ENDBRANCH   9  12
BRANCH  10  14
ATOM     14  O   UNL     1       2.288   1.517  18.551  0.00  0.00    +0.000 OA
ATOM     15  H   UNL     1       2.867   1.271  19.299  0.00  0.00    +0.000 HD
ENDBRANCH  10  14
ENDBRANCH   5   6
BRANCH   1  16
ATOM     16  C   UNL     1       7.308   5.190  17.706  0.00  0.00    +0.000 C 
ATOM     17  O   UNL     1       7.944   4.401  18.393  0.00  0.00    +0.000 OA
BRANCH  16  18
ATOM     18  O   UNL     1       7.003   6.464  18.097  0.00  0.00    +0.000 OA
BRANCH  18  20
ATOM     19  C   UNL     1       7.951   8.683  17.822  0.00  0.00    +0.000 C 
ATOM     20  C   UNL     1       8.142   7.287  18.393  0.00  0.00    +0.000 C 
ENDBRANCH  18  20
ENDBRANCH  16  18
ENDBRANCH   1  16
TORSDOF 6
ENDMDL
MODEL 2
REMARK VINA RESULT:      -7.0      1.783      3.131
REMARK  Name = 
REMARK  7 active torsions:
REMARK  status: ('A' for Active; 'I' for Inactive)
REMARK    1  A    between atoms: C_1  and  C_2
REMARK    2  A    between atoms: C_2  and  O_3
REMARK    3  A    between atoms: O_3  and  C_4
REMARK    4  A    between atoms: C_4  and  C_6
REMARK    5  A    between atoms: C_10  and  C_11
REMARK    6  A    between atoms: C_14  and  O_15
REMARK    7  A    between atoms: C_16  and  O_17
REMARK                            x       y       z     vdW  Elec       q    Type
REMARK                         _______ _______ _______ _____ _____    ______ ____
ROOT
ATOM      1  C   UNL     1       6.679   5.846  17.711  0.00  0.00    +0.000 A 
ATOM      2  N   UNL     1       7.842   6.115  18.421  0.00  0.00    +0.000 NA
ATOM      3  C   UNL     1       7.565   5.697  19.634  0.00  0.00    +0.000 A 
ATOM      4  O   UNL     1       6.330   5.151  19.793  0.00  0.00    +0.000 OA
ATOM      5  C   UNL     1       5.765   5.223  18.543  0.00  0.00    +0.000 A 
ENDROOT
BRANCH   5   6
ATOM      6  C   UNL     1       4.463   4.587  18.389  0.00  0.00    +0.000 A 
ATOM      7  C   UNL     1       3.297   5.355  18.217  0.00  0.00    +0.000 A 
ATOM      8  C   UNL     1       2.041   4.745  18.120  0.00  0.00    +0.000 A 
ATOM      9  C   UNL     1       1.949   3.362  18.199  0.00  0.00    +0.000 A 
ATOM     10  C   UNL     1       3.097   2.593  18.356  0.00  0.00    +0.000 A 
ATOM     11  C   UNL     1       4.345   3.191  18.452  0.00  0.00    +0.000 A 
BRANCH   9  12
ATOM     12  O   UNL     1       0.750   2.707  18.143  0.00  0.00    +0.000 OA
ATOM     13  H   UNL     1       0.932   1.756  18.046  0.00  0.00    +0.000 HD
ENDBRANCH   9  12
BRANCH  10  14
ATOM     14  O   UNL     1       3.005   1.233  18.440  0.00  0.00    +0.000 OA
ATOM     15  H   UNL     1       3.805   0.903  17.985  0.00  0.00    +0.000 HD
ENDBRANCH  10  14
ENDBRANCH   5   6
BRANCH   1  16
ATOM     16  C   UNL     1       6.458   6.174  16.317  0.00  0.00    +0.000 C 
ATOM     17  O   UNL     1       5.503   6.835  15.929  0.00  0.00    +0.000 OA
BRANCH  16  18
ATOM     18  O   UNL     1       7.380   5.607  15.482  0.00  0.00    +0.000 OA
BRANCH  18  20
ATOM     19  C   UNL     1       5.983   3.706  14.905  0.00  0.00    +0.000 C 
ATOM     20  C   UNL     1       6.819   4.866  14.387  0.00  0.00    +0.000 C 
ENDBRANCH  18  20
ENDBRANCH  16  18
ENDBRANCH   1  16
TORSDOF 6
ENDMDL
MODEL 3
REMARK VINA RESULT:      -7.0      1.515      3.285
REMARK  Name = 
REMARK  7 active torsions:
REMARK  status: ('A' for Active; 'I' for Inactive)
REMARK    1  A    between atoms: C_1  and  C_2
REMARK    2  A    between atoms: C_2  and  O_3
REMARK    3  A    between atoms: O_3  and  C_4
REMARK    4  A    between atoms: C_4  and  C_6
REMARK    5  A    between atoms: C_10  and  C_11
REMARK    6  A    between atoms: C_14  and  O_15
REMARK    7  A    between atoms: C_16  and  O_17
REMARK                            x       y       z     vdW  Elec       q    Type
REMARK                         _______ _______ _______ _____ _____    ______ ____
ROOT
ATOM      1  C   UNL     1       6.166   5.198  16.647  0.00  0.00    +0.000 A 
ATOM      2  N   UNL     1       7.487   5.362  17.039  0.00  0.00    +0.000 NA
ATOM      3  C   UNL     1       7.490   4.958  18.288  0.00  0.00    +0.000 A 
ATOM      4  O   UNL     1       6.293   4.515  18.758  0.00  0.00    +0.000 OA
ATOM      5  C   UNL     1       5.441   4.646  17.688  0.00  0.00    +0.000 A 
ENDROOT
BRANCH   5   6
ATOM      6  C   UNL     1       4.094   4.122  17.873  0.00  0.00    +0.000 A 
ATOM      7  C   UNL     1       2.966   4.942  17.691  0.00  0.00    +0.000 A 
ATOM      8  C   UNL     1       1.674   4.452  17.918  0.00  0.00    +0.000 A 
ATOM      9  C   UNL     1       1.509   3.138  18.333  0.00  0.00    +0.000 A 
ATOM     10  C   UNL     1       2.618   2.314  18.503  0.00  0.00    +0.000 A 
ATOM     11  C   UNL     1       3.900   2.794  18.278  0.00  0.00    +0.000 A 
BRANCH   9  12
ATOM     12  O   UNL     1       0.279   2.607  18.601  0.00  0.00    +0.000 OA
ATOM     13  H   UNL     1       0.065   2.798  19.531  0.00  0.00    +0.000 HD
ENDBRANCH   9  12
BRANCH  10  14
ATOM     14  O   UNL     1       2.455   1.023  18.916  0.00  0.00    +0.000 OA
ATOM     15  H   UNL     1       3.363   0.699  19.077  0.00  0.00    +0.000 HD
ENDBRANCH  10  14
ENDBRANCH   5   6
BRANCH   1  16
ATOM     16  C   UNL     1       5.631   5.555  15.348  0.00  0.00    +0.000 C 
ATOM     17  O   UNL     1       5.396   6.711  15.018  0.00  0.00    +0.000 OA
BRANCH  16  18
ATOM     18  O   UNL     1       5.349   4.470  14.568  0.00  0.00    +0.000 OA
BRANCH  18  20
ATOM     19  C   UNL     1       5.846   3.381  12.454  0.00  0.00    +0.000 C 
ATOM     20  C   UNL     1       6.409   4.079  13.681  0.00  0.00    +0.000 C 
ENDBRANCH  18  20
ENDBRANCH  16  18
ENDBRANCH   1  16
TORSDOF 6
ENDMDL
MODEL 4
REMARK VINA RESULT:      -7.0      1.691      3.304
REMARK  Name = 
REMARK  7 active torsions:
REMARK  status: ('A' for Active; 'I' for Inactive)
REMARK    1  A    between atoms: C_1  and  C_2
REMARK    2  A    between atoms: C_2  and  O_3
REMARK    3  A    between atoms: O_3  and  C_4
REMARK    4  A    between atoms: C_4  and  C_6
REMARK    5  A    between atoms: C_10  and  C_11
REMARK    6  A    between atoms: C_14  and  O_15
REMARK    7  A    between atoms: C_16  and  O_17
REMARK                            x       y       z     vdW  Elec       q    Type
REMARK                         _______ _______ _______ _____ _____    ______ ____
ROOT
ATOM      1  C   UNL     1       6.175   5.622  17.524  0.00  0.00    +0.000 A 
ATOM      2  N   UNL     1       7.508   5.872  17.820  0.00  0.00    +0.000 NA
ATOM      3  C   UNL     1       7.579   5.662  19.114  0.00  0.00    +0.000 A 
ATOM      4  O   UNL     1       6.419   5.270  19.704  0.00  0.00    +0.000 OA
ATOM      5  C   UNL     1       5.514   5.219  18.671  0.00  0.00    +0.000 A 
ENDROOT
BRANCH   5   6
ATOM      6  C   UNL     1       4.193   4.701  18.999  0.00  0.00    +0.000 A 
ATOM      7  C   UNL     1       3.265   5.482  19.713  0.00  0.00    +0.000 A 
ATOM      8  C   UNL     1       2.014   4.966  20.072  0.00  0.00    +0.000 A 
ATOM      9  C   UNL     1       1.691   3.663  19.720  0.00  0.00    +0.000 A 
ATOM     10  C   UNL     1       2.596   2.887  19.003  0.00  0.00    +0.000 A 
ATOM     11  C   UNL     1       3.836   3.393  18.643  0.00  0.00    +0.000 A 
BRANCH   9  12
ATOM     12  O   UNL     1       0.500   3.088  20.067  0.00  0.00    +0.000 OA
ATOM     13  H   UNL     1       0.136   3.583  20.822  0.00  0.00    +0.000 HD
ENDBRANCH   9  12
BRANCH  10  14
ATOM     14  O   UNL     1       2.278   1.603  18.661  0.00  0.00    +0.000 OA
ATOM     15  H   UNL     1       1.849   1.679  17.786  0.00  0.00    +0.000 HD
ENDBRANCH  10  14
ENDBRANCH   5   6
BRANCH   1  16
ATOM     16  C   UNL     1       5.571   5.768  16.214  0.00  0.00    +0.000 C 
ATOM     17  O   UNL     1       5.145   6.834  15.790  0.00  0.00    +0.000 OA
BRANCH  16  18
ATOM     18  O   UNL     1       5.461   4.583  15.541  0.00  0.00    +0.000 OA
BRANCH  18  20
ATOM     19  C   UNL     1       6.074   3.730  13.351  0.00  0.00    +0.000 C 
ATOM     20  C   UNL     1       6.569   4.281  14.679  0.00  0.00    +0.000 C 
ENDBRANCH  18  20
ENDBRANCH  16  18
ENDBRANCH   1  16
TORSDOF 6
ENDMDL
MODEL 5
REMARK VINA RESULT:      -6.8      1.691      3.021
REMARK  Name = 
REMARK  7 active torsions:
REMARK  status: ('A' for Active; 'I' for Inactive)
REMARK    1  A    between atoms: C_1  and  C_2
REMARK    2  A    between atoms: C_2  and  O_3
REMARK    3  A    between atoms: O_3  and  C_4
REMARK    4  A    between atoms: C_4  and  C_6
REMARK    5  A    between atoms: C_10  and  C_11
REMARK    6  A    between atoms: C_14  and  O_15
REMARK    7  A    between atoms: C_16  and  O_17
REMARK                            x       y       z     vdW  Elec       q    Type
REMARK                         _______ _______ _______ _____ _____    ______ ____
ROOT
ATOM      1  C   UNL     1       6.061   5.569  16.748  0.00  0.00    +0.000 A 
ATOM      2  N   UNL     1       6.462   6.898  16.723  0.00  0.00    +0.000 NA
ATOM      3  C   UNL     1       5.379   7.552  17.073  0.00  0.00    +0.000 A 
ATOM      4  O   UNL     1       4.297   6.778  17.354  0.00  0.00    +0.000 OA
ATOM      5  C   UNL     1       4.745   5.492  17.169  0.00  0.00    +0.000 A 
ENDROOT
BRANCH   5   6
ATOM      6  C   UNL     1       3.812   4.430  17.525  0.00  0.00    +0.000 A 
ATOM      7  C   UNL     1       2.445   4.701  17.715  0.00  0.00    +0.000 A 
ATOM      8  C   UNL     1       1.559   3.690  18.106  0.00  0.00    +0.000 A 
ATOM      9  C   UNL     1       2.041   2.405  18.312  0.00  0.00    +0.000 A 
ATOM     10  C   UNL     1       3.389   2.124  18.113  0.00  0.00    +0.000 A 
ATOM     11  C   UNL     1       4.273   3.121  17.725  0.00  0.00    +0.000 A 
BRANCH   9  12
ATOM     12  O   UNL     1       1.235   1.381  18.724  0.00  0.00    +0.000 OA
ATOM     13  H   UNL     1       1.716   0.546  18.587  0.00  0.00    +0.000 HD
ENDBRANCH   9  12
BRANCH  10  14
ATOM     14  O   UNL     1       3.864   0.861  18.321  0.00  0.00    +0.000 OA
ATOM     15  H   UNL     1       4.183   0.865  19.245  0.00  0.00    +0.000 HD
ENDBRANCH  10  14
ENDBRANCH   5   6
BRANCH   1  16
ATOM     16  C   UNL     1       6.893   4.440  16.385  0.00  0.00    +0.000 C 
ATOM     17  O   UNL     1       7.946   4.176  16.953  0.00  0.00    +0.000 OA
BRANCH  16  18
ATOM     18  O   UNL     1       6.421   3.752  15.303  0.00  0.00    +0.000 OA
BRANCH  18  20
ATOM     19  C   UNL     1       5.979   3.611  12.918  0.00  0.00    +0.000 C 
ATOM     20  C   UNL     1       6.606   4.418  14.044  0.00  0.00    +0.000 C 
ENDBRANCH  18  20
ENDBRANCH  16  18
ENDBRANCH   1  16
TORSDOF 6
ENDMDL
MODEL 6
REMARK VINA RESULT:      -6.8      1.749      3.573
REMARK  Name = 
REMARK  7 active torsions:
REMARK  status: ('A' for Active; 'I' for Inactive)
REMARK    1  A    between atoms: C_1  and  C_2
REMARK    2  A    between atoms: C_2  and  O_3
REMARK    3  A    between atoms: O_3  and  C_4
REMARK    4  A    between atoms: C_4  and  C_6
REMARK    5  A    between atoms: C_10  and  C_11
REMARK    6  A    between atoms: C_14  and  O_15
REMARK    7  A    between atoms: C_16  and  O_17
REMARK                            x       y       z     vdW  Elec       q    Type
REMARK                         _______ _______ _______ _____ _____    ______ ____
ROOT
ATOM      1  C   UNL     1       6.510   5.617  17.556  0.00  0.00    +0.000 A 
ATOM      2  N   UNL     1       7.685   6.110  18.105  0.00  0.00    +0.000 NA
ATOM      3  C   UNL     1       7.582   5.803  19.378  0.00  0.00    +0.000 A 
ATOM      4  O   UNL     1       6.454   5.127  19.723  0.00  0.00    +0.000 OA
ATOM      5  C   UNL     1       5.770   4.983  18.539  0.00  0.00    +0.000 A 
ENDROOT
BRANCH   5   6
ATOM      6  C   UNL     1       4.559   4.175  18.591  0.00  0.00    +0.000 A 
ATOM      7  C   UNL     1       4.540   2.942  19.267  0.00  0.00    +0.000 A 
ATOM      8  C   UNL     1       3.391   2.141  19.275  0.00  0.00    +0.000 A 
ATOM      9  C   UNL     1       2.258   2.574  18.600  0.00  0.00    +0.000 A 
ATOM     10  C   UNL     1       2.263   3.798  17.939  0.00  0.00    +0.000 A 
ATOM     11  C   UNL     1       3.398   4.596  17.929  0.00  0.00    +0.000 A 
BRANCH   9  12
ATOM     12  O   UNL     1       1.115   1.827  18.542  0.00  0.00    +0.000 OA
ATOM     13  H   UNL     1       0.730   1.797  19.435  0.00  0.00    +0.000 HD
ENDBRANCH   9  12
BRANCH  10  14
ATOM     14  O   UNL     1       1.149   4.221  17.271  0.00  0.00    +0.000 OA
ATOM     15  H   UNL     1       1.486   4.558  16.417  0.00  0.00    +0.000 HD
ENDBRANCH  10  14
ENDBRANCH   5   6
BRANCH   1  16
ATOM     16  C   UNL     1       6.118   5.751  16.167  0.00  0.00    +0.000 C 
ATOM     17  O   UNL     1       5.429   6.675  15.753  0.00  0.00    +0.000 OA
BRANCH  16  18
ATOM     18  O   UNL     1       6.534   4.707  15.390  0.00  0.00    +0.000 OA
BRANCH  18  20
ATOM     19  C   UNL     1       6.185   3.741  13.189  0.00  0.00    +0.000 C 
ATOM     20  C   UNL     1       5.539   4.202  14.485  0.00  0.00    +0.000 C 
ENDBRANCH  18  20
ENDBRANCH  16  18
ENDBRANCH   1  16
TORSDOF 6
ENDMDL
MODEL 7
REMARK VINA RESULT:      -6.8      1.658      3.526
REMARK  Name = 
REMARK  7 active torsions:
REMARK  status: ('A' for Active; 'I' for Inactive)
REMARK    1  A    between atoms: C_1  and  C_2
REMARK    2  A    between atoms: C_2  and  O_3
REMARK    3  A    between atoms: O_3  and  C_4
REMARK    4  A    between atoms: C_4  and  C_6
REMARK    5  A    between atoms: C_10  and  C_11
REMARK    6  A    between atoms: C_14  and  O_15
REMARK    7  A    between atoms: C_16  and  O_17
REMARK                            x       y       z     vdW  Elec       q    Type
REMARK                         _______ _______ _______ _____ _____    ______ ____
ROOT
ATOM      1  C   UNL     1       5.998   5.409  17.150  0.00  0.00    +0.000 A 
ATOM      2  N   UNL     1       7.278   5.757  17.560  0.00  0.00    +0.000 NA
ATOM      3  C   UNL     1       7.313   5.374  18.815  0.00  0.00    +0.000 A 
ATOM      4  O   UNL     1       6.180   4.779  19.273  0.00  0.00    +0.000 OA
ATOM      5  C   UNL     1       5.336   4.778  18.188  0.00  0.00    +0.000 A 
ENDROOT
BRANCH   5   6
ATOM      6  C   UNL     1       4.070   4.078  18.360  0.00  0.00    +0.000 A 
ATOM      7  C   UNL     1       3.771   2.927  17.610  0.00  0.00    +0.000 A 
ATOM      8  C   UNL     1       2.533   2.284  17.740  0.00  0.00    +0.000 A 
ATOM      9  C   UNL     1       1.590   2.797  18.619  0.00  0.00    +0.000 A 
ATOM     10  C   UNL     1       1.881   3.928  19.375  0.00  0.00    +0.000 A 
ATOM     11  C   UNL     1       3.106   4.569  19.252  0.00  0.00    +0.000 A 
BRANCH   9  12
ATOM     12  O   UNL     1       0.353   2.236  18.770  0.00  0.00    +0.000 OA
ATOM     13  H   UNL     1       0.450   1.270  18.702  0.00  0.00    +0.000 HD
ENDBRANCH   9  12
BRANCH  10  14
ATOM     14  O   UNL     1       0.951   4.435  20.236  0.00  0.00    +0.000 OA
ATOM     15  H   UNL     1       1.415   5.157  20.704  0.00  0.00    +0.000 HD
ENDBRANCH  10  14
ENDBRANCH   5   6
BRANCH   1  16
ATOM     16  C   UNL     1       5.443   5.672  15.837  0.00  0.00    +0.000 C 
ATOM     17  O   UNL     1       5.126   6.793  15.458  0.00  0.00    +0.000 OA
BRANCH  16  18
ATOM     18  O   UNL     1       5.244   4.537  15.102  0.00  0.00    +0.000 OA
BRANCH  18  20
ATOM     19  C   UNL     1       6.086   3.658  13.000  0.00  0.00    +0.000 C 
ATOM     20  C   UNL     1       6.415   4.044  14.433  0.00  0.00    +0.000 C 
ENDBRANCH  18  20
ENDBRANCH  16  18
ENDBRANCH   1  16
TORSDOF 6
ENDMDL
MODEL 8
REMARK VINA RESULT:      -6.8      1.343      1.387
REMARK  Name = 
REMARK  7 active torsions:
REMARK  status: ('A' for Active; 'I' for Inactive)
REMARK    1  A    between atoms: C_1  and  C_2
REMARK    2  A    between atoms: C_2  and  O_3
REMARK    3  A    between atoms: O_3  and  C_4
REMARK    4  A    between atoms: C_4  and  C_6
REMARK    5  A    between atoms: C_10  and  C_11
REMARK    6  A    between atoms: C_14  and  O_15
REMARK    7  A    between atoms: C_16  and  O_17
REMARK                            x       y       z     vdW  Elec       q    Type
REMARK                         _______ _______ _______ _____ _____    ______ ____
ROOT
ATOM      1  C   UNL     1       6.727   4.893  17.515  0.00  0.00    +0.000 A 
ATOM      2  N   UNL     1       7.480   4.744  16.359  0.00  0.00    +0.000 NA
ATOM      3  C   UNL     1       6.710   4.018  15.582  0.00  0.00    +0.000 A 
ATOM      4  O   UNL     1       5.500   3.689  16.107  0.00  0.00    +0.000 OA
ATOM      5  C   UNL     1       5.499   4.277  17.349  0.00  0.00    +0.000 A 
ENDROOT
BRANCH   5   6
ATOM      6  C   UNL     1       4.254   4.189  18.100  0.00  0.00    +0.000 A 
ATOM      7  C   UNL     1       3.121   4.927  17.713  0.00  0.00    +0.000 A 
ATOM      8  C   UNL     1       1.940   4.881  18.464  0.00  0.00    +0.000 A 
ATOM      9  C   UNL     1       1.893   4.097  19.608  0.00  0.00    +0.000 A 
ATOM     10  C   UNL     1       3.004   3.352  19.992  0.00  0.00    +0.000 A 
ATOM     11  C   UNL     1       4.177   3.393  19.251  0.00  0.00    +0.000 A 
BRANCH   9  12
ATOM     12  O   UNL     1       0.782   4.032  20.402  0.00  0.00    +0.000 OA
ATOM     13  H   UNL     1       0.182   3.366  20.026  0.00  0.00    +0.000 HD
ENDBRANCH   9  12
BRANCH  10  14
ATOM     14  O   UNL     1       2.958   2.585  21.120  0.00  0.00    +0.000 OA
ATOM     15  H   UNL     1       2.027   2.294  21.184  0.00  0.00    +0.000 HD
ENDBRANCH  10  14
ENDBRANCH   5   6
BRANCH   1  16
ATOM     16  C   UNL     1       7.165   5.583  18.712  0.00  0.00    +0.000 C 
ATOM     17  O   UNL     1       6.751   5.307  19.831  0.00  0.00    +0.000 OA
BRANCH  16  18
ATOM     18  O   UNL     1       8.023   6.614  18.452  0.00  0.00    +0.000 OA
BRANCH  18  20
ATOM     19  C   UNL     1       8.182   8.987  17.958  0.00  0.00    +0.000 C 
ATOM     20  C   UNL     1       7.458   7.681  17.674  0.00  0.00    +0.000 C 
ENDBRANCH  18  20
ENDBRANCH  16  18
ENDBRANCH   1  16
TORSDOF 6
ENDMDL
MODEL 9
REMARK VINA RESULT:      -6.7      3.349      5.886
REMARK  Name = 
REMARK  7 active torsions:
REMARK  status: ('A' for Active; 'I' for Inactive)
REMARK    1  A    between atoms: C_1  and  C_2
REMARK    2  A    between atoms: C_2  and  O_3
REMARK    3  A    between atoms: O_3  and  C_4
REMARK    4  A    between atoms: C_4  and  C_6
REMARK    5  A    between atoms: C_10  and  C_11
REMARK    6  A    between atoms: C_14  and  O_15
REMARK    7  A    between atoms: C_16  and  O_17
REMARK                            x       y       z     vdW  Elec       q    Type
REMARK                         _______ _______ _______ _____ _____    ______ ____
ROOT
ATOM      1  C   UNL     1       3.138   4.203  18.495  0.00  0.00    +0.000 A 
ATOM      2  N   UNL     1       4.281   3.416  18.513  0.00  0.00    +0.000 NA
ATOM      3  C   UNL     1       5.241   4.275  18.764  0.00  0.00    +0.000 A 
ATOM      4  O   UNL     1       4.839   5.562  18.939  0.00  0.00    +0.000 OA
ATOM      5  C   UNL     1       3.474   5.513  18.791  0.00  0.00    +0.000 A 
ENDROOT
BRANCH   5   6
ATOM      6  C   UNL     1       2.755   6.752  19.053  0.00  0.00    +0.000 A 
ATOM      7  C   UNL     1       2.092   6.961  20.276  0.00  0.00    +0.000 A 
ATOM      8  C   UNL     1       1.359   8.131  20.508  0.00  0.00    +0.000 A 
ATOM      9  C   UNL     1       1.285   9.094  19.512  0.00  0.00    +0.000 A 
ATOM     10  C   UNL     1       1.948   8.904  18.304  0.00  0.00    +0.000 A 
ATOM     11  C   UNL     1       2.677   7.747  18.069  0.00  0.00    +0.000 A 
BRANCH   9  12
ATOM     12  O   UNL     1       0.561  10.244  19.663  0.00  0.00    +0.000 OA
ATOM     13  H   UNL     1      -0.178  10.058  20.268  0.00  0.00    +0.000 HD
ENDBRANCH   9  12
BRANCH  10  14
ATOM     14  O   UNL     1       1.870   9.851  17.323  0.00  0.00    +0.000 OA
ATOM     15  H   UNL     1       1.134  10.432  17.598  0.00  0.00    +0.000 HD
ENDBRANCH  10  14
ENDBRANCH   5   6
BRANCH   1  16
ATOM     16  C   UNL     1       1.801   3.725  18.205  0.00  0.00    +0.000 C 
ATOM     17  O   UNL     1       1.123   4.155  17.280  0.00  0.00    +0.000 OA
BRANCH  16  18
ATOM     18  O   UNL     1       1.352   2.806  19.111  0.00  0.00    +0.000 OA
BRANCH  18  20
ATOM     19  C   UNL     1       1.706   2.849  21.514  0.00  0.00    +0.000 C 
ATOM     20  C   UNL     1       0.880   3.366  20.347  0.00  0.00    +0.000 C 
ENDBRANCH  18  20
ENDBRANCH  16  18
ENDBRANCH   1  16
TORSDOF 6
ENDMDL
