MODEL 1
REMARK VINA RESULT:      -8.8      0.000      0.000
REMARK  Name = 
REMARK  10 active torsions:
REMARK  status: ('A' for Active; 'I' for Inactive)
REMARK    1  A    between atoms: C_4  and  C_5
REMARK    2  A    between atoms: C_5  and  N_6
REMARK    3  A    between atoms: C_10  and  C_11
REMARK    4  A    between atoms: C_11  and  N_12
REMARK    5  A    between atoms: N_12  and  C_13
REMARK    6  A    between atoms: C_13  and  C_14
REMARK    7  A    between atoms: C_14  and  C_15
REMARK    8  A    between atoms: C_15  and  C_16
REMARK    9  A    between atoms: C_16  and  C_17
REMARK   10  A    between atoms: C_16  and  C_23
REMARK                            x       y       z     vdW  Elec       q    Type
REMARK                         _______ _______ _______ _____ _____    ______ ____
ROOT
ATOM      1  C   UNL     1       3.628   2.000  18.145  0.00  0.00    +0.000 C 
ENDROOT
BRANCH   1   2
ATOM      2  N   UNL     1       2.221   2.082  17.747  0.00  0.00    +0.000 NA
ATOM      3  H   UNL     1       2.175   2.096  16.725  0.00  0.00    +0.000 HD
BRANCH   2   4
ATOM      4  C   UNL     1       1.618   3.324  18.246  0.00  0.00    +0.000 C 
BRANCH   4   9
ATOM      5  N   UNL     1       2.474   4.344  20.410  0.00  0.00    +0.000 N 
ATOM      6  N   UNL     1       2.368   4.112  21.734  0.00  0.00    +0.000 NA
ATOM      7  N   UNL     1       1.546   3.081  21.844  0.00  0.00    +0.000 NA
ATOM      8  N   UNL     1       1.149   2.634  20.610  0.00  0.00    +0.000 NA
ATOM      9  C   UNL     1       1.734   3.418  19.725  0.00  0.00    +0.000 A 
BRANCH   5  10
ATOM     10  C   UNL     1       3.378   5.365  19.921  0.00  0.00    +0.000 C 
BRANCH  10  14
ATOM     11  C   UNL     1       1.478   9.043  18.682  0.00  0.00    +0.000 A 
ATOM     12  C   UNL     1       1.334   8.596  19.992  0.00  0.00    +0.000 A 
ATOM     13  C   UNL     1       1.930   7.397  20.392  0.00  0.00    +0.000 A 
ATOM     14  C   UNL     1       2.667   6.624  19.479  0.00  0.00    +0.000 A 
ATOM     15  C   UNL     1       2.801   7.087  18.161  0.00  0.00    +0.000 A 
ATOM     16  C   UNL     1       2.210   8.291  17.766  0.00  0.00    +0.000 A 
ENDBRANCH  10  14
ENDBRANCH   5  10
ENDBRANCH   4   9
ENDBRANCH   2   4
ENDBRANCH   1   2
BRANCH   1  17
ATOM     17  C   UNL     1       4.355   3.306  17.794  0.00  0.00    +0.000 C 
BRANCH  17  18
ATOM     18  C   UNL     1       4.803   3.273  16.328  0.00  0.00    +0.000 C 
BRANCH  18  19
ATOM     19  C   UNL     1       5.293   4.631  15.757  0.00  0.00    +0.000 C 
BRANCH  19  20
ATOM     20  C   UNL     1       6.177   5.385  16.746  0.00  0.00    +0.000 A 
ATOM     21  C   UNL     1       6.173   6.787  16.807  0.00  0.00    +0.000 A 
ATOM     22  C   UNL     1       7.037   7.469  17.668  0.00  0.00    +0.000 A 
ATOM     23  C   UNL     1       7.911   6.758  18.486  0.00  0.00    +0.000 A 
ATOM     24  C   UNL     1       7.914   5.367  18.454  0.00  0.00    +0.000 A 
ATOM     25  C   UNL     1       7.053   4.683  17.590  0.00  0.00    +0.000 A 
ENDBRANCH  19  20
BRANCH  19  26
ATOM     26  C   UNL     1       5.950   4.466  14.380  0.00  0.00    +0.000 A 
ATOM     27  C   UNL     1       5.348   3.648  13.409  0.00  0.00    +0.000 A 
ATOM     28  C   UNL     1       5.958   3.439  12.167  0.00  0.00    +0.000 A 
ATOM     29  C   UNL     1       7.174   4.050  11.872  0.00  0.00    +0.000 A 
ATOM     30  C   UNL     1       7.770   4.887  12.808  0.00  0.00    +0.000 A 
ATOM     31  C   UNL     1       7.161   5.098  14.045  0.00  0.00    +0.000 A 
ENDBRANCH  19  26
ENDBRANCH  18  19
ENDBRANCH  17  18
ENDBRANCH   1  17
TORSDOF 10
ENDMDL
MODEL 2
REMARK VINA RESULT:      -8.7      4.623      7.150
REMARK  Name = 
REMARK  10 active torsions:
REMARK  status: ('A' for Active; 'I' for Inactive)
REMARK    1  A    between atoms: C_4  and  C_5
REMARK    2  A    between atoms: C_5  and  N_6
REMARK    3  A    between atoms: C_10  and  C_11
REMARK    4  A    between atoms: C_11  and  N_12
REMARK    5  A    between atoms: N_12  and  C_13
REMARK    6  A    between atoms: C_13  and  C_14
REMARK    7  A    between atoms: C_14  and  C_15
REMARK    8  A    between atoms: C_15  and  C_16
REMARK    9  A    between atoms: C_16  and  C_17
REMARK   10  A    between atoms: C_16  and  C_23
REMARK                            x       y       z     vdW  Elec       q    Type
REMARK                         _______ _______ _______ _____ _____    ______ ____
ROOT
ATOM      1  C   UNL     1       1.522   8.960  17.914  0.00  0.00    +0.000 C 
ENDROOT
BRANCH   1   2
ATOM      2  N   UNL     1       1.609  10.390  17.614  0.00  0.00    +0.000 NA
ATOM      3  H   UNL     1       2.425  10.545  17.015  0.00  0.00    +0.000 HD
BRANCH   2   4
ATOM      4  C   UNL     1       1.797  11.164  18.848  0.00  0.00    +0.000 C 
BRANCH   4   9
ATOM      5  N   UNL     1      -0.426  12.370  19.088  0.00  0.00    +0.000 N 
ATOM      6  N   UNL     1      -0.892  13.632  18.999  0.00  0.00    +0.000 NA
ATOM      7  N   UNL     1       0.172  14.382  18.757  0.00  0.00    +0.000 NA
ATOM      8  N   UNL     1       1.304  13.614  18.663  0.00  0.00    +0.000 NA
ATOM      9  C   UNL     1       0.925  12.366  18.862  0.00  0.00    +0.000 A 
BRANCH   5  10
ATOM     10  C   UNL     1      -1.347  11.266  19.263  0.00  0.00    +0.000 C 
BRANCH  10  14
ATOM     11  C   UNL     1      -3.942  10.487  15.897  0.00  0.00    +0.000 A 
ATOM     12  C   UNL     1      -2.672   9.920  15.939  0.00  0.00    +0.000 A 
ATOM     13  C   UNL     1      -1.821  10.185  17.016  0.00  0.00    +0.000 A 
ATOM     14  C   UNL     1      -2.229  11.033  18.058  0.00  0.00    +0.000 A 
ATOM     15  C   UNL     1      -3.513  11.599  18.001  0.00  0.00    +0.000 A 
ATOM     16  C   UNL     1      -4.364  11.326  16.926  0.00  0.00    +0.000 A 
ENDBRANCH  10  14
ENDBRANCH   5  10
ENDBRANCH   4   9
ENDBRANCH   2   4
ENDBRANCH   1   2
BRANCH   1  17
ATOM     17  C   UNL     1       2.843   8.263  17.562  0.00  0.00    +0.000 C 
BRANCH  17  18
ATOM     18  C   UNL     1       3.078   7.084  18.513  0.00  0.00    +0.000 C 
BRANCH  18  19
ATOM     19  C   UNL     1       3.164   5.692  17.829  0.00  0.00    +0.000 C 
BRANCH  19  20
ATOM     20  C   UNL     1       4.606   5.259  17.586  0.00  0.00    +0.000 A 
ATOM     21  C   UNL     1       5.587   5.394  18.580  0.00  0.00    +0.000 A 
ATOM     22  C   UNL     1       6.920   5.058  18.323  0.00  0.00    +0.000 A 
ATOM     23  C   UNL     1       7.288   4.575  17.071  0.00  0.00    +0.000 A 
ATOM     24  C   UNL     1       6.324   4.416  16.078  0.00  0.00    +0.000 A 
ATOM     25  C   UNL     1       4.992   4.754  16.333  0.00  0.00    +0.000 A 
ENDBRANCH  19  20
BRANCH  19  26
ATOM     26  C   UNL     1       2.347   4.635  18.584  0.00  0.00    +0.000 A 
ATOM     27  C   UNL     1       1.990   3.436  17.945  0.00  0.00    +0.000 A 
ATOM     28  C   UNL     1       1.197   2.484  18.595  0.00  0.00    +0.000 A 
ATOM     29  C   UNL     1       0.756   2.709  19.897  0.00  0.00    +0.000 A 
ATOM     30  C   UNL     1       1.125   3.875  20.557  0.00  0.00    +0.000 A 
ATOM     31  C   UNL     1       1.917   4.824  19.910  0.00  0.00    +0.000 A 
ENDBRANCH  19  26
ENDBRANCH  18  19
ENDBRANCH  17  18
ENDBRANCH   1  17
TORSDOF 10
ENDMDL
MODEL 3
REMARK VINA RESULT:      -8.6      4.252      6.684
REMARK  Name = 
REMARK  10 active torsions:
REMARK  status: ('A' for Active; 'I' for Inactive)
REMARK    1  A    between atoms: C_4  and  C_5
REMARK    2  A    between atoms: C_5  and  N_6
REMARK    3  A    between atoms: C_10  and  C_11
REMARK    4  A    between atoms: C_11  and  N_12
REMARK    5  A    between atoms: N_12  and  C_13
REMARK    6  A    between atoms: C_13  and  C_14
REMARK    7  A    between atoms: C_14  and  C_15
REMARK    8  A    between atoms: C_15  and  C_16
REMARK    9  A    between atoms: C_16  and  C_17
REMARK   10  A    between atoms: C_16  and  C_23
REMARK                            x       y       z     vdW  Elec       q    Type
REMARK                         _______ _______ _______ _____ _____    ______ ____
ROOT
ATOM      1  C   UNL     1       1.562   9.487  18.521  0.00  0.00    +0.000 C 
ENDROOT
BRANCH   1   2
ATOM      2  N   UNL     1       1.544  10.768  17.814  0.00  0.00    +0.000 NA
ATOM      3  H   UNL     1       2.233  10.729  17.058  0.00  0.00    +0.000 HD
BRANCH   2   4
ATOM      4  C   UNL     1       1.922  11.860  18.718  0.00  0.00    +0.000 C 
BRANCH   4   9
ATOM      5  N   UNL     1      -0.313  12.260  19.857  0.00  0.00    +0.000 N 
ATOM      6  N   UNL     1      -0.814  12.237  21.109  0.00  0.00    +0.000 NA
ATOM      7  N   UNL     1       0.190  11.856  21.882  0.00  0.00    +0.000 NA
ATOM      8  N   UNL     1       1.331  11.663  21.146  0.00  0.00    +0.000 NA
ATOM      9  C   UNL     1       1.013  11.921  19.892  0.00  0.00    +0.000 A 
BRANCH   5  10
ATOM     10  C   UNL     1      -1.131  12.723  18.755  0.00  0.00    +0.000 C 
BRANCH  10  14
ATOM     11  C   UNL     1      -4.211   9.973  17.480  0.00  0.00    +0.000 A 
ATOM     12  C   UNL     1      -4.546  11.079  18.256  0.00  0.00    +0.000 A 
ATOM     13  C   UNL     1      -3.551  11.960  18.688  0.00  0.00    +0.000 A 
ATOM     14  C   UNL     1      -2.205  11.736  18.358  0.00  0.00    +0.000 A 
ATOM     15  C   UNL     1      -1.881  10.616  17.577  0.00  0.00    +0.000 A 
ATOM     16  C   UNL     1      -2.880   9.740  17.140  0.00  0.00    +0.000 A 
ENDBRANCH  10  14
ENDBRANCH   5  10
ENDBRANCH   4   9
ENDBRANCH   2   4
ENDBRANCH   1   2
BRANCH   1  17
ATOM     17  C   UNL     1       2.466   8.488  17.785  0.00  0.00    +0.000 C 
BRANCH  17  18
ATOM     18  C   UNL     1       2.598   7.202  18.608  0.00  0.00    +0.000 C 
BRANCH  18  19
ATOM     19  C   UNL     1       3.266   6.011  17.870  0.00  0.00    +0.000 C 
BRANCH  19  20
ATOM     20  C   UNL     1       4.782   6.003  18.044  0.00  0.00    +0.000 A 
ATOM     21  C   UNL     1       5.387   5.387  19.150  0.00  0.00    +0.000 A 
ATOM     22  C   UNL     1       6.771   5.446  19.335  0.00  0.00    +0.000 A 
ATOM     23  C   UNL     1       7.570   6.116  18.413  0.00  0.00    +0.000 A 
ATOM     24  C   UNL     1       6.989   6.715  17.299  0.00  0.00    +0.000 A 
ATOM     25  C   UNL     1       5.605   6.660  17.114  0.00  0.00    +0.000 A 
ENDBRANCH  19  20
BRANCH  19  26
ATOM     26  C   UNL     1       2.620   4.671  18.246  0.00  0.00    +0.000 A 
ATOM     27  C   UNL     1       2.905   3.519  17.495  0.00  0.00    +0.000 A 
ATOM     28  C   UNL     1       2.283   2.299  17.786  0.00  0.00    +0.000 A 
ATOM     29  C   UNL     1       1.374   2.209  18.836  0.00  0.00    +0.000 A 
ATOM     30  C   UNL     1       1.101   3.331  19.611  0.00  0.00    +0.000 A 
ATOM     31  C   UNL     1       1.723   4.546  19.322  0.00  0.00    +0.000 A 
ENDBRANCH  19  26
ENDBRANCH  18  19
ENDBRANCH  17  18
ENDBRANCH   1  17
TORSDOF 10
ENDMDL
MODEL 4
REMARK VINA RESULT:      -8.6      4.494      7.079
REMARK  Name = 
REMARK  10 active torsions:
REMARK  status: ('A' for Active; 'I' for Inactive)
REMARK    1  A    between atoms: C_4  and  C_5
REMARK    2  A    between atoms: C_5  and  N_6
REMARK    3  A    between atoms: C_10  and  C_11
REMARK    4  A    between atoms: C_11  and  N_12
REMARK    5  A    between atoms: N_12  and  C_13
REMARK    6  A    between atoms: C_13  and  C_14
REMARK    7  A    between atoms: C_14  and  C_15
REMARK    8  A    between atoms: C_15  and  C_16
REMARK    9  A    between atoms: C_16  and  C_17
REMARK   10  A    between atoms: C_16  and  C_23
REMARK                            x       y       z     vdW  Elec       q    Type
REMARK                         _______ _______ _______ _____ _____    ______ ____
ROOT
ATOM      1  C   UNL     1       1.014   9.432  17.912  0.00  0.00    +0.000 C 
ENDROOT
BRANCH   1   2
ATOM      2  N   UNL     1       0.937  10.203  19.155  0.00  0.00    +0.000 NA
ATOM      3  H   UNL     1       1.645   9.845  19.802  0.00  0.00    +0.000 HD
BRANCH   2   4
ATOM      4  C   UNL     1      -0.380  10.035  19.782  0.00  0.00    +0.000 C 
BRANCH   4   9
ATOM      5  N   UNL     1      -0.686  11.284  21.973  0.00  0.00    +0.000 N 
ATOM      6  N   UNL     1      -0.433  11.082  23.282  0.00  0.00    +0.000 NA
ATOM      7  N   UNL     1       0.076   9.862  23.356  0.00  0.00    +0.000 NA
ATOM      8  N   UNL     1       0.177   9.295  22.112  0.00  0.00    +0.000 NA
ATOM      9  C   UNL     1      -0.291  10.185  21.258  0.00  0.00    +0.000 A 
BRANCH   5  10
ATOM     10  C   UNL     1      -1.175  12.569  21.517  0.00  0.00    +0.000 C 
BRANCH  10  14
ATOM     11  C   UNL     1      -5.441  12.908  22.110  0.00  0.00    +0.000 A 
ATOM     12  C   UNL     1      -4.922  12.858  20.820  0.00  0.00    +0.000 A 
ATOM     13  C   UNL     1      -3.542  12.768  20.623  0.00  0.00    +0.000 A 
ATOM     14  C   UNL     1      -2.663  12.742  21.718  0.00  0.00    +0.000 A 
ATOM     15  C   UNL     1      -3.201  12.797  23.013  0.00  0.00    +0.000 A 
ATOM     16  C   UNL     1      -4.583  12.879  23.207  0.00  0.00    +0.000 A 
ENDBRANCH  10  14
ENDBRANCH   5  10
ENDBRANCH   4   9
ENDBRANCH   2   4
ENDBRANCH   1   2
BRANCH   1  17
ATOM     17  C   UNL     1       2.402   8.792  17.772  0.00  0.00    +0.000 C 
BRANCH  17  18
ATOM     18  C   UNL     1       2.520   7.594  18.722  0.00  0.00    +0.000 C 
BRANCH  18  19
ATOM     19  C   UNL     1       2.929   6.256  18.048  0.00  0.00    +0.000 C 
BRANCH  19  20
ATOM     20  C   UNL     1       4.441   6.058  18.034  0.00  0.00    +0.000 A 
ATOM     21  C   UNL     1       5.110   5.461  19.114  0.00  0.00    +0.000 A 
ATOM     22  C   UNL     1       6.503   5.347  19.120  0.00  0.00    +0.000 A 
ATOM     23  C   UNL     1       7.246   5.822  18.043  0.00  0.00    +0.000 A 
ATOM     24  C   UNL     1       6.598   6.399  16.954  0.00  0.00    +0.000 A 
ATOM     25  C   UNL     1       5.206   6.516  16.948  0.00  0.00    +0.000 A 
ENDBRANCH  19  20
BRANCH  19  26
ATOM     26  C   UNL     1       2.180   5.061  18.654  0.00  0.00    +0.000 A 
ATOM     27  C   UNL     1       1.873   5.048  20.025  0.00  0.00    +0.000 A 
ATOM     28  C   UNL     1       1.241   3.945  20.609  0.00  0.00    +0.000 A 
ATOM     29  C   UNL     1       0.897   2.841  19.832  0.00  0.00    +0.000 A 
ATOM     30  C   UNL     1       1.166   2.848  18.468  0.00  0.00    +0.000 A 
ATOM     31  C   UNL     1       1.793   3.949  17.885  0.00  0.00    +0.000 A 
ENDBRANCH  19  26
ENDBRANCH  18  19
ENDBRANCH  17  18
ENDBRANCH   1  17
TORSDOF 10
ENDMDL
MODEL 5
REMARK VINA RESULT:      -8.6      4.572      7.127
REMARK  Name = 
REMARK  10 active torsions:
REMARK  status: ('A' for Active; 'I' for Inactive)
REMARK    1  A    between atoms: C_4  and  C_5
REMARK    2  A    between atoms: C_5  and  N_6
REMARK    3  A    between atoms: C_10  and  C_11
REMARK    4  A    between atoms: C_11  and  N_12
REMARK    5  A    between atoms: N_12  and  C_13
REMARK    6  A    between atoms: C_13  and  C_14
REMARK    7  A    between atoms: C_14  and  C_15
REMARK    8  A    between atoms: C_15  and  C_16
REMARK    9  A    between atoms: C_16  and  C_17
REMARK   10  A    between atoms: C_16  and  C_23
REMARK                            x       y       z     vdW  Elec       q    Type
REMARK                         _______ _______ _______ _____ _____    ______ ____
ROOT
ATOM      1  C   UNL     1       1.663   8.766  17.763  0.00  0.00    +0.000 C 
ENDROOT
BRANCH   1   2
ATOM      2  N   UNL     1       1.657  10.209  17.514  0.00  0.00    +0.000 NA
ATOM      3  H   UNL     1       2.458  10.437  16.918  0.00  0.00    +0.000 HD
BRANCH   2   4
ATOM      4  C   UNL     1       1.802  10.949  18.773  0.00  0.00    +0.000 C 
BRANCH   4   9
ATOM      5  N   UNL     1      -0.398  12.201  18.982  0.00  0.00    +0.000 N 
ATOM      6  N   UNL     1      -0.836  13.473  18.888  0.00  0.00    +0.000 NA
ATOM      7  N   UNL     1       0.246  14.201  18.663  0.00  0.00    +0.000 NA
ATOM      8  N   UNL     1       1.363  13.410  18.584  0.00  0.00    +0.000 NA
ATOM      9  C   UNL     1       0.955  12.170  18.777  0.00  0.00    +0.000 A 
BRANCH   5  10
ATOM     10  C   UNL     1      -1.345  11.116  19.143  0.00  0.00    +0.000 C 
BRANCH  10  14
ATOM     11  C   UNL     1      -3.947  10.434  15.762  0.00  0.00    +0.000 A 
ATOM     12  C   UNL     1      -2.718   9.784  15.833  0.00  0.00    +0.000 A 
ATOM     13  C   UNL     1      -1.865  10.017  16.915  0.00  0.00    +0.000 A 
ATOM     14  C   UNL     1      -2.226  10.915  17.932  0.00  0.00    +0.000 A 
ATOM     15  C   UNL     1      -3.468  11.565  17.845  0.00  0.00    +0.000 A 
ATOM     16  C   UNL     1      -4.323  11.324  16.765  0.00  0.00    +0.000 A 
ENDBRANCH  10  14
ENDBRANCH   5  10
ENDBRANCH   4   9
ENDBRANCH   2   4
ENDBRANCH   1   2
BRANCH   1  17
ATOM     17  C   UNL     1       1.583   8.490  19.271  0.00  0.00    +0.000 C 
BRANCH  17  18
ATOM     18  C   UNL     1       2.484   7.302  19.630  0.00  0.00    +0.000 C 
BRANCH  18  19
ATOM     19  C   UNL     1       2.703   6.272  18.488  0.00  0.00    +0.000 C 
BRANCH  19  20
ATOM     20  C   UNL     1       4.174   6.145  18.103  0.00  0.00    +0.000 A 
ATOM     21  C   UNL     1       4.626   6.492  16.820  0.00  0.00    +0.000 A 
ATOM     22  C   UNL     1       5.963   6.307  16.457  0.00  0.00    +0.000 A 
ATOM     23  C   UNL     1       6.868   5.781  17.374  0.00  0.00    +0.000 A 
ATOM     24  C   UNL     1       6.442   5.450  18.658  0.00  0.00    +0.000 A 
ATOM     25  C   UNL     1       5.105   5.632  19.021  0.00  0.00    +0.000 A 
ENDBRANCH  19  20
BRANCH  19  26
ATOM     26  C   UNL     1       2.056   4.919  18.809  0.00  0.00    +0.000 A 
ATOM     27  C   UNL     1       1.531   4.679  20.091  0.00  0.00    +0.000 A 
ATOM     28  C   UNL     1       0.987   3.433  20.423  0.00  0.00    +0.000 A 
ATOM     29  C   UNL     1       0.950   2.410  19.478  0.00  0.00    +0.000 A 
ATOM     30  C   UNL     1       1.436   2.637  18.196  0.00  0.00    +0.000 A 
ATOM     31  C   UNL     1       1.976   3.881  17.864  0.00  0.00    +0.000 A 
ENDBRANCH  19  26
ENDBRANCH  18  19
ENDBRANCH  17  18
ENDBRANCH   1  17
TORSDOF 10
ENDMDL
MODEL 6
REMARK VINA RESULT:      -8.5      4.509      7.079
REMARK  Name = 
REMARK  10 active torsions:
REMARK  status: ('A' for Active; 'I' for Inactive)
REMARK    1  A    between atoms: C_4  and  C_5
REMARK    2  A    between atoms: C_5  and  N_6
REMARK    3  A    between atoms: C_10  and  C_11
REMARK    4  A    between atoms: C_11  and  N_12
REMARK    5  A    between atoms: N_12  and  C_13
REMARK    6  A    between atoms: C_13  and  C_14
REMARK    7  A    between atoms: C_14  and  C_15
REMARK    8  A    between atoms: C_15  and  C_16
REMARK    9  A    between atoms: C_16  and  C_17
REMARK   10  A    between atoms: C_16  and  C_23
REMARK                            x       y       z     vdW  Elec       q    Type
REMARK                         _______ _______ _______ _____ _____    ______ ____
ROOT
ATOM      1  C   UNL     1       1.288   9.114  17.953  0.00  0.00    +0.000 C 
ENDROOT
BRANCH   1   2
ATOM      2  N   UNL     1       1.204  10.066  19.063  0.00  0.00    +0.000 NA
ATOM      3  H   UNL     1       1.892   9.796  19.772  0.00  0.00    +0.000 HD
BRANCH   2   4
ATOM      4  C   UNL     1      -0.127  10.019  19.680  0.00  0.00    +0.000 C 
BRANCH   4   9
ATOM      5  N   UNL     1      -0.537  11.109  21.938  0.00  0.00    +0.000 N 
ATOM      6  N   UNL     1      -0.243  10.867  23.231  0.00  0.00    +0.000 NA
ATOM      7  N   UNL     1       0.398   9.709  23.234  0.00  0.00    +0.000 NA
ATOM      8  N   UNL     1       0.543   9.224  21.960  0.00  0.00    +0.000 NA
ATOM      9  C   UNL     1      -0.034  10.100  21.160  0.00  0.00    +0.000 A 
BRANCH   5  10
ATOM     10  C   UNL     1      -1.172  12.354  21.557  0.00  0.00    +0.000 C 
BRANCH  10  14
ATOM     11  C   UNL     1      -3.530  13.958  24.803  0.00  0.00    +0.000 A 
ATOM     12  C   UNL     1      -4.002  12.870  24.075  0.00  0.00    +0.000 A 
ATOM     13  C   UNL     1      -3.253  12.361  23.012  0.00  0.00    +0.000 A 
ATOM     14  C   UNL     1      -2.026  12.944  22.656  0.00  0.00    +0.000 A 
ATOM     15  C   UNL     1      -1.563  14.042  23.398  0.00  0.00    +0.000 A 
ATOM     16  C   UNL     1      -2.312  14.545  24.466  0.00  0.00    +0.000 A 
ENDBRANCH  10  14
ENDBRANCH   5  10
ENDBRANCH   4   9
ENDBRANCH   2   4
ENDBRANCH   1   2
BRANCH   1  17
ATOM     17  C   UNL     1       2.712   8.549  17.847  0.00  0.00    +0.000 C 
BRANCH  17  18
ATOM     18  C   UNL     1       2.842   7.300  18.726  0.00  0.00    +0.000 C 
BRANCH  18  19
ATOM     19  C   UNL     1       2.974   5.960  17.952  0.00  0.00    +0.000 C 
BRANCH  19  20
ATOM     20  C   UNL     1       4.431   5.577  17.710  0.00  0.00    +0.000 A 
ATOM     21  C   UNL     1       5.364   5.556  18.759  0.00  0.00    +0.000 A 
ATOM     22  C   UNL     1       6.710   5.271  18.514  0.00  0.00    +0.000 A 
ATOM     23  C   UNL     1       7.141   4.996  17.219  0.00  0.00    +0.000 A 
ATOM     24  C   UNL     1       6.226   4.992  16.171  0.00  0.00    +0.000 A 
ATOM     25  C   UNL     1       4.880   5.280  16.413  0.00  0.00    +0.000 A 
ENDBRANCH  19  20
BRANCH  19  26
ATOM     26  C   UNL     1       2.168   4.836  18.616  0.00  0.00    +0.000 A 
ATOM     27  C   UNL     1       1.817   4.933  19.974  0.00  0.00    +0.000 A 
ATOM     28  C   UNL     1       1.132   3.895  20.614  0.00  0.00    +0.000 A 
ATOM     29  C   UNL     1       0.777   2.748  19.907  0.00  0.00    +0.000 A 
ATOM     30  C   UNL     1       1.088   2.647  18.557  0.00  0.00    +0.000 A 
ATOM     31  C   UNL     1       1.769   3.683  17.917  0.00  0.00    +0.000 A 
ENDBRANCH  19  26
ENDBRANCH  18  19
ENDBRANCH  17  18
ENDBRANCH   1  17
TORSDOF 10
ENDMDL
MODEL 7
REMARK VINA RESULT:      -8.5      3.721      6.266
REMARK  Name = 
REMARK  10 active torsions:
REMARK  status: ('A' for Active; 'I' for Inactive)
REMARK    1  A    between atoms: C_4  and  C_5
REMARK    2  A    between atoms: C_5  and  N_6
REMARK    3  A    between atoms: C_10  and  C_11
REMARK    4  A    between atoms: C_11  and  N_12
REMARK    5  A    between atoms: N_12  and  C_13
REMARK    6  A    between atoms: C_13  and  C_14
REMARK    7  A    between atoms: C_14  and  C_15
REMARK    8  A    between atoms: C_15  and  C_16
REMARK    9  A    between atoms: C_16  and  C_17
REMARK   10  A    between atoms: C_16  and  C_23
REMARK                            x       y       z     vdW  Elec       q    Type
REMARK                         _______ _______ _______ _____ _____    ______ ____
ROOT
ATOM      1  C   UNL     1       1.776   7.051  20.564  0.00  0.00    +0.000 C 
ENDROOT
BRANCH   1   2
ATOM      2  N   UNL     1       1.678   8.231  21.425  0.00  0.00    +0.000 NA
ATOM      3  H   UNL     1       1.088   7.997  22.229  0.00  0.00    +0.000 HD
BRANCH   2   4
ATOM      4  C   UNL     1       1.045   9.342  20.704  0.00  0.00    +0.000 C 
BRANCH   4   9
ATOM      5  N   UNL     1      -0.571  11.227  21.242  0.00  0.00    +0.000 N 
ATOM      6  N   UNL     1      -1.255  11.681  22.311  0.00  0.00    +0.000 NA
ATOM      7  N   UNL     1      -0.982  10.831  23.289  0.00  0.00    +0.000 NA
ATOM      8  N   UNL     1      -0.112   9.860  22.867  0.00  0.00    +0.000 NA
ATOM      9  C   UNL     1       0.144  10.115  21.598  0.00  0.00    +0.000 A 
BRANCH   5  10
ATOM     10  C   UNL     1      -0.574  11.979  20.004  0.00  0.00    +0.000 C 
BRANCH  10  14
ATOM     11  C   UNL     1      -3.368  10.291  17.173  0.00  0.00    +0.000 A 
ATOM     12  C   UNL     1      -2.030   9.908  17.140  0.00  0.00    +0.000 A 
ATOM     13  C   UNL     1      -1.119  10.466  18.040  0.00  0.00    +0.000 A 
ATOM     14  C   UNL     1      -1.535  11.426  18.977  0.00  0.00    +0.000 A 
ATOM     15  C   UNL     1      -2.887  11.804  18.997  0.00  0.00    +0.000 A 
ATOM     16  C   UNL     1      -3.798  11.238  18.100  0.00  0.00    +0.000 A 
ENDBRANCH  10  14
ENDBRANCH   5  10
ENDBRANCH   4   9
ENDBRANCH   2   4
ENDBRANCH   1   2
BRANCH   1  17
ATOM     17  C   UNL     1       2.112   7.471  19.126  0.00  0.00    +0.000 C 
BRANCH  17  18
ATOM     18  C   UNL     1       3.441   6.839  18.698  0.00  0.00    +0.000 C 
BRANCH  18  19
ATOM     19  C   UNL     1       3.315   5.620  17.744  0.00  0.00    +0.000 C 
BRANCH  19  20
ATOM     20  C   UNL     1       4.634   5.295  17.051  0.00  0.00    +0.000 A 
ATOM     21  C   UNL     1       5.760   6.121  17.197  0.00  0.00    +0.000 A 
ATOM     22  C   UNL     1       6.942   5.851  16.502  0.00  0.00    +0.000 A 
ATOM     23  C   UNL     1       7.018   4.746  15.658  0.00  0.00    +0.000 A 
ATOM     24  C   UNL     1       5.919   3.905  15.516  0.00  0.00    +0.000 A 
ATOM     25  C   UNL     1       4.735   4.176  16.208  0.00  0.00    +0.000 A 
ENDBRANCH  19  20
BRANCH  19  26
ATOM     26  C   UNL     1       2.701   4.405  18.450  0.00  0.00    +0.000 A 
ATOM     27  C   UNL     1       3.370   3.811  19.534  0.00  0.00    +0.000 A 
ATOM     28  C   UNL     1       2.856   2.668  20.157  0.00  0.00    +0.000 A 
ATOM     29  C   UNL     1       1.662   2.105  19.713  0.00  0.00    +0.000 A 
ATOM     30  C   UNL     1       0.969   2.696  18.663  0.00  0.00    +0.000 A 
ATOM     31  C   UNL     1       1.481   3.837  18.043  0.00  0.00    +0.000 A 
ENDBRANCH  19  26
ENDBRANCH  18  19
ENDBRANCH  17  18
ENDBRANCH   1  17
TORSDOF 10
ENDMDL
MODEL 8
REMARK VINA RESULT:      -8.5      4.319      7.023
REMARK  Name = 
REMARK  10 active torsions:
REMARK  status: ('A' for Active; 'I' for Inactive)
REMARK    1  A    between atoms: C_4  and  C_5
REMARK    2  A    between atoms: C_5  and  N_6
REMARK    3  A    between atoms: C_10  and  C_11
REMARK    4  A    between atoms: C_11  and  N_12
REMARK    5  A    between atoms: N_12  and  C_13
REMARK    6  A    between atoms: C_13  and  C_14
REMARK    7  A    between atoms: C_14  and  C_15
REMARK    8  A    between atoms: C_15  and  C_16
REMARK    9  A    between atoms: C_16  and  C_17
REMARK   10  A    between atoms: C_16  and  C_23
REMARK                            x       y       z     vdW  Elec       q    Type
REMARK                         _______ _______ _______ _____ _____    ______ ____
ROOT
ATOM      1  C   UNL     1       1.756   9.535  18.127  0.00  0.00    +0.000 C 
ENDROOT
BRANCH   1   2
ATOM      2  N   UNL     1       1.262   9.321  19.489  0.00  0.00    +0.000 NA
ATOM      3  H   UNL     1       0.807   8.404  19.527  0.00  0.00    +0.000 HD
BRANCH   2   4
ATOM      4  C   UNL     1       0.263  10.338  19.839  0.00  0.00    +0.000 C 
BRANCH   4   9
ATOM      5  N   UNL     1      -0.575  11.400  21.989  0.00  0.00    +0.000 N 
ATOM      6  N   UNL     1      -0.579  11.116  23.308  0.00  0.00    +0.000 NA
ATOM      7  N   UNL     1      -0.007   9.927  23.412  0.00  0.00    +0.000 NA
ATOM      8  N   UNL     1       0.387   9.462  22.184  0.00  0.00    +0.000 NA
ATOM      9  C   UNL     1       0.038  10.383  21.307  0.00  0.00    +0.000 A 
BRANCH   5  10
ATOM     10  C   UNL     1      -1.055  12.684  21.521  0.00  0.00    +0.000 C 
BRANCH  10  14
ATOM     11  C   UNL     1      -5.283  12.530  20.644  0.00  0.00    +0.000 A 
ATOM     12  C   UNL     1      -4.356  12.392  19.615  0.00  0.00    +0.000 A 
ATOM     13  C   UNL     1      -2.988  12.461  19.891  0.00  0.00    +0.000 A 
ATOM     14  C   UNL     1      -2.532  12.683  21.200  0.00  0.00    +0.000 A 
ATOM     15  C   UNL     1      -3.478  12.823  22.227  0.00  0.00    +0.000 A 
ATOM     16  C   UNL     1      -4.846  12.746  21.949  0.00  0.00    +0.000 A 
ENDBRANCH  10  14
ENDBRANCH   5  10
ENDBRANCH   4   9
ENDBRANCH   2   4
ENDBRANCH   1   2
BRANCH   1  17
ATOM     17  C   UNL     1       2.017   8.187  17.441  0.00  0.00    +0.000 C 
BRANCH  17  18
ATOM     18  C   UNL     1       2.687   7.223  18.427  0.00  0.00    +0.000 C 
BRANCH  18  19
ATOM     19  C   UNL     1       2.796   5.752  17.941  0.00  0.00    +0.000 C 
BRANCH  19  20
ATOM     20  C   UNL     1       4.199   5.411  17.450  0.00  0.00    +0.000 A 
ATOM     21  C   UNL     1       4.435   4.300  16.625  0.00  0.00    +0.000 A 
ATOM     22  C   UNL     1       5.733   3.958  16.237  0.00  0.00    +0.000 A 
ATOM     23  C   UNL     1       6.813   4.727  16.662  0.00  0.00    +0.000 A 
ATOM     24  C   UNL     1       6.596   5.845  17.463  0.00  0.00    +0.000 A 
ATOM     25  C   UNL     1       5.299   6.186  17.854  0.00  0.00    +0.000 A 
ENDBRANCH  19  20
BRANCH  19  26
ATOM     26  C   UNL     1       2.281   4.764  18.996  0.00  0.00    +0.000 A 
ATOM     27  C   UNL     1       1.383   3.748  18.626  0.00  0.00    +0.000 A 
ATOM     28  C   UNL     1       0.856   2.872  19.581  0.00  0.00    +0.000 A 
ATOM     29  C   UNL     1       1.225   2.989  20.919  0.00  0.00    +0.000 A 
ATOM     30  C   UNL     1       2.136   3.967  21.300  0.00  0.00    +0.000 A 
ATOM     31  C   UNL     1       2.663   4.840  20.347  0.00  0.00    +0.000 A 
ENDBRANCH  19  26
ENDBRANCH  18  19
ENDBRANCH  17  18
ENDBRANCH   1  17
TORSDOF 10
ENDMDL
MODEL 9
REMARK VINA RESULT:      -8.5      3.749      6.302
REMARK  Name = 
REMARK  10 active torsions:
REMARK  status: ('A' for Active; 'I' for Inactive)
REMARK    1  A    between atoms: C_4  and  C_5
REMARK    2  A    between atoms: C_5  and  N_6
REMARK    3  A    between atoms: C_10  and  C_11
REMARK    4  A    between atoms: C_11  and  N_12
REMARK    5  A    between atoms: N_12  and  C_13
REMARK    6  A    between atoms: C_13  and  C_14
REMARK    7  A    between atoms: C_14  and  C_15
REMARK    8  A    between atoms: C_15  and  C_16
REMARK    9  A    between atoms: C_16  and  C_17
REMARK   10  A    between atoms: C_16  and  C_23
REMARK                            x       y       z     vdW  Elec       q    Type
REMARK                         _______ _______ _______ _____ _____    ______ ____
ROOT
ATOM      1  C   UNL     1       1.901   7.493  20.363  0.00  0.00    +0.000 C 
ENDROOT
BRANCH   1   2
ATOM      2  N   UNL     1       0.803   8.330  20.848  0.00  0.00    +0.000 NA
ATOM      3  H   UNL     1       0.292   8.694  20.039  0.00  0.00    +0.000 HD
BRANCH   2   4
ATOM      4  C   UNL     1       1.326   9.473  21.607  0.00  0.00    +0.000 C 
BRANCH   4   9
ATOM      5  N   UNL     1      -0.413  11.312  21.388  0.00  0.00    +0.000 N 
ATOM      6  N   UNL     1      -1.342  11.907  22.165  0.00  0.00    +0.000 NA
ATOM      7  N   UNL     1      -1.289  11.269  23.324  0.00  0.00    +0.000 NA
ATOM      8  N   UNL     1      -0.322  10.297  23.307  0.00  0.00    +0.000 NA
ATOM      9  C   UNL     1       0.221  10.334  22.105  0.00  0.00    +0.000 A 
BRANCH   5  10
ATOM     10  C   UNL     1      -0.140  11.824  20.061  0.00  0.00    +0.000 C 
BRANCH  10  14
ATOM     11  C   UNL     1      -3.055  10.386  17.214  0.00  0.00    +0.000 A 
ATOM     12  C   UNL     1      -1.781   9.826  17.244  0.00  0.00    +0.000 A 
ATOM     13  C   UNL     1      -0.829  10.302  18.150  0.00  0.00    +0.000 A 
ATOM     14  C   UNL     1      -1.137  11.354  19.027  0.00  0.00    +0.000 A 
ATOM     15  C   UNL     1      -2.426  11.910  18.983  0.00  0.00    +0.000 A 
ATOM     16  C   UNL     1      -3.379  11.426  18.081  0.00  0.00    +0.000 A 
ENDBRANCH  10  14
ENDBRANCH   5  10
ENDBRANCH   4   9
ENDBRANCH   2   4
ENDBRANCH   1   2
BRANCH   1  17
ATOM     17  C   UNL     1       2.014   7.600  18.835  0.00  0.00    +0.000 C 
BRANCH  17  18
ATOM     18  C   UNL     1       3.361   7.033  18.373  0.00  0.00    +0.000 C 
BRANCH  18  19
ATOM     19  C   UNL     1       3.279   5.697  17.584  0.00  0.00    +0.000 C 
BRANCH  19  20
ATOM     20  C   UNL     1       4.605   5.340  16.921  0.00  0.00    +0.000 A 
ATOM     21  C   UNL     1       4.748   4.171  16.156  0.00  0.00    +0.000 A 
ATOM     22  C   UNL     1       5.985   3.819  15.610  0.00  0.00    +0.000 A 
ATOM     23  C   UNL     1       7.095   4.634  15.814  0.00  0.00    +0.000 A 
ATOM     24  C   UNL     1       6.968   5.807  16.552  0.00  0.00    +0.000 A 
ATOM     25  C   UNL     1       5.732   6.159  17.102  0.00  0.00    +0.000 A 
ENDBRANCH  19  20
BRANCH  19  26
ATOM     26  C   UNL     1       2.723   4.558  18.449  0.00  0.00    +0.000 A 
ATOM     27  C   UNL     1       1.551   3.889  18.058  0.00  0.00    +0.000 A 
ATOM     28  C   UNL     1       0.995   2.886  18.859  0.00  0.00    +0.000 A 
ATOM     29  C   UNL     1       1.604   2.529  20.060  0.00  0.00    +0.000 A 
ATOM     30  C   UNL     1       2.781   3.158  20.449  0.00  0.00    +0.000 A 
ATOM     31  C   UNL     1       3.337   4.157  19.648  0.00  0.00    +0.000 A 
ENDBRANCH  19  26
ENDBRANCH  18  19
ENDBRANCH  17  18
ENDBRANCH   1  17
TORSDOF 10
ENDMDL
