MODEL 1
REMARK VINA RESULT:      -6.4      0.000      0.000
REMARK  Name = 
REMARK  10 active torsions:
REMARK  status: ('A' for Active; 'I' for Inactive)
REMARK    1  A    between atoms: C_1  and  C_2
REMARK    2  A    between atoms: C_2  and  O_3
REMARK    3  A    between atoms: O_3  and  C_4
REMARK    4  A    between atoms: C_9  and  C_10
REMARK    5  A    between atoms: C_10  and  C_11
REMARK    6  A    between atoms: C_12  and  O_13
REMARK    7  A    between atoms: O_13  and  C_14
REMARK    8  A    between atoms: C_14  and  C_15
REMARK    9  A    between atoms: C_15  and  C_16
REMARK   10  A    between atoms: C_16  and  O_18
REMARK                            x       y       z     vdW  Elec       q    Type
REMARK                         _______ _______ _______ _____ _____    ______ ____
ROOT
ATOM      1  C   UNL     1       6.064   6.560  16.834  0.00  0.00    +0.000 C 
ATOM      2  O   UNL     1       5.004   6.979  17.289  0.00  0.00    +0.000 OA
ATOM      3  N   UNL     1       6.204   5.313  16.279  0.00  0.00    +0.000 N 
ATOM      4  C   UNL     1       6.876   5.059  15.122  0.00  0.00    +0.000 C 
ATOM      5  O   UNL     1       7.899   5.493  14.644  0.00  0.00    +0.000 OA
ATOM      6  C   UNL     1       5.900   3.947  14.727  0.00  0.00    +0.000 C 
ATOM      7  C   UNL     1       5.061   4.451  15.935  0.00  0.00    +0.000 C 
ENDROOT
BRANCH   6   8
ATOM      8  C   UNL     1       5.315   4.096  13.327  0.00  0.00    +0.000 C 
ATOM      9  C   UNL     1       6.016   3.172  12.348  0.00  0.00    +0.000 C 
ENDBRANCH   6   8
BRANCH   1  10
ATOM     10  O   UNL     1       7.192   7.306  16.723  0.00  0.00    +0.000 OA
BRANCH  10  12
ATOM     11  C   UNL     1       8.257   9.051  18.003  0.00  0.00    +0.000 C 
ATOM     12  C   UNL     1       7.872   7.580  17.956  0.00  0.00    +0.000 C 
ENDBRANCH  10  12
ENDBRANCH   1  10
BRANCH   7  13
ATOM     13  O   UNL     1       4.703   3.450  16.915  0.00  0.00    +0.000 OA
BRANCH  13  14
ATOM     14  C   UNL     1       3.302   3.356  17.195  0.00  0.00    +0.000 C 
BRANCH  14  15
ATOM     15  C   UNL     1       3.086   3.372  18.698  0.00  0.00    +0.000 C 
BRANCH  15  16
ATOM     16  C   UNL     1       4.406   3.456  19.417  0.00  0.00    +0.000 C 
ATOM     17  O   UNL     1       4.979   2.521  19.952  0.00  0.00    +0.000 OA
BRANCH  16  18
ATOM     18  O   UNL     1       4.925   4.704  19.405  0.00  0.00    +0.000 OA
ATOM     19  H   UNL     1       5.696   4.821  19.993  0.00  0.00    +0.000 HD
ENDBRANCH  16  18
ENDBRANCH  15  16
ENDBRANCH  14  15
ENDBRANCH  13  14
ENDBRANCH   7  13
TORSDOF 8
ENDMDL
MODEL 2
REMARK VINA RESULT:      -6.3      1.963      5.492
REMARK  Name = 
REMARK  10 active torsions:
REMARK  status: ('A' for Active; 'I' for Inactive)
REMARK    1  A    between atoms: C_1  and  C_2
REMARK    2  A    between atoms: C_2  and  O_3
REMARK    3  A    between atoms: O_3  and  C_4
REMARK    4  A    between atoms: C_9  and  C_10
REMARK    5  A    between atoms: C_10  and  C_11
REMARK    6  A    between atoms: C_12  and  O_13
REMARK    7  A    between atoms: O_13  and  C_14
REMARK    8  A    between atoms: C_14  and  C_15
REMARK    9  A    between atoms: C_15  and  C_16
REMARK   10  A    between atoms: C_16  and  O_18
REMARK                            x       y       z     vdW  Elec       q    Type
REMARK                         _______ _______ _______ _____ _____    ______ ____
ROOT
ATOM      1  C   UNL     1       3.711   2.626  19.540  0.00  0.00    +0.000 C 
ATOM      2  O   UNL     1       4.656   2.242  20.222  0.00  0.00    +0.000 OA
ATOM      3  N   UNL     1       3.787   3.697  18.686  0.00  0.00    +0.000 N 
ATOM      4  C   UNL     1       3.279   3.707  17.421  0.00  0.00    +0.000 C 
ATOM      5  O   UNL     1       2.268   3.260  16.929  0.00  0.00    +0.000 OA
ATOM      6  C   UNL     1       4.422   4.587  16.905  0.00  0.00    +0.000 C 
ATOM      7  C   UNL     1       5.057   4.334  18.301  0.00  0.00    +0.000 C 
ENDROOT
BRANCH   6   8
ATOM      8  C   UNL     1       5.132   4.032  15.675  0.00  0.00    +0.000 C 
ATOM      9  C   UNL     1       5.931   5.117  14.977  0.00  0.00    +0.000 C 
ENDBRANCH   6   8
BRANCH   1  10
ATOM     10  O   UNL     1       2.519   1.982  19.461  0.00  0.00    +0.000 OA
BRANCH  10  12
ATOM     11  C   UNL     1       1.731   2.647  21.641  0.00  0.00    +0.000 C 
ATOM     12  C   UNL     1       1.432   2.615  20.150  0.00  0.00    +0.000 C 
ENDBRANCH  10  12
ENDBRANCH   1  10
BRANCH   7  13
ATOM     13  O   UNL     1       5.427   5.515  19.048  0.00  0.00    +0.000 OA
BRANCH  13  14
ATOM     14  C   UNL     1       6.793   5.555  19.473  0.00  0.00    +0.000 C 
BRANCH  14  15
ATOM     15  C   UNL     1       7.692   5.743  18.263  0.00  0.00    +0.000 C 
BRANCH  15  16
ATOM     16  C   UNL     1       7.859   7.207  17.957  0.00  0.00    +0.000 C 
ATOM     17  O   UNL     1       7.386   7.786  16.992  0.00  0.00    +0.000 OA
BRANCH  16  18
ATOM     18  O   UNL     1       8.599   7.851  18.886  0.00  0.00    +0.000 OA
ATOM     19  H   UNL     1       9.018   7.261  19.542  0.00  0.00    +0.000 HD
ENDBRANCH  16  18
ENDBRANCH  15  16
ENDBRANCH  14  15
ENDBRANCH  13  14
ENDBRANCH   7  13
TORSDOF 8
ENDMDL
MODEL 3
REMARK VINA RESULT:      -6.3      1.875      5.718
REMARK  Name = 
REMARK  10 active torsions:
REMARK  status: ('A' for Active; 'I' for Inactive)
REMARK    1  A    between atoms: C_1  and  C_2
REMARK    2  A    between atoms: C_2  and  O_3
REMARK    3  A    between atoms: O_3  and  C_4
REMARK    4  A    between atoms: C_9  and  C_10
REMARK    5  A    between atoms: C_10  and  C_11
REMARK    6  A    between atoms: C_12  and  O_13
REMARK    7  A    between atoms: O_13  and  C_14
REMARK    8  A    between atoms: C_14  and  C_15
REMARK    9  A    between atoms: C_15  and  C_16
REMARK   10  A    between atoms: C_16  and  O_18
REMARK                            x       y       z     vdW  Elec       q    Type
REMARK                         _______ _______ _______ _____ _____    ______ ____
ROOT
ATOM      1  C   UNL     1       5.272   3.990  18.150  0.00  0.00    +0.000 C 
ATOM      2  O   UNL     1       4.391   3.865  17.306  0.00  0.00    +0.000 OA
ATOM      3  N   UNL     1       6.461   4.630  17.905  0.00  0.00    +0.000 N 
ATOM      4  C   UNL     1       7.045   5.518  18.758  0.00  0.00    +0.000 C 
ATOM      5  O   UNL     1       7.156   5.562  19.962  0.00  0.00    +0.000 OA
ATOM      6  C   UNL     1       7.589   6.363  17.602  0.00  0.00    +0.000 C 
ATOM      7  C   UNL     1       6.705   5.450  16.707  0.00  0.00    +0.000 C 
ENDROOT
BRANCH   6   8
ATOM      8  C   UNL     1       7.240   7.845  17.692  0.00  0.00    +0.000 C 
ATOM      9  C   UNL     1       8.424   8.649  18.196  0.00  0.00    +0.000 C 
ENDBRANCH   6   8
BRANCH   1  10
ATOM     10  O   UNL     1       5.142   3.616  19.447  0.00  0.00    +0.000 OA
BRANCH  10  12
ATOM     11  C   UNL     1       3.143   2.744  20.476  0.00  0.00    +0.000 C 
ATOM     12  C   UNL     1       4.389   2.415  19.668  0.00  0.00    +0.000 C 
ENDBRANCH  10  12
ENDBRANCH   1  10
BRANCH   7  13
ATOM     13  O   UNL     1       7.385   4.791  15.614  0.00  0.00    +0.000 OA
BRANCH  13  14
ATOM     14  C   UNL     1       6.797   5.003  14.326  0.00  0.00    +0.000 C 
BRANCH  14  15
ATOM     15  C   UNL     1       6.123   3.723  13.863  0.00  0.00    +0.000 C 
BRANCH  15  16
ATOM     16  C   UNL     1       6.472   3.436  12.427  0.00  0.00    +0.000 C 
ATOM     17  O   UNL     1       7.201   4.121  11.727  0.00  0.00    +0.000 OA
BRANCH  16  18
ATOM     18  O   UNL     1       5.894   2.304  11.968  0.00  0.00    +0.000 OA
ATOM     19  H   UNL     1       6.296   1.954  11.149  0.00  0.00    +0.000 HD
ENDBRANCH  16  18
ENDBRANCH  15  16
ENDBRANCH  14  15
ENDBRANCH  13  14
ENDBRANCH   7  13
TORSDOF 8
ENDMDL
MODEL 4
REMARK VINA RESULT:      -6.0      2.369      3.473
REMARK  Name = 
REMARK  10 active torsions:
REMARK  status: ('A' for Active; 'I' for Inactive)
REMARK    1  A    between atoms: C_1  and  C_2
REMARK    2  A    between atoms: C_2  and  O_3
REMARK    3  A    between atoms: O_3  and  C_4
REMARK    4  A    between atoms: C_9  and  C_10
REMARK    5  A    between atoms: C_10  and  C_11
REMARK    6  A    between atoms: C_12  and  O_13
REMARK    7  A    between atoms: O_13  and  C_14
REMARK    8  A    between atoms: C_14  and  C_15
REMARK    9  A    between atoms: C_15  and  C_16
REMARK   10  A    between atoms: C_16  and  O_18
REMARK                            x       y       z     vdW  Elec       q    Type
REMARK                         _______ _______ _______ _____ _____    ______ ____
ROOT
ATOM      1  C   UNL     1       7.015   5.391  18.854  0.00  0.00    +0.000 C 
ATOM      2  O   UNL     1       7.168   5.404  20.071  0.00  0.00    +0.000 OA
ATOM      3  N   UNL     1       6.007   4.701  18.230  0.00  0.00    +0.000 N 
ATOM      4  C   UNL     1       5.248   5.202  17.215  0.00  0.00    +0.000 C 
ATOM      5  O   UNL     1       5.498   5.897  16.257  0.00  0.00    +0.000 OA
ATOM      6  C   UNL     1       4.000   4.457  17.700  0.00  0.00    +0.000 C 
ATOM      7  C   UNL     1       4.861   4.121  18.950  0.00  0.00    +0.000 C 
ENDROOT
BRANCH   6   8
ATOM      8  C   UNL     1       2.774   5.344  17.883  0.00  0.00    +0.000 C 
ATOM      9  C   UNL     1       1.497   4.539  17.731  0.00  0.00    +0.000 C 
ENDBRANCH   6   8
BRANCH   1  10
ATOM     10  O   UNL     1       7.746   6.138  17.988  0.00  0.00    +0.000 OA
BRANCH  10  12
ATOM     11  C   UNL     1       7.763   8.516  17.589  0.00  0.00    +0.000 C 
ATOM     12  C   UNL     1       8.219   7.390  18.503  0.00  0.00    +0.000 C 
ENDBRANCH  10  12
ENDBRANCH   1  10
BRANCH   7  13
ATOM     13  O   UNL     1       4.966   2.718  19.284  0.00  0.00    +0.000 OA
BRANCH  13  14
ATOM     14  C   UNL     1       4.326   2.342  20.508  0.00  0.00    +0.000 C 
BRANCH  14  15
ATOM     15  C   UNL     1       2.820   2.378  20.321  0.00  0.00    +0.000 C 
BRANCH  15  16
ATOM     16  C   UNL     1       2.184   3.267  21.356  0.00  0.00    +0.000 C 
ATOM     17  O   UNL     1       2.277   4.483  21.397  0.00  0.00    +0.000 OA
BRANCH  16  18
ATOM     18  O   UNL     1       1.463   2.573  22.264  0.00  0.00    +0.000 OA
ATOM     19  H   UNL     1       1.564   2.890  23.182  0.00  0.00    +0.000 HD
ENDBRANCH  16  18
ENDBRANCH  15  16
ENDBRANCH  14  15
ENDBRANCH  13  14
ENDBRANCH   7  13
TORSDOF 8
ENDMDL
MODEL 5
REMARK VINA RESULT:      -6.0      0.784      1.034
REMARK  Name = 
REMARK  10 active torsions:
REMARK  status: ('A' for Active; 'I' for Inactive)
REMARK    1  A    between atoms: C_1  and  C_2
REMARK    2  A    between atoms: C_2  and  O_3
REMARK    3  A    between atoms: O_3  and  C_4
REMARK    4  A    between atoms: C_9  and  C_10
REMARK    5  A    between atoms: C_10  and  C_11
REMARK    6  A    between atoms: C_12  and  O_13
REMARK    7  A    between atoms: O_13  and  C_14
REMARK    8  A    between atoms: C_14  and  C_15
REMARK    9  A    between atoms: C_15  and  C_16
REMARK   10  A    between atoms: C_16  and  O_18
REMARK                            x       y       z     vdW  Elec       q    Type
REMARK                         _______ _______ _______ _____ _____    ______ ____
ROOT
ATOM      1  C   UNL     1       6.048   6.452  16.941  0.00  0.00    +0.000 C 
ATOM      2  O   UNL     1       4.996   6.884  17.401  0.00  0.00    +0.000 OA
ATOM      3  N   UNL     1       6.162   5.216  16.357  0.00  0.00    +0.000 N 
ATOM      4  C   UNL     1       6.833   4.974  15.196  0.00  0.00    +0.000 C 
ATOM      5  O   UNL     1       7.868   5.397  14.732  0.00  0.00    +0.000 OA
ATOM      6  C   UNL     1       5.835   3.893  14.772  0.00  0.00    +0.000 C 
ATOM      7  C   UNL     1       5.002   4.387  15.989  0.00  0.00    +0.000 C 
ENDROOT
BRANCH   6   8
ATOM      8  C   UNL     1       5.258   4.087  13.374  0.00  0.00    +0.000 C 
ATOM      9  C   UNL     1       6.001   3.237  12.361  0.00  0.00    +0.000 C 
ENDBRANCH   6   8
BRANCH   1  10
ATOM     10  O   UNL     1       7.192   7.176  16.850  0.00  0.00    +0.000 OA
BRANCH  10  12
ATOM     11  C   UNL     1       8.465   8.673  18.247  0.00  0.00    +0.000 C 
ATOM     12  C   UNL     1       7.161   8.457  17.495  0.00  0.00    +0.000 C 
ENDBRANCH  10  12
ENDBRANCH   1  10
BRANCH   7  13
ATOM     13  O   UNL     1       4.619   3.372  16.944  0.00  0.00    +0.000 OA
BRANCH  13  14
ATOM     14  C   UNL     1       3.247   3.415  17.350  0.00  0.00    +0.000 C 
BRANCH  14  15
ATOM     15  C   UNL     1       3.156   3.183  18.848  0.00  0.00    +0.000 C 
BRANCH  15  16
ATOM     16  C   UNL     1       4.129   2.115  19.273  0.00  0.00    +0.000 C 
ATOM     17  O   UNL     1       4.893   2.193  20.221  0.00  0.00    +0.000 OA
BRANCH  16  18
ATOM     18  O   UNL     1       4.069   1.016  18.489  0.00  0.00    +0.000 OA
ATOM     19  H   UNL     1       4.243   0.179  18.960  0.00  0.00    +0.000 HD
ENDBRANCH  16  18
ENDBRANCH  15  16
ENDBRANCH  14  15
ENDBRANCH  13  14
ENDBRANCH   7  13
TORSDOF 8
ENDMDL
MODEL 6
REMARK VINA RESULT:      -6.0      0.977      1.073
REMARK  Name = 
REMARK  10 active torsions:
REMARK  status: ('A' for Active; 'I' for Inactive)
REMARK    1  A    between atoms: C_1  and  C_2
REMARK    2  A    between atoms: C_2  and  O_3
REMARK    3  A    between atoms: O_3  and  C_4
REMARK    4  A    between atoms: C_9  and  C_10
REMARK    5  A    between atoms: C_10  and  C_11
REMARK    6  A    between atoms: C_12  and  O_13
REMARK    7  A    between atoms: O_13  and  C_14
REMARK    8  A    between atoms: C_14  and  C_15
REMARK    9  A    between atoms: C_15  and  C_16
REMARK   10  A    between atoms: C_16  and  O_18
REMARK                            x       y       z     vdW  Elec       q    Type
REMARK                         _______ _______ _______ _____ _____    ______ ____
ROOT
ATOM      1  C   UNL     1       6.077   6.479  16.839  0.00  0.00    +0.000 C 
ATOM      2  O   UNL     1       5.012   6.861  17.314  0.00  0.00    +0.000 OA
ATOM      3  N   UNL     1       6.241   5.247  16.259  0.00  0.00    +0.000 N 
ATOM      4  C   UNL     1       6.905   5.032  15.088  0.00  0.00    +0.000 C 
ATOM      5  O   UNL     1       7.911   5.502  14.607  0.00  0.00    +0.000 OA
ATOM      6  C   UNL     1       5.952   3.903  14.684  0.00  0.00    +0.000 C 
ATOM      7  C   UNL     1       5.116   4.362  15.911  0.00  0.00    +0.000 C 
ENDROOT
BRANCH   6   8
ATOM      8  C   UNL     1       5.346   4.063  13.294  0.00  0.00    +0.000 C 
ATOM      9  C   UNL     1       6.039   3.156  12.295  0.00  0.00    +0.000 C 
ENDBRANCH   6   8
BRANCH   1  10
ATOM     10  O   UNL     1       7.183   7.256  16.729  0.00  0.00    +0.000 OA
BRANCH  10  12
ATOM     11  C   UNL     1       8.226   9.030  17.986  0.00  0.00    +0.000 C 
ATOM     12  C   UNL     1       7.849   7.557  17.963  0.00  0.00    +0.000 C 
ENDBRANCH  10  12
ENDBRANCH   1  10
BRANCH   7  13
ATOM     13  O   UNL     1       4.796   3.334  16.876  0.00  0.00    +0.000 OA
BRANCH  13  14
ATOM     14  C   UNL     1       3.479   3.419  17.432  0.00  0.00    +0.000 C 
BRANCH  14  15
ATOM     15  C   UNL     1       3.569   3.383  18.947  0.00  0.00    +0.000 C 
BRANCH  15  16
ATOM     16  C   UNL     1       2.977   4.636  19.538  0.00  0.00    +0.000 C 
ATOM     17  O   UNL     1       2.620   4.769  20.697  0.00  0.00    +0.000 OA
BRANCH  16  18
ATOM     18  O   UNL     1       2.885   5.640  18.639  0.00  0.00    +0.000 OA
ATOM     19  H   UNL     1       2.560   6.482  19.012  0.00  0.00    +0.000 HD
ENDBRANCH  16  18
ENDBRANCH  15  16
ENDBRANCH  14  15
ENDBRANCH  13  14
ENDBRANCH   7  13
TORSDOF 8
ENDMDL
MODEL 7
REMARK VINA RESULT:      -5.9      1.372      1.654
REMARK  Name = 
REMARK  10 active torsions:
REMARK  status: ('A' for Active; 'I' for Inactive)
REMARK    1  A    between atoms: C_1  and  C_2
REMARK    2  A    between atoms: C_2  and  O_3
REMARK    3  A    between atoms: O_3  and  C_4
REMARK    4  A    between atoms: C_9  and  C_10
REMARK    5  A    between atoms: C_10  and  C_11
REMARK    6  A    between atoms: C_12  and  O_13
REMARK    7  A    between atoms: O_13  and  C_14
REMARK    8  A    between atoms: C_14  and  C_15
REMARK    9  A    between atoms: C_15  and  C_16
REMARK   10  A    between atoms: C_16  and  O_18
REMARK                            x       y       z     vdW  Elec       q    Type
REMARK                         _______ _______ _______ _____ _____    ______ ____
ROOT
ATOM      1  C   UNL     1       6.061   6.492  16.736  0.00  0.00    +0.000 C 
ATOM      2  O   UNL     1       4.990   6.863  17.206  0.00  0.00    +0.000 OA
ATOM      3  N   UNL     1       6.249   5.252  16.182  0.00  0.00    +0.000 N 
ATOM      4  C   UNL     1       6.914   5.025  15.014  0.00  0.00    +0.000 C 
ATOM      5  O   UNL     1       7.909   5.505  14.520  0.00  0.00    +0.000 OA
ATOM      6  C   UNL     1       5.984   3.869  14.637  0.00  0.00    +0.000 C 
ATOM      7  C   UNL     1       5.141   4.337  15.857  0.00  0.00    +0.000 C 
ENDROOT
BRANCH   6   8
ATOM      8  C   UNL     1       5.371   3.987  13.246  0.00  0.00    +0.000 C 
ATOM      9  C   UNL     1       6.117   3.116  12.252  0.00  0.00    +0.000 C 
ENDBRANCH   6   8
BRANCH   1  10
ATOM     10  O   UNL     1       7.151   7.289  16.606  0.00  0.00    +0.000 OA
BRANCH  10  12
ATOM     11  C   UNL     1       7.938   6.497  18.743  0.00  0.00    +0.000 C 
ATOM     12  C   UNL     1       7.759   7.705  17.837  0.00  0.00    +0.000 C 
ENDBRANCH  10  12
ENDBRANCH   1  10
BRANCH   7  13
ATOM     13  O   UNL     1       4.844   3.323  16.844  0.00  0.00    +0.000 OA
BRANCH  13  14
ATOM     14  C   UNL     1       3.638   3.540  17.584  0.00  0.00    +0.000 C 
BRANCH  14  15
ATOM     15  C   UNL     1       3.138   2.214  18.132  0.00  0.00    +0.000 C 
BRANCH  15  16
ATOM     16  C   UNL     1       1.857   2.413  18.898  0.00  0.00    +0.000 C 
ATOM     17  O   UNL     1       1.686   2.128  20.072  0.00  0.00    +0.000 OA
BRANCH  16  18
ATOM     18  O   UNL     1       0.882   2.966  18.144  0.00  0.00    +0.000 OA
ATOM     19  H   UNL     1       0.766   2.547  17.269  0.00  0.00    +0.000 HD
ENDBRANCH  16  18
ENDBRANCH  15  16
ENDBRANCH  14  15
ENDBRANCH  13  14
ENDBRANCH   7  13
TORSDOF 8
ENDMDL
MODEL 8
REMARK VINA RESULT:      -5.9      2.849      4.276
REMARK  Name = 
REMARK  10 active torsions:
REMARK  status: ('A' for Active; 'I' for Inactive)
REMARK    1  A    between atoms: C_1  and  C_2
REMARK    2  A    between atoms: C_2  and  O_3
REMARK    3  A    between atoms: O_3  and  C_4
REMARK    4  A    between atoms: C_9  and  C_10
REMARK    5  A    between atoms: C_10  and  C_11
REMARK    6  A    between atoms: C_12  and  O_13
REMARK    7  A    between atoms: O_13  and  C_14
REMARK    8  A    between atoms: C_14  and  C_15
REMARK    9  A    between atoms: C_15  and  C_16
REMARK   10  A    between atoms: C_16  and  O_18
REMARK                            x       y       z     vdW  Elec       q    Type
REMARK                         _______ _______ _______ _____ _____    ______ ____
ROOT
ATOM      1  C   UNL     1       5.321   4.570  18.466  0.00  0.00    +0.000 C 
ATOM      2  O   UNL     1       5.463   4.259  19.645  0.00  0.00    +0.000 OA
ATOM      3  N   UNL     1       4.171   5.128  17.969  0.00  0.00    +0.000 N 
ATOM      4  C   UNL     1       4.140   6.186  17.110  0.00  0.00    +0.000 C 
ATOM      5  O   UNL     1       4.821   6.506  16.163  0.00  0.00    +0.000 OA
ATOM      6  C   UNL     1       2.858   6.738  17.740  0.00  0.00    +0.000 C 
ATOM      7  C   UNL     1       3.091   5.649  18.825  0.00  0.00    +0.000 C 
ENDROOT
BRANCH   6   8
ATOM      8  C   UNL     1       2.946   8.203  18.155  0.00  0.00    +0.000 C 
ATOM      9  C   UNL     1       1.662   8.938  17.817  0.00  0.00    +0.000 C 
ENDBRANCH   6   8
BRANCH   1  10
ATOM     10  O   UNL     1       6.310   4.506  17.539  0.00  0.00    +0.000 OA
BRANCH  10  12
ATOM     11  C   UNL     1       7.653   6.394  18.206  0.00  0.00    +0.000 C 
ATOM     12  C   UNL     1       7.613   4.888  18.002  0.00  0.00    +0.000 C 
ENDBRANCH  10  12
ENDBRANCH   1  10
BRANCH   7  13
ATOM     13  O   UNL     1       1.983   4.751  19.065  0.00  0.00    +0.000 OA
BRANCH  13  14
ATOM     14  C   UNL     1       1.775   4.408  20.439  0.00  0.00    +0.000 C 
BRANCH  14  15
ATOM     15  C   UNL     1       1.140   3.030  20.523  0.00  0.00    +0.000 C 
BRANCH  15  16
ATOM     16  C   UNL     1       1.222   2.333  19.192  0.00  0.00    +0.000 C 
ATOM     17  O   UNL     1       0.275   2.094  18.460  0.00  0.00    +0.000 OA
BRANCH  16  18
ATOM     18  O   UNL     1       2.487   1.992  18.861  0.00  0.00    +0.000 OA
ATOM     19  H   UNL     1       3.159   2.653  19.116  0.00  0.00    +0.000 HD
ENDBRANCH  16  18
ENDBRANCH  15  16
ENDBRANCH  14  15
ENDBRANCH  13  14
ENDBRANCH   7  13
TORSDOF 8
ENDMDL
MODEL 9
REMARK VINA RESULT:      -5.9      2.674      4.266
REMARK  Name = 
REMARK  10 active torsions:
REMARK  status: ('A' for Active; 'I' for Inactive)
REMARK    1  A    between atoms: C_1  and  C_2
REMARK    2  A    between atoms: C_2  and  O_3
REMARK    3  A    between atoms: O_3  and  C_4
REMARK    4  A    between atoms: C_9  and  C_10
REMARK    5  A    between atoms: C_10  and  C_11
REMARK    6  A    between atoms: C_12  and  O_13
REMARK    7  A    between atoms: O_13  and  C_14
REMARK    8  A    between atoms: C_14  and  C_15
REMARK    9  A    between atoms: C_15  and  C_16
REMARK   10  A    between atoms: C_16  and  O_18
REMARK                            x       y       z     vdW  Elec       q    Type
REMARK                         _______ _______ _______ _____ _____    ______ ____
ROOT
ATOM      1  C   UNL     1       5.614   4.866  18.548  0.00  0.00    +0.000 C 
ATOM      2  O   UNL     1       5.636   4.178  19.563  0.00  0.00    +0.000 OA
ATOM      3  N   UNL     1       4.453   5.302  17.961  0.00  0.00    +0.000 N 
ATOM      4  C   UNL     1       4.255   6.568  17.499  0.00  0.00    +0.000 C 
ATOM      5  O   UNL     1       4.961   7.359  16.917  0.00  0.00    +0.000 OA
ATOM      6  C   UNL     1       2.778   6.550  17.903  0.00  0.00    +0.000 C 
ATOM      7  C   UNL     1       3.136   5.215  18.615  0.00  0.00    +0.000 C 
ENDROOT
BRANCH   6   8
ATOM      8  C   UNL     1       2.349   7.735  18.762  0.00  0.00    +0.000 C 
ATOM      9  C   UNL     1       1.744   8.831  17.905  0.00  0.00    +0.000 C 
ENDBRANCH   6   8
BRANCH   1  10
ATOM     10  O   UNL     1       6.721   5.370  17.946  0.00  0.00    +0.000 OA
BRANCH  10  12
ATOM     11  C   UNL     1       6.936   4.637  15.659  0.00  0.00    +0.000 C 
ATOM     12  C   UNL     1       7.423   4.460  17.089  0.00  0.00    +0.000 C 
ENDBRANCH  10  12
ENDBRANCH   1  10
BRANCH   7  13
ATOM     13  O   UNL     1       2.324   4.073  18.258  0.00  0.00    +0.000 OA
BRANCH  13  14
ATOM     14  C   UNL     1       1.257   3.787  19.168  0.00  0.00    +0.000 C 
BRANCH  14  15
ATOM     15  C   UNL     1       1.676   4.175  20.575  0.00  0.00    +0.000 C 
BRANCH  15  16
ATOM     16  C   UNL     1       2.201   2.974  21.316  0.00  0.00    +0.000 C 
ATOM     17  O   UNL     1       1.627   2.401  22.229  0.00  0.00    +0.000 OA
BRANCH  16  18
ATOM     18  O   UNL     1       3.403   2.564  20.856  0.00  0.00    +0.000 OA
ATOM     19  H   UNL     1       4.114   3.228  20.946  0.00  0.00    +0.000 HD
ENDBRANCH  16  18
ENDBRANCH  15  16
ENDBRANCH  14  15
ENDBRANCH  13  14
ENDBRANCH   7  13
TORSDOF 8
ENDMDL
