MODEL 1
REMARK VINA RESULT:      -7.0      0.000      0.000
REMARK  Name = 
REMARK  4 active torsions:
REMARK  status: ('A' for Active; 'I' for Inactive)
REMARK    1  A    between atoms: C_1  and  O_2
REMARK    2  A    between atoms: O_2  and  C_3
REMARK    3  A    between atoms: C_12  and  O_13
REMARK    4  A    between atoms: C_12  and  C_14
REMARK                            x       y       z     vdW  Elec       q    Type
REMARK                         _______ _______ _______ _____ _____    ______ ____
ROOT
ATOM      1  C   UNL     1       5.589   5.036  16.009  0.00  0.00    +0.000 A 
ATOM      2  C   UNL     1       5.093   6.252  16.484  0.00  0.00    +0.000 A 
ATOM      3  C   UNL     1       4.062   6.275  17.432  0.00  0.00    +0.000 A 
ATOM      4  C   UNL     1       3.527   5.084  17.914  0.00  0.00    +0.000 A 
ATOM      5  C   UNL     1       4.051   3.872  17.469  0.00  0.00    +0.000 A 
ATOM      6  C   UNL     1       5.067   3.842  16.510  0.00  0.00    +0.000 A 
ATOM      7  C   UNL     1       3.555   2.623  18.077  0.00  0.00    +0.000 C 
ATOM      8  O   UNL     1       3.919   1.524  17.670  0.00  0.00    +0.000 OA
ATOM      9  C   UNL     1       2.661   2.785  19.268  0.00  0.00    +0.000 C 
ATOM     10  C   UNL     1       1.753   3.982  19.013  0.00  0.00    +0.000 C 
ATOM     11  O   UNL     1       2.515   5.189  18.830  0.00  0.00    +0.000 OA
ENDROOT
BRANCH  10  12
ATOM     12  C   UNL     1       0.827   4.196  20.231  0.00  0.00    +0.000 C 
ATOM     13  F   UNL     1       1.056   3.211  21.145  0.00  0.00    +0.000 F 
ATOM     14  F   UNL     1       1.104   5.369  20.855  0.00  0.00    +0.000 F 
ENDBRANCH  10  12
BRANCH   1  16
ATOM     15  C   UNL     1       6.285   4.048  13.961  0.00  0.00    +0.000 C 
ATOM     16  O   UNL     1       6.576   4.879  15.078  0.00  0.00    +0.000 OA
ENDBRANCH   1  16
BRANCH  10  17
ATOM     17  O   UNL     1       0.932   3.735  17.857  0.00  0.00    +0.000 OA
ATOM     18  H   UNL     1       0.405   2.935  18.045  0.00  0.00    +0.000 HD
ENDBRANCH  10  17
TORSDOF 3
ENDMDL
MODEL 2
REMARK VINA RESULT:      -7.0      3.569      5.793
REMARK  Name = 
REMARK  4 active torsions:
REMARK  status: ('A' for Active; 'I' for Inactive)
REMARK    1  A    between atoms: C_1  and  O_2
REMARK    2  A    between atoms: O_2  and  C_3
REMARK    3  A    between atoms: C_12  and  O_13
REMARK    4  A    between atoms: C_12  and  C_14
REMARK                            x       y       z     vdW  Elec       q    Type
REMARK                         _______ _______ _______ _____ _____    ______ ____
ROOT
ATOM      1  C   UNL     1       2.957   4.452  19.655  0.00  0.00    +0.000 A 
ATOM      2  C   UNL     1       2.262   3.983  18.538  0.00  0.00    +0.000 A 
ATOM      3  C   UNL     1       2.909   3.858  17.302  0.00  0.00    +0.000 A 
ATOM      4  C   UNL     1       4.253   4.196  17.178  0.00  0.00    +0.000 A 
ATOM      5  C   UNL     1       4.955   4.626  18.303  0.00  0.00    +0.000 A 
ATOM      6  C   UNL     1       4.311   4.769  19.535  0.00  0.00    +0.000 A 
ATOM      7  C   UNL     1       6.405   4.865  18.180  0.00  0.00    +0.000 C 
ATOM      8  O   UNL     1       7.059   5.321  19.113  0.00  0.00    +0.000 OA
ATOM      9  C   UNL     1       7.033   4.434  16.891  0.00  0.00    +0.000 C 
ATOM     10  C   UNL     1       6.059   4.755  15.764  0.00  0.00    +0.000 C 
ATOM     11  O   UNL     1       4.811   4.058  15.936  0.00  0.00    +0.000 OA
ENDROOT
BRANCH  10  12
ATOM     12  C   UNL     1       6.663   4.306  14.416  0.00  0.00    +0.000 C 
ATOM     13  F   UNL     1       5.655   4.080  13.527  0.00  0.00    +0.000 F 
ATOM     14  F   UNL     1       7.437   5.282  13.878  0.00  0.00    +0.000 F 
ENDBRANCH  10  12
BRANCH   1  16
ATOM     15  C   UNL     1       2.100   3.463  21.641  0.00  0.00    +0.000 C 
ATOM     16  O   UNL     1       2.439   4.633  20.907  0.00  0.00    +0.000 OA
ENDBRANCH   1  16
BRANCH  10  17
ATOM     17  O   UNL     1       5.828   6.175  15.708  0.00  0.00    +0.000 OA
ATOM     18  H   UNL     1       4.925   6.305  15.361  0.00  0.00    +0.000 HD
ENDBRANCH  10  17
TORSDOF 3
ENDMDL
MODEL 3
REMARK VINA RESULT:      -7.0      3.230      5.320
REMARK  Name = 
REMARK  4 active torsions:
REMARK  status: ('A' for Active; 'I' for Inactive)
REMARK    1  A    between atoms: C_1  and  O_2
REMARK    2  A    between atoms: O_2  and  C_3
REMARK    3  A    between atoms: C_12  and  O_13
REMARK    4  A    between atoms: C_12  and  C_14
REMARK                            x       y       z     vdW  Elec       q    Type
REMARK                         _______ _______ _______ _____ _____    ______ ____
ROOT
ATOM      1  C   UNL     1       2.448   3.818  17.809  0.00  0.00    +0.000 A 
ATOM      2  C   UNL     1       2.371   4.944  18.632  0.00  0.00    +0.000 A 
ATOM      3  C   UNL     1       3.446   5.839  18.710  0.00  0.00    +0.000 A 
ATOM      4  C   UNL     1       4.598   5.618  17.963  0.00  0.00    +0.000 A 
ATOM      5  C   UNL     1       4.657   4.516  17.111  0.00  0.00    +0.000 A 
ATOM      6  C   UNL     1       3.595   3.610  17.041  0.00  0.00    +0.000 A 
ATOM      7  C   UNL     1       5.835   4.362  16.238  0.00  0.00    +0.000 C 
ATOM      8  O   UNL     1       5.980   3.372  15.527  0.00  0.00    +0.000 OA
ATOM      9  C   UNL     1       6.784   5.522  16.207  0.00  0.00    +0.000 C 
ATOM     10  C   UNL     1       6.887   6.080  17.621  0.00  0.00    +0.000 C 
ATOM     11  O   UNL     1       5.608   6.532  18.101  0.00  0.00    +0.000 OA
ENDROOT
BRANCH  10  12
ATOM     12  C   UNL     1       7.843   7.293  17.628  0.00  0.00    +0.000 C 
ATOM     13  F   UNL     1       7.112   8.439  17.534  0.00  0.00    +0.000 F 
ATOM     14  F   UNL     1       8.527   7.369  18.798  0.00  0.00    +0.000 F 
ENDBRANCH  10  12
BRANCH   1  16
ATOM     15  C   UNL     1       0.787   2.456  18.828  0.00  0.00    +0.000 C 
ATOM     16  O   UNL     1       1.481   2.865  17.656  0.00  0.00    +0.000 OA
ENDBRANCH   1  16
BRANCH  10  17
ATOM     17  O   UNL     1       7.421   5.076  18.504  0.00  0.00    +0.000 OA
ATOM     18  H   UNL     1       8.039   5.527  19.111  0.00  0.00    +0.000 HD
ENDBRANCH  10  17
TORSDOF 3
ENDMDL
MODEL 4
REMARK VINA RESULT:      -6.9      3.461      5.681
REMARK  Name = 
REMARK  4 active torsions:
REMARK  status: ('A' for Active; 'I' for Inactive)
REMARK    1  A    between atoms: C_1  and  O_2
REMARK    2  A    between atoms: O_2  and  C_3
REMARK    3  A    between atoms: C_12  and  O_13
REMARK    4  A    between atoms: C_12  and  C_14
REMARK                            x       y       z     vdW  Elec       q    Type
REMARK                         _______ _______ _______ _____ _____    ______ ____
ROOT
ATOM      1  C   UNL     1       2.166   3.747  19.636  0.00  0.00    +0.000 A 
ATOM      2  C   UNL     1       1.676   3.317  18.400  0.00  0.00    +0.000 A 
ATOM      3  C   UNL     1       2.470   3.417  17.251  0.00  0.00    +0.000 A 
ATOM      4  C   UNL     1       3.757   3.940  17.331  0.00  0.00    +0.000 A 
ATOM      5  C   UNL     1       4.258   4.330  18.571  0.00  0.00    +0.000 A 
ATOM      6  C   UNL     1       3.466   4.249  19.719  0.00  0.00    +0.000 A 
ATOM      7  C   UNL     1       5.663   4.769  18.657  0.00  0.00    +0.000 C 
ATOM      8  O   UNL     1       6.136   5.200  19.704  0.00  0.00    +0.000 OA
ATOM      9  C   UNL     1       6.488   4.570  17.422  0.00  0.00    +0.000 C 
ATOM     10  C   UNL     1       5.611   4.884  16.217  0.00  0.00    +0.000 C 
ATOM     11  O   UNL     1       4.465   4.015  16.162  0.00  0.00    +0.000 OA
ENDROOT
BRANCH  10  12
ATOM     12  C   UNL     1       6.421   4.671  14.920  0.00  0.00    +0.000 C 
ATOM     13  F   UNL     1       7.750   4.649  15.221  0.00  0.00    +0.000 F 
ATOM     14  F   UNL     1       6.135   3.468  14.358  0.00  0.00    +0.000 F 
ENDBRANCH  10  12
BRANCH   1  16
ATOM     15  C   UNL     1       1.864   2.710  21.755  0.00  0.00    +0.000 C 
ATOM     16  O   UNL     1       1.490   3.717  20.824  0.00  0.00    +0.000 OA
ENDBRANCH   1  16
BRANCH  10  17
ATOM     17  O   UNL     1       5.187   6.259  16.266  0.00  0.00    +0.000 OA
ATOM     18  H   UNL     1       5.663   6.732  15.557  0.00  0.00    +0.000 HD
ENDBRANCH  10  17
TORSDOF 3
ENDMDL
MODEL 5
REMARK VINA RESULT:      -6.8      1.525      1.758
REMARK  Name = 
REMARK  4 active torsions:
REMARK  status: ('A' for Active; 'I' for Inactive)
REMARK    1  A    between atoms: C_1  and  O_2
REMARK    2  A    between atoms: O_2  and  C_3
REMARK    3  A    between atoms: C_12  and  O_13
REMARK    4  A    between atoms: C_12  and  C_14
REMARK                            x       y       z     vdW  Elec       q    Type
REMARK                         _______ _______ _______ _____ _____    ______ ____
ROOT
ATOM      1  C   UNL     1       6.632   4.613  16.702  0.00  0.00    +0.000 A 
ATOM      2  C   UNL     1       7.031   5.157  17.925  0.00  0.00    +0.000 A 
ATOM      3  C   UNL     1       6.107   5.312  18.966  0.00  0.00    +0.000 A 
ATOM      4  C   UNL     1       4.784   4.919  18.793  0.00  0.00    +0.000 A 
ATOM      5  C   UNL     1       4.398   4.338  17.586  0.00  0.00    +0.000 A 
ATOM      6  C   UNL     1       5.310   4.197  16.537  0.00  0.00    +0.000 A 
ATOM      7  C   UNL     1       3.023   3.819  17.461  0.00  0.00    +0.000 C 
ATOM      8  O   UNL     1       2.602   3.372  16.399  0.00  0.00    +0.000 OA
ATOM      9  C   UNL     1       2.217   3.789  18.724  0.00  0.00    +0.000 C 
ATOM     10  C   UNL     1       2.541   5.049  19.517  0.00  0.00    +0.000 C 
ATOM     11  O   UNL     1       3.939   5.112  19.853  0.00  0.00    +0.000 OA
ENDROOT
BRANCH  10  12
ATOM     12  C   UNL     1       1.744   5.046  20.839  0.00  0.00    +0.000 C 
ATOM     13  F   UNL     1       0.570   4.379  20.652  0.00  0.00    +0.000 F 
ATOM     14  F   UNL     1       2.414   4.377  21.812  0.00  0.00    +0.000 F 
ENDBRANCH  10  12
BRANCH   1  16
ATOM     15  C   UNL     1       6.851   4.685  14.335  0.00  0.00    +0.000 C 
ATOM     16  O   UNL     1       7.429   4.424  15.607  0.00  0.00    +0.000 OA
ENDBRANCH   1  16
BRANCH  10  17
ATOM     17  O   UNL     1       2.161   6.213  18.761  0.00  0.00    +0.000 OA
ATOM     18  H   UNL     1       1.196   6.161  18.620  0.00  0.00    +0.000 HD
ENDBRANCH  10  17
TORSDOF 3
ENDMDL
MODEL 6
REMARK VINA RESULT:      -6.7      3.858      5.239
REMARK  Name = 
REMARK  4 active torsions:
REMARK  status: ('A' for Active; 'I' for Inactive)
REMARK    1  A    between atoms: C_1  and  O_2
REMARK    2  A    between atoms: O_2  and  C_3
REMARK    3  A    between atoms: C_12  and  O_13
REMARK    4  A    between atoms: C_12  and  C_14
REMARK                            x       y       z     vdW  Elec       q    Type
REMARK                         _______ _______ _______ _____ _____    ______ ____
ROOT
ATOM      1  C   UNL     1       5.954   3.495  12.629  0.00  0.00    +0.000 A 
ATOM      2  C   UNL     1       7.125   4.238  12.461  0.00  0.00    +0.000 A 
ATOM      3  C   UNL     1       7.614   5.035  13.503  0.00  0.00    +0.000 A 
ATOM      4  C   UNL     1       6.940   5.088  14.720  0.00  0.00    +0.000 A 
ATOM      5  C   UNL     1       5.795   4.314  14.900  0.00  0.00    +0.000 A 
ATOM      6  C   UNL     1       5.292   3.530  13.858  0.00  0.00    +0.000 A 
ATOM      7  C   UNL     1       5.162   4.290  16.231  0.00  0.00    +0.000 C 
ATOM      8  O   UNL     1       4.109   3.692  16.429  0.00  0.00    +0.000 OA
ATOM      9  C   UNL     1       5.929   4.956  17.333  0.00  0.00    +0.000 C 
ATOM     10  C   UNL     1       6.573   6.213  16.762  0.00  0.00    +0.000 C 
ATOM     11  O   UNL     1       7.475   5.898  15.686  0.00  0.00    +0.000 OA
ENDROOT
BRANCH  10  12
ATOM     12  C   UNL     1       7.392   6.920  17.864  0.00  0.00    +0.000 C 
ATOM     13  F   UNL     1       8.195   6.007  18.480  0.00  0.00    +0.000 F 
ATOM     14  F   UNL     1       8.215   7.859  17.335  0.00  0.00    +0.000 F 
ENDBRANCH  10  12
BRANCH   1  16
ATOM     15  C   UNL     1       4.100   3.106  11.192  0.00  0.00    +0.000 C 
ATOM     16  O   UNL     1       5.367   2.695  11.690  0.00  0.00    +0.000 OA
ENDBRANCH   1  16
BRANCH  10  17
ATOM     17  O   UNL     1       5.553   7.119  16.303  0.00  0.00    +0.000 OA
ATOM     18  H   UNL     1       5.281   6.819  15.415  0.00  0.00    +0.000 HD
ENDBRANCH  10  17
TORSDOF 3
ENDMDL
MODEL 7
REMARK VINA RESULT:      -6.7      1.912      3.088
REMARK  Name = 
REMARK  4 active torsions:
REMARK  status: ('A' for Active; 'I' for Inactive)
REMARK    1  A    between atoms: C_1  and  O_2
REMARK    2  A    between atoms: O_2  and  C_3
REMARK    3  A    between atoms: C_12  and  O_13
REMARK    4  A    between atoms: C_12  and  C_14
REMARK                            x       y       z     vdW  Elec       q    Type
REMARK                         _______ _______ _______ _____ _____    ______ ____
ROOT
ATOM      1  C   UNL     1       6.253   6.325  16.844  0.00  0.00    +0.000 A 
ATOM      2  C   UNL     1       6.556   5.000  16.522  0.00  0.00    +0.000 A 
ATOM      3  C   UNL     1       5.633   3.979  16.780  0.00  0.00    +0.000 A 
ATOM      4  C   UNL     1       4.401   4.277  17.354  0.00  0.00    +0.000 A 
ATOM      5  C   UNL     1       4.084   5.605  17.637  0.00  0.00    +0.000 A 
ATOM      6  C   UNL     1       5.008   6.626  17.399  0.00  0.00    +0.000 A 
ATOM      7  C   UNL     1       2.731   5.916  18.134  0.00  0.00    +0.000 C 
ATOM      8  O   UNL     1       2.421   7.053  18.477  0.00  0.00    +0.000 OA
ATOM      9  C   UNL     1       1.747   4.787  18.105  0.00  0.00    +0.000 C 
ATOM     10  C   UNL     1       2.484   3.512  18.499  0.00  0.00    +0.000 C 
ATOM     11  O   UNL     1       3.557   3.224  17.585  0.00  0.00    +0.000 OA
ENDROOT
BRANCH  10  12
ATOM     12  C   UNL     1       1.506   2.318  18.462  0.00  0.00    +0.000 C 
ATOM     13  F   UNL     1       1.956   1.344  19.302  0.00  0.00    +0.000 F 
ATOM     14  F   UNL     1       0.278   2.678  18.915  0.00  0.00    +0.000 F 
ENDBRANCH  10  12
BRANCH   1  16
ATOM     15  C   UNL     1       7.783   7.878  17.794  0.00  0.00    +0.000 C 
ATOM     16  O   UNL     1       7.069   7.405  16.659  0.00  0.00    +0.000 OA
ENDBRANCH   1  16
BRANCH  10  17
ATOM     17  O   UNL     1       2.995   3.638  19.839  0.00  0.00    +0.000 OA
ATOM     18  H   UNL     1       2.229   3.612  20.442  0.00  0.00    +0.000 HD
ENDBRANCH  10  17
TORSDOF 3
ENDMDL
MODEL 8
REMARK VINA RESULT:      -6.7      2.084      3.061
REMARK  Name = 
REMARK  4 active torsions:
REMARK  status: ('A' for Active; 'I' for Inactive)
REMARK    1  A    between atoms: C_1  and  O_2
REMARK    2  A    between atoms: O_2  and  C_3
REMARK    3  A    between atoms: C_12  and  O_13
REMARK    4  A    between atoms: C_12  and  C_14
REMARK                            x       y       z     vdW  Elec       q    Type
REMARK                         _______ _______ _______ _____ _____    ______ ____
ROOT
ATOM      1  C   UNL     1       6.991   5.029  15.101  0.00  0.00    +0.000 A 
ATOM      2  C   UNL     1       5.874   4.327  14.642  0.00  0.00    +0.000 A 
ATOM      3  C   UNL     1       4.887   3.903  15.539  0.00  0.00    +0.000 A 
ATOM      4  C   UNL     1       5.006   4.183  16.897  0.00  0.00    +0.000 A 
ATOM      5  C   UNL     1       6.101   4.919  17.347  0.00  0.00    +0.000 A 
ATOM      6  C   UNL     1       7.098   5.331  16.459  0.00  0.00    +0.000 A 
ATOM      7  C   UNL     1       6.151   5.310  18.768  0.00  0.00    +0.000 C 
ATOM      8  O   UNL     1       7.126   5.888  19.239  0.00  0.00    +0.000 OA
ATOM      9  C   UNL     1       4.912   5.041  19.566  0.00  0.00    +0.000 C 
ATOM     10  C   UNL     1       4.342   3.703  19.110  0.00  0.00    +0.000 C 
ATOM     11  O   UNL     1       4.005   3.726  17.711  0.00  0.00    +0.000 OA
ENDROOT
BRANCH  10  12
ATOM     12  C   UNL     1       3.049   3.399  19.897  0.00  0.00    +0.000 C 
ATOM     13  F   UNL     1       2.231   2.624  19.130  0.00  0.00    +0.000 F 
ATOM     14  F   UNL     1       3.316   2.681  21.018  0.00  0.00    +0.000 F 
ENDBRANCH  10  12
BRANCH   1  16
ATOM     15  C   UNL     1       7.953   5.235  12.936  0.00  0.00    +0.000 C 
ATOM     16  O   UNL     1       8.027   5.483  14.334  0.00  0.00    +0.000 OA
ENDBRANCH   1  16
BRANCH  10  17
ATOM     17  O   UNL     1       5.291   2.653  19.374  0.00  0.00    +0.000 OA
ATOM     18  H   UNL     1       5.854   2.954  20.112  0.00  0.00    +0.000 HD
ENDBRANCH  10  17
TORSDOF 3
ENDMDL
MODEL 9
REMARK VINA RESULT:      -6.7      2.147      3.342
REMARK  Name = 
REMARK  4 active torsions:
REMARK  status: ('A' for Active; 'I' for Inactive)
REMARK    1  A    between atoms: C_1  and  O_2
REMARK    2  A    between atoms: O_2  and  C_3
REMARK    3  A    between atoms: C_12  and  O_13
REMARK    4  A    between atoms: C_12  and  C_14
REMARK                            x       y       z     vdW  Elec       q    Type
REMARK                         _______ _______ _______ _____ _____    ______ ____
ROOT
ATOM      1  C   UNL     1       6.848   6.637  17.367  0.00  0.00    +0.000 A 
ATOM      2  C   UNL     1       7.132   5.312  17.709  0.00  0.00    +0.000 A 
ATOM      3  C   UNL     1       6.118   4.471  18.184  0.00  0.00    +0.000 A 
ATOM      4  C   UNL     1       4.816   4.945  18.313  0.00  0.00    +0.000 A 
ATOM      5  C   UNL     1       4.527   6.255  17.933  0.00  0.00    +0.000 A 
ATOM      6  C   UNL     1       5.537   7.105  17.475  0.00  0.00    +0.000 A 
ATOM      7  C   UNL     1       3.123   6.704  17.963  0.00  0.00    +0.000 C 
ATOM      8  O   UNL     1       2.817   7.867  17.717  0.00  0.00    +0.000 OA
ATOM      9  C   UNL     1       2.100   5.639  18.219  0.00  0.00    +0.000 C 
ATOM     10  C   UNL     1       2.670   4.683  19.259  0.00  0.00    +0.000 C 
ATOM     11  O   UNL     1       3.884   4.066  18.795  0.00  0.00    +0.000 OA
ENDROOT
BRANCH  10  12
ATOM     12  C   UNL     1       1.651   3.556  19.537  0.00  0.00    +0.000 C 
ATOM     13  F   UNL     1       0.778   3.969  20.498  0.00  0.00    +0.000 F 
ATOM     14  F   UNL     1       0.907   3.287  18.434  0.00  0.00    +0.000 F 
ENDBRANCH  10  12
BRANCH   1  16
ATOM     15  C   UNL     1       8.047   8.651  17.769  0.00  0.00    +0.000 C 
ATOM     16  O   UNL     1       7.746   7.559  16.909  0.00  0.00    +0.000 OA
ENDBRANCH   1  16
BRANCH  10  17
ATOM     17  O   UNL     1       2.913   5.388  20.490  0.00  0.00    +0.000 OA
ATOM     18  H   UNL     1       2.170   6.007  20.618  0.00  0.00    +0.000 HD
ENDBRANCH  10  17
TORSDOF 3
ENDMDL
