MODEL 1
REMARK VINA RESULT:      -8.0      0.000      0.000
REMARK  Name = 
REMARK  6 active torsions:
REMARK  status: ('A' for Active; 'I' for Inactive)
REMARK    1  A    between atoms: C_1  and  N_2
REMARK    2  A    between atoms: N_2  and  C_3
REMARK    3  A    between atoms: N_2  and  C_4
REMARK    4  A    between atoms: C_7  and  C_8
REMARK    5  A    between atoms: C_12  and  N_13
REMARK    6  A    between atoms: N_13  and  C_14
REMARK                            x       y       z     vdW  Elec       q    Type
REMARK                         _______ _______ _______ _____ _____    ______ ____
ROOT
ATOM      1  C   UNL     1       0.738   9.763  19.953  0.00  0.00    +0.000 A 
ATOM      2  N   UNL     1       0.944  10.271  18.720  0.00  0.00    +0.000 NA
ATOM      3  C   UNL     1       1.727   9.559  17.900  0.00  0.00    +0.000 A 
ATOM      4  C   UNL     1       2.287   8.360  18.253  0.00  0.00    +0.000 A 
ATOM      5  C   UNL     1       2.036   7.910  19.536  0.00  0.00    +0.000 A 
ATOM      6  N   UNL     1       1.274   8.610  20.397  0.00  0.00    +0.000 NA
ENDROOT
BRANCH   1  10
ATOM      7  C   UNL     1      -1.788  12.130  22.622  0.00  0.00    +0.000 A 
ATOM      8  C   UNL     1      -1.612  12.454  21.271  0.00  0.00    +0.000 A 
ATOM      9  C   UNL     1      -0.805  11.688  20.416  0.00  0.00    +0.000 A 
ATOM     10  C   UNL     1      -0.133  10.538  20.860  0.00  0.00    +0.000 A 
ATOM     11  C   UNL     1      -0.339  10.181  22.199  0.00  0.00    +0.000 A 
ATOM     12  C   UNL     1      -1.145  10.957  23.053  0.00  0.00    +0.000 A 
BRANCH   7  14
ATOM     13  C   UNL     1      -3.750  12.334  24.115  0.00  0.00    +0.000 C 
ATOM     14  N   UNL     1      -2.569  12.908  23.477  0.00  0.00    +0.000 N 
ATOM     15  C   UNL     1      -2.516  14.362  23.369  0.00  0.00    +0.000 C 
ENDBRANCH   7  14
ENDBRANCH   1  10
BRANCH   5  16
ATOM     16  N   UNL     1       2.608   6.672  19.909  0.00  0.00    +0.000 N 
ATOM     17  H   UNL     1       3.618   6.744  19.942  0.00  0.00    +0.000 HD
BRANCH  16  18
ATOM     18  C   UNL     1       2.145   5.381  19.598  0.00  0.00    +0.000 A 
ATOM     19  C   UNL     1       1.530   4.603  20.591  0.00  0.00    +0.000 A 
ATOM     20  C   UNL     1       0.976   3.358  20.282  0.00  0.00    +0.000 A 
ATOM     21  C   UNL     1       1.020   2.896  18.973  0.00  0.00    +0.000 A 
ATOM     22  F   UNL     1       0.459   1.718  18.671  0.00  0.00    +0.000 F 
ATOM     23  C   UNL     1       1.624   3.644  17.974  0.00  0.00    +0.000 A 
ATOM     24  C   UNL     1       2.194   4.879  18.287  0.00  0.00    +0.000 A 
ENDBRANCH  16  18
ENDBRANCH   5  16
TORSDOF 4
ENDMDL
MODEL 2
REMARK VINA RESULT:      -7.9      3.490      5.614
REMARK  Name = 
REMARK  6 active torsions:
REMARK  status: ('A' for Active; 'I' for Inactive)
REMARK    1  A    between atoms: C_1  and  N_2
REMARK    2  A    between atoms: N_2  and  C_3
REMARK    3  A    between atoms: N_2  and  C_4
REMARK    4  A    between atoms: C_7  and  C_8
REMARK    5  A    between atoms: C_12  and  N_13
REMARK    6  A    between atoms: N_13  and  C_14
REMARK                            x       y       z     vdW  Elec       q    Type
REMARK                         _______ _______ _______ _____ _____    ______ ____
ROOT
ATOM      1  C   UNL     1       2.635   5.956  19.715  0.00  0.00    +0.000 A 
ATOM      2  N   UNL     1       1.905   5.150  20.514  0.00  0.00    +0.000 NA
ATOM      3  C   UNL     1       2.365   3.905  20.693  0.00  0.00    +0.000 A 
ATOM      4  C   UNL     1       3.526   3.447  20.129  0.00  0.00    +0.000 A 
ATOM      5  C   UNL     1       4.213   4.329  19.316  0.00  0.00    +0.000 A 
ATOM      6  N   UNL     1       3.769   5.581  19.093  0.00  0.00    +0.000 NA
ENDROOT
BRANCH   1  10
ATOM      7  C   UNL     1       1.085  10.005  19.161  0.00  0.00    +0.000 A 
ATOM      8  C   UNL     1       0.997   9.328  20.384  0.00  0.00    +0.000 A 
ATOM      9  C   UNL     1       1.501   8.030  20.559  0.00  0.00    +0.000 A 
ATOM     10  C   UNL     1       2.139   7.333  19.520  0.00  0.00    +0.000 A 
ATOM     11  C   UNL     1       2.271   8.020  18.306  0.00  0.00    +0.000 A 
ATOM     12  C   UNL     1       1.757   9.319  18.135  0.00  0.00    +0.000 A 
BRANCH   7  14
ATOM     13  C   UNL     1      -0.816  11.451  18.520  0.00  0.00    +0.000 C 
ATOM     14  N   UNL     1       0.558  11.284  18.981  0.00  0.00    +0.000 N 
ATOM     15  C   UNL     1       1.466  12.409  18.779  0.00  0.00    +0.000 C 
ENDBRANCH   7  14
ENDBRANCH   1  10
BRANCH   5  16
ATOM     16  N   UNL     1       5.414   3.867  18.731  0.00  0.00    +0.000 N 
ATOM     17  H   UNL     1       6.149   3.816  19.427  0.00  0.00    +0.000 HD
BRANCH  16  18
ATOM     18  C   UNL     1       5.887   4.110  17.429  0.00  0.00    +0.000 A 
ATOM     19  C   UNL     1       5.043   3.889  16.329  0.00  0.00    +0.000 A 
ATOM     20  C   UNL     1       5.456   4.215  15.035  0.00  0.00    +0.000 A 
ATOM     21  C   UNL     1       6.711   4.779  14.840  0.00  0.00    +0.000 A 
ATOM     22  F   UNL     1       7.093   5.122  13.602  0.00  0.00    +0.000 F 
ATOM     23  C   UNL     1       7.564   5.004  15.909  0.00  0.00    +0.000 A 
ATOM     24  C   UNL     1       7.157   4.662  17.199  0.00  0.00    +0.000 A 
ENDBRANCH  16  18
ENDBRANCH   5  16
TORSDOF 4
ENDMDL
MODEL 3
REMARK VINA RESULT:      -7.9      3.473      5.548
REMARK  Name = 
REMARK  6 active torsions:
REMARK  status: ('A' for Active; 'I' for Inactive)
REMARK    1  A    between atoms: C_1  and  N_2
REMARK    2  A    between atoms: N_2  and  C_3
REMARK    3  A    between atoms: N_2  and  C_4
REMARK    4  A    between atoms: C_7  and  C_8
REMARK    5  A    between atoms: C_12  and  N_13
REMARK    6  A    between atoms: N_13  and  C_14
REMARK                            x       y       z     vdW  Elec       q    Type
REMARK                         _______ _______ _______ _____ _____    ______ ____
ROOT
ATOM      1  C   UNL     1       2.486   6.004  19.792  0.00  0.00    +0.000 A 
ATOM      2  N   UNL     1       1.831   5.295  20.734  0.00  0.00    +0.000 NA
ATOM      3  C   UNL     1       2.238   4.035  20.929  0.00  0.00    +0.000 A 
ATOM      4  C   UNL     1       3.279   3.469  20.241  0.00  0.00    +0.000 A 
ATOM      5  C   UNL     1       3.895   4.257  19.287  0.00  0.00    +0.000 A 
ATOM      6  N   UNL     1       3.498   5.520  19.046  0.00  0.00    +0.000 NA
ENDROOT
BRANCH   1  10
ATOM      7  C   UNL     1       1.109  10.107  19.181  0.00  0.00    +0.000 A 
ATOM      8  C   UNL     1       0.992   9.452  20.413  0.00  0.00    +0.000 A 
ATOM      9  C   UNL     1       1.441   8.136  20.606  0.00  0.00    +0.000 A 
ATOM     10  C   UNL     1       2.049   7.399  19.577  0.00  0.00    +0.000 A 
ATOM     11  C   UNL     1       2.211   8.063  18.355  0.00  0.00    +0.000 A 
ATOM     12  C   UNL     1       1.753   9.380  18.165  0.00  0.00    +0.000 A 
BRANCH   7  14
ATOM     13  C   UNL     1      -0.754  11.628  18.602  0.00  0.00    +0.000 C 
ATOM     14  N   UNL     1       0.637  11.406  18.983  0.00  0.00    +0.000 N 
ATOM     15  C   UNL     1       1.586  12.472  18.680  0.00  0.00    +0.000 C 
ENDBRANCH   7  14
ENDBRANCH   1  10
BRANCH   5  16
ATOM     16  N   UNL     1       4.973   3.683  18.574  0.00  0.00    +0.000 N 
ATOM     17  H   UNL     1       5.645   3.278  19.215  0.00  0.00    +0.000 HD
BRANCH  16  18
ATOM     18  C   UNL     1       5.543   4.130  17.368  0.00  0.00    +0.000 A 
ATOM     19  C   UNL     1       6.853   4.632  17.361  0.00  0.00    +0.000 A 
ATOM     20  C   UNL     1       7.474   4.991  16.162  0.00  0.00    +0.000 A 
ATOM     21  C   UNL     1       6.790   4.830  14.963  0.00  0.00    +0.000 A 
ATOM     22  F   UNL     1       7.399   5.143  13.812  0.00  0.00    +0.000 F 
ATOM     23  C   UNL     1       5.494   4.339  14.943  0.00  0.00    +0.000 A 
ATOM     24  C   UNL     1       4.868   3.998  16.143  0.00  0.00    +0.000 A 
ENDBRANCH  16  18
ENDBRANCH   5  16
TORSDOF 4
ENDMDL
MODEL 4
REMARK VINA RESULT:      -7.9      0.276      1.029
REMARK  Name = 
REMARK  6 active torsions:
REMARK  status: ('A' for Active; 'I' for Inactive)
REMARK    1  A    between atoms: C_1  and  N_2
REMARK    2  A    between atoms: N_2  and  C_3
REMARK    3  A    between atoms: N_2  and  C_4
REMARK    4  A    between atoms: C_7  and  C_8
REMARK    5  A    between atoms: C_12  and  N_13
REMARK    6  A    between atoms: N_13  and  C_14
REMARK                            x       y       z     vdW  Elec       q    Type
REMARK                         _______ _______ _______ _____ _____    ______ ____
ROOT
ATOM      1  C   UNL     1       0.879   9.750  19.867  0.00  0.00    +0.000 A 
ATOM      2  N   UNL     1       1.101  10.221  18.623  0.00  0.00    +0.000 NA
ATOM      3  C   UNL     1       1.858   9.462  17.820  0.00  0.00    +0.000 A 
ATOM      4  C   UNL     1       2.376   8.252  18.202  0.00  0.00    +0.000 A 
ATOM      5  C   UNL     1       2.110   7.843  19.495  0.00  0.00    +0.000 A 
ATOM      6  N   UNL     1       1.374   8.590  20.339  0.00  0.00    +0.000 NA
ENDROOT
BRANCH   1  10
ATOM      7  C   UNL     1      -1.664  12.123  22.514  0.00  0.00    +0.000 A 
ATOM      8  C   UNL     1      -0.961  10.997  22.959  0.00  0.00    +0.000 A 
ATOM      9  C   UNL     1      -0.142  10.241  22.107  0.00  0.00    +0.000 A 
ATOM     10  C   UNL     1       0.037  10.577  20.756  0.00  0.00    +0.000 A 
ATOM     11  C   UNL     1      -0.627  11.729  20.313  0.00  0.00    +0.000 A 
ATOM     12  C   UNL     1      -1.453  12.479  21.171  0.00  0.00    +0.000 A 
BRANCH   7  14
ATOM     13  C   UNL     1      -3.939  12.610  23.355  0.00  0.00    +0.000 C 
ATOM     14  N   UNL     1      -2.501  12.858  23.356  0.00  0.00    +0.000 N 
ATOM     15  C   UNL     1      -2.052  14.153  23.857  0.00  0.00    +0.000 C 
ENDBRANCH   7  14
ENDBRANCH   1  10
BRANCH   5  16
ATOM     16  N   UNL     1       2.638   6.594  19.898  0.00  0.00    +0.000 N 
ATOM     17  H   UNL     1       3.647   6.643  19.967  0.00  0.00    +0.000 HD
BRANCH  16  18
ATOM     18  C   UNL     1       2.156   5.312  19.579  0.00  0.00    +0.000 A 
ATOM     19  C   UNL     1       1.390   4.603  20.518  0.00  0.00    +0.000 A 
ATOM     20  C   UNL     1       0.820   3.370  20.188  0.00  0.00    +0.000 A 
ATOM     21  C   UNL     1       0.999   2.853  18.911  0.00  0.00    +0.000 A 
ATOM     22  F   UNL     1       0.424   1.688  18.586  0.00  0.00    +0.000 F 
ATOM     23  C   UNL     1       1.753   3.533  17.967  0.00  0.00    +0.000 A 
ATOM     24  C   UNL     1       2.338   4.756  18.303  0.00  0.00    +0.000 A 
ENDBRANCH  16  18
ENDBRANCH   5  16
TORSDOF 4
ENDMDL
MODEL 5
REMARK VINA RESULT:      -7.9      3.466      5.620
REMARK  Name = 
REMARK  6 active torsions:
REMARK  status: ('A' for Active; 'I' for Inactive)
REMARK    1  A    between atoms: C_1  and  N_2
REMARK    2  A    between atoms: N_2  and  C_3
REMARK    3  A    between atoms: N_2  and  C_4
REMARK    4  A    between atoms: C_7  and  C_8
REMARK    5  A    between atoms: C_12  and  N_13
REMARK    6  A    between atoms: N_13  and  C_14
REMARK                            x       y       z     vdW  Elec       q    Type
REMARK                         _______ _______ _______ _____ _____    ______ ____
ROOT
ATOM      1  C   UNL     1       2.656   5.948  19.698  0.00  0.00    +0.000 A 
ATOM      2  N   UNL     1       1.941   5.144  20.512  0.00  0.00    +0.000 NA
ATOM      3  C   UNL     1       2.416   3.907  20.704  0.00  0.00    +0.000 A 
ATOM      4  C   UNL     1       3.579   3.455  20.137  0.00  0.00    +0.000 A 
ATOM      5  C   UNL     1       4.250   4.334  19.309  0.00  0.00    +0.000 A 
ATOM      6  N   UNL     1       3.790   5.578  19.073  0.00  0.00    +0.000 NA
ENDROOT
BRANCH   1  10
ATOM      7  C   UNL     1       1.225  10.028  19.057  0.00  0.00    +0.000 A 
ATOM      8  C   UNL     1       1.848   9.284  18.048  0.00  0.00    +0.000 A 
ATOM      9  C   UNL     1       2.301   7.972  18.256  0.00  0.00    +0.000 A 
ATOM     10  C   UNL     1       2.144   7.317  19.489  0.00  0.00    +0.000 A 
ATOM     11  C   UNL     1       1.481   8.038  20.490  0.00  0.00    +0.000 A 
ATOM     12  C   UNL     1       1.035   9.356  20.278  0.00  0.00    +0.000 A 
BRANCH   7  14
ATOM     13  C   UNL     1       1.778  12.398  18.615  0.00  0.00    +0.000 C 
ATOM     14  N   UNL     1       0.800  11.342  18.857  0.00  0.00    +0.000 N 
ATOM     15  C   UNL     1      -0.510  11.753  19.352  0.00  0.00    +0.000 C 
ENDBRANCH   7  14
ENDBRANCH   1  10
BRANCH   5  16
ATOM     16  N   UNL     1       5.452   3.878  18.721  0.00  0.00    +0.000 N 
ATOM     17  H   UNL     1       6.192   3.842  19.413  0.00  0.00    +0.000 HD
BRANCH  16  18
ATOM     18  C   UNL     1       5.915   4.112  17.413  0.00  0.00    +0.000 A 
ATOM     19  C   UNL     1       5.063   3.877  16.322  0.00  0.00    +0.000 A 
ATOM     20  C   UNL     1       5.466   4.193  15.022  0.00  0.00    +0.000 A 
ATOM     21  C   UNL     1       6.716   4.762  14.813  0.00  0.00    +0.000 A 
ATOM     22  F   UNL     1       7.088   5.096  13.570  0.00  0.00    +0.000 F 
ATOM     23  C   UNL     1       7.577   5.001  15.873  0.00  0.00    +0.000 A 
ATOM     24  C   UNL     1       7.181   4.668  17.170  0.00  0.00    +0.000 A 
ENDBRANCH  16  18
ENDBRANCH   5  16
TORSDOF 4
ENDMDL
MODEL 6
REMARK VINA RESULT:      -7.9      3.516      5.594
REMARK  Name = 
REMARK  6 active torsions:
REMARK  status: ('A' for Active; 'I' for Inactive)
REMARK    1  A    between atoms: C_1  and  N_2
REMARK    2  A    between atoms: N_2  and  C_3
REMARK    3  A    between atoms: N_2  and  C_4
REMARK    4  A    between atoms: C_7  and  C_8
REMARK    5  A    between atoms: C_12  and  N_13
REMARK    6  A    between atoms: N_13  and  C_14
REMARK                            x       y       z     vdW  Elec       q    Type
REMARK                         _______ _______ _______ _____ _____    ______ ____
ROOT
ATOM      1  C   UNL     1       2.574   5.954  19.721  0.00  0.00    +0.000 A 
ATOM      2  N   UNL     1       1.947   5.214  20.658  0.00  0.00    +0.000 NA
ATOM      3  C   UNL     1       2.394   3.964  20.835  0.00  0.00    +0.000 A 
ATOM      4  C   UNL     1       3.447   3.439  20.134  0.00  0.00    +0.000 A 
ATOM      5  C   UNL     1       4.033   4.257  19.186  0.00  0.00    +0.000 A 
ATOM      6  N   UNL     1       3.596   5.511  18.963  0.00  0.00    +0.000 NA
ENDROOT
BRANCH   1  10
ATOM      7  C   UNL     1       1.237  10.073  19.123  0.00  0.00    +0.000 A 
ATOM      8  C   UNL     1       1.835   9.322  18.103  0.00  0.00    +0.000 A 
ATOM      9  C   UNL     1       2.258   7.998  18.298  0.00  0.00    +0.000 A 
ATOM     10  C   UNL     1       2.094   7.337  19.526  0.00  0.00    +0.000 A 
ATOM     11  C   UNL     1       1.455   8.066  20.538  0.00  0.00    +0.000 A 
ATOM     12  C   UNL     1       1.040   9.396  20.339  0.00  0.00    +0.000 A 
BRANCH   7  14
ATOM     13  C   UNL     1      -0.547  11.709  18.616  0.00  0.00    +0.000 C 
ATOM     14  N   UNL     1       0.843  11.398  18.936  0.00  0.00    +0.000 N 
ATOM     15  C   UNL     1       1.844  12.399  18.583  0.00  0.00    +0.000 C 
ENDBRANCH   7  14
ENDBRANCH   1  10
BRANCH   5  16
ATOM     16  N   UNL     1       5.123   3.726  18.460  0.00  0.00    +0.000 N 
ATOM     17  H   UNL     1       5.836   3.384  19.093  0.00  0.00    +0.000 HD
BRANCH  16  18
ATOM     18  C   UNL     1       5.631   4.165  17.223  0.00  0.00    +0.000 A 
ATOM     19  C   UNL     1       6.938   4.671  17.148  0.00  0.00    +0.000 A 
ATOM     20  C   UNL     1       7.497   5.023  15.917  0.00  0.00    +0.000 A 
ATOM     21  C   UNL     1       6.755   4.851  14.755  0.00  0.00    +0.000 A 
ATOM     22  F   UNL     1       7.304   5.157  13.572  0.00  0.00    +0.000 F 
ATOM     23  C   UNL     1       5.461   4.356  14.803  0.00  0.00    +0.000 A 
ATOM     24  C   UNL     1       4.896   4.022  16.035  0.00  0.00    +0.000 A 
ENDBRANCH  16  18
ENDBRANCH   5  16
TORSDOF 4
ENDMDL
MODEL 7
REMARK VINA RESULT:      -7.7      0.295      1.033
REMARK  Name = 
REMARK  6 active torsions:
REMARK  status: ('A' for Active; 'I' for Inactive)
REMARK    1  A    between atoms: C_1  and  N_2
REMARK    2  A    between atoms: N_2  and  C_3
REMARK    3  A    between atoms: N_2  and  C_4
REMARK    4  A    between atoms: C_7  and  C_8
REMARK    5  A    between atoms: C_12  and  N_13
REMARK    6  A    between atoms: N_13  and  C_14
REMARK                            x       y       z     vdW  Elec       q    Type
REMARK                         _______ _______ _______ _____ _____    ______ ____
ROOT
ATOM      1  C   UNL     1       0.598   9.862  20.075  0.00  0.00    +0.000 A 
ATOM      2  N   UNL     1       0.790  10.378  18.844  0.00  0.00    +0.000 NA
ATOM      3  C   UNL     1       1.579   9.680  18.017  0.00  0.00    +0.000 A 
ATOM      4  C   UNL     1       2.159   8.488  18.362  0.00  0.00    +0.000 A 
ATOM      5  C   UNL     1       1.920   8.029  19.644  0.00  0.00    +0.000 A 
ATOM      6  N   UNL     1       1.152   8.715  20.511  0.00  0.00    +0.000 NA
ENDROOT
BRANCH   1  10
ATOM      7  C   UNL     1      -1.950  12.183  22.763  0.00  0.00    +0.000 A 
ATOM      8  C   UNL     1      -1.828  12.481  21.400  0.00  0.00    +0.000 A 
ATOM      9  C   UNL     1      -1.013  11.730  20.540  0.00  0.00    +0.000 A 
ATOM     10  C   UNL     1      -0.279  10.621  20.990  0.00  0.00    +0.000 A 
ATOM     11  C   UNL     1      -0.431  10.288  22.342  0.00  0.00    +0.000 A 
ATOM     12  C   UNL     1      -1.245  11.049  23.202  0.00  0.00    +0.000 A 
BRANCH   7  14
ATOM     13  C   UNL     1      -3.954  12.380  24.200  0.00  0.00    +0.000 C 
ATOM     14  N   UNL     1      -2.740  12.948  23.623  0.00  0.00    +0.000 N 
ATOM     15  C   UNL     1      -2.648  14.403  23.573  0.00  0.00    +0.000 C 
ENDBRANCH   7  14
ENDBRANCH   1  10
BRANCH   5  16
ATOM     16  N   UNL     1       2.511   6.798  20.010  0.00  0.00    +0.000 N 
ATOM     17  H   UNL     1       3.519   6.889  20.053  0.00  0.00    +0.000 HD
BRANCH  16  18
ATOM     18  C   UNL     1       2.075   5.502  19.679  0.00  0.00    +0.000 A 
ATOM     19  C   UNL     1       2.513   4.904  18.487  0.00  0.00    +0.000 A 
ATOM     20  C   UNL     1       2.173   3.583  18.185  0.00  0.00    +0.000 A 
ATOM     21  C   UNL     1       1.408   2.851  19.084  0.00  0.00    +0.000 A 
ATOM     22  F   UNL     1       1.110   1.574  18.808  0.00  0.00    +0.000 F 
ATOM     23  C   UNL     1       0.960   3.420  20.267  0.00  0.00    +0.000 A 
ATOM     24  C   UNL     1       1.286   4.745  20.560  0.00  0.00    +0.000 A 
ENDBRANCH  16  18
ENDBRANCH   5  16
TORSDOF 4
ENDMDL
MODEL 8
REMARK VINA RESULT:      -7.6      3.811      5.985
REMARK  Name = 
REMARK  6 active torsions:
REMARK  status: ('A' for Active; 'I' for Inactive)
REMARK    1  A    between atoms: C_1  and  N_2
REMARK    2  A    between atoms: N_2  and  C_3
REMARK    3  A    between atoms: N_2  and  C_4
REMARK    4  A    between atoms: C_7  and  C_8
REMARK    5  A    between atoms: C_12  and  N_13
REMARK    6  A    between atoms: N_13  and  C_14
REMARK                            x       y       z     vdW  Elec       q    Type
REMARK                         _______ _______ _______ _____ _____    ______ ____
ROOT
ATOM      1  C   UNL     1       3.021   5.861  19.166  0.00  0.00    +0.000 A 
ATOM      2  N   UNL     1       2.450   4.977  20.010  0.00  0.00    +0.000 NA
ATOM      3  C   UNL     1       3.019   3.768  20.088  0.00  0.00    +0.000 A 
ATOM      4  C   UNL     1       4.139   3.420  19.380  0.00  0.00    +0.000 A 
ATOM      5  C   UNL     1       4.661   4.378  18.531  0.00  0.00    +0.000 A 
ATOM      6  N   UNL     1       4.102   5.596  18.408  0.00  0.00    +0.000 NA
ENDROOT
BRANCH   1  10
ATOM      7  C   UNL     1       1.116   9.789  18.940  0.00  0.00    +0.000 A 
ATOM      8  C   UNL     1       1.135   9.031  20.117  0.00  0.00    +0.000 A 
ATOM      9  C   UNL     1       1.753   7.772  20.186  0.00  0.00    +0.000 A 
ATOM     10  C   UNL     1       2.404   7.201  19.081  0.00  0.00    +0.000 A 
ATOM     11  C   UNL     1       2.429   7.973  17.913  0.00  0.00    +0.000 A 
ATOM     12  C   UNL     1       1.802   9.231  17.847  0.00  0.00    +0.000 A 
BRANCH   7  14
ATOM     13  C   UNL     1       1.266  12.251  18.753  0.00  0.00    +0.000 C 
ATOM     14  N   UNL     1       0.478  11.027  18.864  0.00  0.00    +0.000 N 
ATOM     15  C   UNL     1      -0.885  11.161  19.368  0.00  0.00    +0.000 C 
ENDBRANCH   7  14
ENDBRANCH   1  10
BRANCH   5  16
ATOM     16  N   UNL     1       5.819   4.030  17.798  0.00  0.00    +0.000 N 
ATOM     17  H   UNL     1       6.641   4.094  18.386  0.00  0.00    +0.000 HD
BRANCH  16  18
ATOM     18  C   UNL     1       6.079   4.266  16.436  0.00  0.00    +0.000 A 
ATOM     19  C   UNL     1       7.287   4.870  16.053  0.00  0.00    +0.000 A 
ATOM     20  C   UNL     1       7.610   5.026  14.703  0.00  0.00    +0.000 A 
ATOM     21  C   UNL     1       6.733   4.561  13.732  0.00  0.00    +0.000 A 
ATOM     22  F   UNL     1       7.059   4.681  12.438  0.00  0.00    +0.000 F 
ATOM     23  C   UNL     1       5.532   3.964  14.084  0.00  0.00    +0.000 A 
ATOM     24  C   UNL     1       5.202   3.824  15.433  0.00  0.00    +0.000 A 
ENDBRANCH  16  18
ENDBRANCH   5  16
TORSDOF 4
ENDMDL
MODEL 9
REMARK VINA RESULT:      -7.6      3.768      8.753
REMARK  Name = 
REMARK  6 active torsions:
REMARK  status: ('A' for Active; 'I' for Inactive)
REMARK    1  A    between atoms: C_1  and  N_2
REMARK    2  A    between atoms: N_2  and  C_3
REMARK    3  A    between atoms: N_2  and  C_4
REMARK    4  A    between atoms: C_7  and  C_8
REMARK    5  A    between atoms: C_12  and  N_13
REMARK    6  A    between atoms: N_13  and  C_14
REMARK                            x       y       z     vdW  Elec       q    Type
REMARK                         _______ _______ _______ _____ _____    ______ ____
ROOT
ATOM      1  C   UNL     1       2.169   7.945  18.879  0.00  0.00    +0.000 A 
ATOM      2  N   UNL     1       1.966   7.651  20.180  0.00  0.00    +0.000 NA
ATOM      3  C   UNL     1       1.111   8.437  20.847  0.00  0.00    +0.000 A 
ATOM      4  C   UNL     1       0.440   9.479  20.264  0.00  0.00    +0.000 A 
ATOM      5  C   UNL     1       0.708   9.722  18.930  0.00  0.00    +0.000 A 
ATOM      6  N   UNL     1       1.579   8.969  18.233  0.00  0.00    +0.000 NA
ENDROOT
BRANCH   1  10
ATOM      7  C   UNL     1       4.968   5.347  16.754  0.00  0.00    +0.000 A 
ATOM      8  C   UNL     1       4.019   4.850  17.655  0.00  0.00    +0.000 A 
ATOM      9  C   UNL     1       3.118   5.687  18.331  0.00  0.00    +0.000 A 
ATOM     10  C   UNL     1       3.103   7.077  18.134  0.00  0.00    +0.000 A 
ATOM     11  C   UNL     1       4.019   7.578  17.200  0.00  0.00    +0.000 A 
ATOM     12  C   UNL     1       4.924   6.734  16.530  0.00  0.00    +0.000 A 
BRANCH   7  14
ATOM     13  C   UNL     1       7.241   4.382  16.615  0.00  0.00    +0.000 C 
ATOM     14  N   UNL     1       5.881   4.516  16.103  0.00  0.00    +0.000 N 
ATOM     15  C   UNL     1       5.664   4.176  14.701  0.00  0.00    +0.000 C 
ENDBRANCH   7  14
ENDBRANCH   1  10
BRANCH   5  16
ATOM     16  N   UNL     1       0.019  10.794  18.317  0.00  0.00    +0.000 N 
ATOM     17  H   UNL     1       0.440  11.678  18.575  0.00  0.00    +0.000 HD
BRANCH  16  18
ATOM     18  C   UNL     1      -1.357  10.886  18.037  0.00  0.00    +0.000 A 
ATOM     19  C   UNL     1      -1.927  10.048  17.066  0.00  0.00    +0.000 A 
ATOM     20  C   UNL     1      -3.305  10.053  16.839  0.00  0.00    +0.000 A 
ATOM     21  C   UNL     1      -4.120  10.884  17.598  0.00  0.00    +0.000 A 
ATOM     22  F   UNL     1      -5.445  10.863  17.403  0.00  0.00    +0.000 F 
ATOM     23  C   UNL     1      -3.581  11.723  18.561  0.00  0.00    +0.000 A 
ATOM     24  C   UNL     1      -2.202  11.730  18.775  0.00  0.00    +0.000 A 
ENDBRANCH  16  18
ENDBRANCH   5  16
TORSDOF 4
ENDMDL
