MODEL 1
REMARK VINA RESULT:      -9.2      0.000      0.000
REMARK  Name = 
REMARK  7 active torsions:
REMARK  status: ('A' for Active; 'I' for Inactive)
REMARK    1  A    between atoms: C_1  and  C_2
REMARK    2  A    between atoms: C_2  and  C_3
REMARK    3  A    between atoms: C_5  and  O_6
REMARK    4  A    between atoms: O_6  and  C_7
REMARK    5  A    between atoms: C_10  and  C_11
REMARK    6  A    between atoms: C_15  and  C_16
REMARK    7  A    between atoms: C_16  and  C_17
REMARK                            x       y       z     vdW  Elec       q    Type
REMARK                         _______ _______ _______ _____ _____    ______ ____
ROOT
ATOM      1  C   UNL     1       3.117   5.537  18.556  0.00  0.00    +0.000 A 
ATOM      2  C   UNL     1       3.202   6.825  18.019  0.00  0.00    +0.000 A 
ATOM      3  C   UNL     1       2.563   7.887  18.656  0.00  0.00    +0.000 A 
ATOM      4  C   UNL     1       1.898   7.682  19.874  0.00  0.00    +0.000 A 
ATOM      5  C   UNL     1       1.909   6.416  20.466  0.00  0.00    +0.000 A 
ATOM      6  C   UNL     1       2.521   5.354  19.804  0.00  0.00    +0.000 A 
ATOM      7  F   UNL     1       2.498   4.140  20.374  0.00  0.00    +0.000 F 
ENDROOT
BRANCH   4   8
ATOM      8  C   UNL     1       1.146   8.795  20.480  0.00  0.00    +0.000 A 
ATOM      9  C   UNL     1       1.143   8.943  21.942  0.00  0.00    +0.000 A 
ATOM     10  C   UNL     1       0.354   9.863  22.520  0.00  0.00    +0.000 A 
ATOM     11  N   UNL     1      -0.431  10.689  21.722  0.00  0.00    +0.000 N 
ATOM     12  C   UNL     1      -1.392  11.634  22.023  0.00  0.00    +0.000 A 
ATOM     13  N   UNL     1      -1.781  12.215  20.900  0.00  0.00    +0.000 NA
ATOM     14  N   UNL     1      -1.152  11.605  19.848  0.00  0.00    +0.000 NA
ATOM     15  C   UNL     1      -0.377  10.658  20.332  0.00  0.00    +0.000 A 
ATOM     16  C   UNL     1       0.429   9.657  19.715  0.00  0.00    +0.000 A 
ATOM     17 CL   UNL     1       0.381   9.572  17.984  0.00  0.00    +0.000 Cl
BRANCH  12  18
ATOM     18  C   UNL     1      -2.055  11.878  23.340  0.00  0.00    +0.000 C 
BRANCH  18  19
ATOM     19  C   UNL     1      -3.393  12.560  23.411  0.00  0.00    +0.000 C 
ATOM     20  C   UNL     1      -4.298  12.439  24.612  0.00  0.00    +0.000 C 
ATOM     21  C   UNL     1      -3.569  13.727  24.353  0.00  0.00    +0.000 C 
ENDBRANCH  18  19
ENDBRANCH  12  18
ENDBRANCH   4   8
BRANCH   1  22
ATOM     22  O   UNL     1       3.609   4.424  17.912  0.00  0.00    +0.000 OA
BRANCH  22  25
ATOM     23  C   UNL     1       6.512   4.576  15.629  0.00  0.00    +0.000 A 
ATOM     24  C   UNL     1       5.189   4.450  16.031  0.00  0.00    +0.000 A 
ATOM     25  C   UNL     1       4.888   4.477  17.394  0.00  0.00    +0.000 A 
ATOM     26  C   UNL     1       5.922   4.535  18.320  0.00  0.00    +0.000 A 
ATOM     27  C   UNL     1       7.215   4.635  17.833  0.00  0.00    +0.000 A 
ATOM     28  N   UNL     1       7.523   4.675  16.520  0.00  0.00    +0.000 NA
BRANCH  23  30
ATOM     29  C   UNL     1       5.978   3.724  13.321  0.00  0.00    +0.000 C 
ATOM     30  C   UNL     1       6.866   4.627  14.167  0.00  0.00    +0.000 C 
ENDBRANCH  23  30
ENDBRANCH  22  25
ENDBRANCH   1  22
TORSDOF 6
ENDMDL
MODEL 2
REMARK VINA RESULT:      -8.4      2.841     10.218
REMARK  Name = 
REMARK  7 active torsions:
REMARK  status: ('A' for Active; 'I' for Inactive)
REMARK    1  A    between atoms: C_1  and  C_2
REMARK    2  A    between atoms: C_2  and  C_3
REMARK    3  A    between atoms: C_5  and  O_6
REMARK    4  A    between atoms: O_6  and  C_7
REMARK    5  A    between atoms: C_10  and  C_11
REMARK    6  A    between atoms: C_15  and  C_16
REMARK    7  A    between atoms: C_16  and  C_17
REMARK                            x       y       z     vdW  Elec       q    Type
REMARK                         _______ _______ _______ _____ _____    ______ ____
ROOT
ATOM      1  C   UNL     1       0.779   9.652  19.726  0.00  0.00    +0.000 A 
ATOM      2  C   UNL     1       1.015   9.723  18.350  0.00  0.00    +0.000 A 
ATOM      3  C   UNL     1       1.859   8.797  17.740  0.00  0.00    +0.000 A 
ATOM      4  C   UNL     1       2.413   7.748  18.489  0.00  0.00    +0.000 A 
ATOM      5  C   UNL     1       2.088   7.613  19.841  0.00  0.00    +0.000 A 
ATOM      6  C   UNL     1       1.270   8.564  20.448  0.00  0.00    +0.000 A 
ATOM      7  F   UNL     1       0.991   8.433  21.753  0.00  0.00    +0.000 F 
ENDROOT
BRANCH   4   8
ATOM      8  C   UNL     1       3.379   6.838  17.847  0.00  0.00    +0.000 A 
ATOM      9  C   UNL     1       4.490   7.406  17.071  0.00  0.00    +0.000 A 
ATOM     10  C   UNL     1       5.297   6.598  16.366  0.00  0.00    +0.000 A 
ATOM     11  N   UNL     1       5.088   5.223  16.402  0.00  0.00    +0.000 N 
ATOM     12  C   UNL     1       5.674   4.173  15.721  0.00  0.00    +0.000 A 
ATOM     13  N   UNL     1       5.181   3.039  16.188  0.00  0.00    +0.000 NA
ATOM     14  N   UNL     1       4.210   3.325  17.110  0.00  0.00    +0.000 NA
ATOM     15  C   UNL     1       4.119   4.634  17.209  0.00  0.00    +0.000 A 
ATOM     16  C   UNL     1       3.235   5.491  17.929  0.00  0.00    +0.000 A 
ATOM     17 CL   UNL     1       1.966   4.727  18.829  0.00  0.00    +0.000 Cl
BRANCH  12  18
ATOM     18  C   UNL     1       6.573   4.244  14.529  0.00  0.00    +0.000 C 
BRANCH  18  19
ATOM     19  C   UNL     1       6.362   3.332  13.354  0.00  0.00    +0.000 C 
ATOM     20  C   UNL     1       5.314   3.600  12.303  0.00  0.00    +0.000 C 
ATOM     21  C   UNL     1       6.766   3.808  11.978  0.00  0.00    +0.000 C 
ENDBRANCH  18  19
ENDBRANCH  12  18
ENDBRANCH   4   8
BRANCH   1  22
ATOM     22  O   UNL     1       0.067  10.608  20.414  0.00  0.00    +0.000 OA
BRANCH  22  25
ATOM     23  C   UNL     1      -2.932  11.045  18.299  0.00  0.00    +0.000 A 
ATOM     24  C   UNL     1      -1.707  10.543  18.715  0.00  0.00    +0.000 A 
ATOM     25  C   UNL     1      -1.115  11.066  19.867  0.00  0.00    +0.000 A 
ATOM     26  C   UNL     1      -1.716  12.137  20.517  0.00  0.00    +0.000 A 
ATOM     27  C   UNL     1      -2.927  12.591  20.021  0.00  0.00    +0.000 A 
ATOM     28  N   UNL     1      -3.546  12.058  18.947  0.00  0.00    +0.000 NA
BRANCH  23  30
ATOM     29  C   UNL     1      -3.071  10.965  15.786  0.00  0.00    +0.000 C 
ATOM     30  C   UNL     1      -3.635  10.455  17.105  0.00  0.00    +0.000 C 
ENDBRANCH  23  30
ENDBRANCH  22  25
ENDBRANCH   1  22
TORSDOF 6
ENDMDL
MODEL 3
REMARK VINA RESULT:      -8.4      1.375      2.058
REMARK  Name = 
REMARK  7 active torsions:
REMARK  status: ('A' for Active; 'I' for Inactive)
REMARK    1  A    between atoms: C_1  and  C_2
REMARK    2  A    between atoms: C_2  and  C_3
REMARK    3  A    between atoms: C_5  and  O_6
REMARK    4  A    between atoms: O_6  and  C_7
REMARK    5  A    between atoms: C_10  and  C_11
REMARK    6  A    between atoms: C_15  and  C_16
REMARK    7  A    between atoms: C_16  and  C_17
REMARK                            x       y       z     vdW  Elec       q    Type
REMARK                         _______ _______ _______ _____ _____    ______ ____
ROOT
ATOM      1  C   UNL     1       2.713   6.464  18.394  0.00  0.00    +0.000 A 
ATOM      2  C   UNL     1       2.416   7.720  17.858  0.00  0.00    +0.000 A 
ATOM      3  C   UNL     1       1.800   8.686  18.651  0.00  0.00    +0.000 A 
ATOM      4  C   UNL     1       1.544   8.428  20.006  0.00  0.00    +0.000 A 
ATOM      5  C   UNL     1       1.942   7.213  20.568  0.00  0.00    +0.000 A 
ATOM      6  C   UNL     1       2.527   6.241  19.759  0.00  0.00    +0.000 A 
ATOM      7  F   UNL     1       2.877   5.070  20.310  0.00  0.00    +0.000 F 
ENDROOT
BRANCH   4   8
ATOM      8  C   UNL     1       0.803   9.425  20.801  0.00  0.00    +0.000 A 
ATOM      9  C   UNL     1       0.146   9.001  22.044  0.00  0.00    +0.000 A 
ATOM     10  C   UNL     1      -0.648   9.857  22.708  0.00  0.00    +0.000 A 
ATOM     11  N   UNL     1      -0.813  11.151  22.223  0.00  0.00    +0.000 N 
ATOM     12  C   UNL     1      -1.622  12.198  22.620  0.00  0.00    +0.000 A 
ATOM     13  N   UNL     1      -1.335  13.257  21.883  0.00  0.00    +0.000 NA
ATOM     14  N   UNL     1      -0.406  12.902  20.942  0.00  0.00    +0.000 NA
ATOM     15  C   UNL     1      -0.124  11.628  21.112  0.00  0.00    +0.000 A 
ATOM     16  C   UNL     1       0.688  10.711  20.383  0.00  0.00    +0.000 A 
ATOM     17 CL   UNL     1       1.437  11.308  18.938  0.00  0.00    +0.000 Cl
BRANCH  12  18
ATOM     18  C   UNL     1      -2.769  12.156  23.579  0.00  0.00    +0.000 C 
BRANCH  18  19
ATOM     19  C   UNL     1      -3.887  13.154  23.480  0.00  0.00    +0.000 C 
ATOM     20  C   UNL     1      -5.077  12.947  22.576  0.00  0.00    +0.000 C 
ATOM     21  C   UNL     1      -5.236  12.800  24.062  0.00  0.00    +0.000 C 
ENDBRANCH  18  19
ENDBRANCH  12  18
ENDBRANCH   4   8
BRANCH   1  22
ATOM     22  O   UNL     1       3.198   5.422  17.636  0.00  0.00    +0.000 OA
BRANCH  22  25
ATOM     23  C   UNL     1       6.829   6.100  17.518  0.00  0.00    +0.000 A 
ATOM     24  C   UNL     1       5.500   6.237  17.898  0.00  0.00    +0.000 A 
ATOM     25  C   UNL     1       4.537   5.422  17.299  0.00  0.00    +0.000 A 
ATOM     26  C   UNL     1       4.911   4.562  16.275  0.00  0.00    +0.000 A 
ATOM     27  C   UNL     1       6.255   4.504  15.944  0.00  0.00    +0.000 A 
ATOM     28  N   UNL     1       7.211   5.236  16.553  0.00  0.00    +0.000 NA
BRANCH  23  30
ATOM     29  C   UNL     1       7.937   8.352  17.715  0.00  0.00    +0.000 C 
ATOM     30  C   UNL     1       7.904   6.908  18.195  0.00  0.00    +0.000 C 
ENDBRANCH  23  30
ENDBRANCH  22  25
ENDBRANCH   1  22
TORSDOF 6
ENDMDL
MODEL 4
REMARK VINA RESULT:      -8.4      2.716      3.890
REMARK  Name = 
REMARK  7 active torsions:
REMARK  status: ('A' for Active; 'I' for Inactive)
REMARK    1  A    between atoms: C_1  and  C_2
REMARK    2  A    between atoms: C_2  and  C_3
REMARK    3  A    between atoms: C_5  and  O_6
REMARK    4  A    between atoms: O_6  and  C_7
REMARK    5  A    between atoms: C_10  and  C_11
REMARK    6  A    between atoms: C_15  and  C_16
REMARK    7  A    between atoms: C_16  and  C_17
REMARK                            x       y       z     vdW  Elec       q    Type
REMARK                         _______ _______ _______ _____ _____    ______ ____
ROOT
ATOM      1  C   UNL     1       5.561   4.735  16.773  0.00  0.00    +0.000 A 
ATOM      2  C   UNL     1       5.927   6.051  17.071  0.00  0.00    +0.000 A 
ATOM      3  C   UNL     1       4.990   6.928  17.613  0.00  0.00    +0.000 A 
ATOM      4  C   UNL     1       3.701   6.475  17.930  0.00  0.00    +0.000 A 
ATOM      5  C   UNL     1       3.370   5.132  17.735  0.00  0.00    +0.000 A 
ATOM      6  C   UNL     1       4.304   4.271  17.161  0.00  0.00    +0.000 A 
ATOM      7  F   UNL     1       3.959   2.992  16.955  0.00  0.00    +0.000 F 
ENDROOT
BRANCH   4   8
ATOM      8  C   UNL     1       2.696   7.441  18.410  0.00  0.00    +0.000 A 
ATOM      9  C   UNL     1       2.351   8.592  17.565  0.00  0.00    +0.000 A 
ATOM     10  C   UNL     1       1.545   9.555  18.041  0.00  0.00    +0.000 A 
ATOM     11  N   UNL     1       1.021   9.435  19.324  0.00  0.00    +0.000 N 
ATOM     12  C   UNL     1       0.265  10.287  20.105  0.00  0.00    +0.000 A 
ATOM     13  N   UNL     1      -0.060   9.660  21.223  0.00  0.00    +0.000 NA
ATOM     14  N   UNL     1       0.545   8.432  21.233  0.00  0.00    +0.000 NA
ATOM     15  C   UNL     1       1.232   8.310  20.117  0.00  0.00    +0.000 A 
ATOM     16  C   UNL     1       2.118   7.304  19.630  0.00  0.00    +0.000 A 
ATOM     17 CL   UNL     1       2.450   5.975  20.692  0.00  0.00    +0.000 Cl
BRANCH  12  18
ATOM     18  C   UNL     1      -0.015  11.736  19.871  0.00  0.00    +0.000 C 
BRANCH  18  19
ATOM     19  C   UNL     1      -1.035  12.165  18.853  0.00  0.00    +0.000 C 
ATOM     20  C   UNL     1      -1.988  11.191  18.206  0.00  0.00    +0.000 C 
ATOM     21  C   UNL     1      -2.496  12.160  19.237  0.00  0.00    +0.000 C 
ENDBRANCH  18  19
ENDBRANCH  12  18
ENDBRANCH   4   8
BRANCH   1  22
ATOM     22  O   UNL     1       6.393   3.857  16.116  0.00  0.00    +0.000 OA
BRANCH  22  25
ATOM     23  C   UNL     1       5.998   3.467  12.463  0.00  0.00    +0.000 A 
ATOM     24  C   UNL     1       5.827   3.208  13.816  0.00  0.00    +0.000 A 
ATOM     25  C   UNL     1       6.526   3.977  14.747  0.00  0.00    +0.000 A 
ATOM     26  C   UNL     1       7.445   4.919  14.303  0.00  0.00    +0.000 A 
ATOM     27  C   UNL     1       7.570   5.098  12.934  0.00  0.00    +0.000 A 
ATOM     28  N   UNL     1       6.858   4.409  12.019  0.00  0.00    +0.000 NA
BRANCH  23  30
ATOM     29  C   UNL     1       3.843   3.337  11.167  0.00  0.00    +0.000 C 
ATOM     30  C   UNL     1       5.204   2.708  11.432  0.00  0.00    +0.000 C 
ENDBRANCH  23  30
ENDBRANCH  22  25
ENDBRANCH   1  22
TORSDOF 6
ENDMDL
MODEL 5
REMARK VINA RESULT:      -8.4      1.994      2.776
REMARK  Name = 
REMARK  7 active torsions:
REMARK  status: ('A' for Active; 'I' for Inactive)
REMARK    1  A    between atoms: C_1  and  C_2
REMARK    2  A    between atoms: C_2  and  C_3
REMARK    3  A    between atoms: C_5  and  O_6
REMARK    4  A    between atoms: O_6  and  C_7
REMARK    5  A    between atoms: C_10  and  C_11
REMARK    6  A    between atoms: C_15  and  C_16
REMARK    7  A    between atoms: C_16  and  C_17
REMARK                            x       y       z     vdW  Elec       q    Type
REMARK                         _______ _______ _______ _____ _____    ______ ____
ROOT
ATOM      1  C   UNL     1       2.893   6.641  18.347  0.00  0.00    +0.000 A 
ATOM      2  C   UNL     1       2.661   7.848  17.681  0.00  0.00    +0.000 A 
ATOM      3  C   UNL     1       1.849   8.819  18.264  0.00  0.00    +0.000 A 
ATOM      4  C   UNL     1       1.324   8.620  19.550  0.00  0.00    +0.000 A 
ATOM      5  C   UNL     1       1.648   7.461  20.260  0.00  0.00    +0.000 A 
ATOM      6  C   UNL     1       2.433   6.482  19.654  0.00  0.00    +0.000 A 
ATOM      7  F   UNL     1       2.710   5.364  20.340  0.00  0.00    +0.000 F 
ENDROOT
BRANCH   4   8
ATOM      8  C   UNL     1       0.389   9.614  20.108  0.00  0.00    +0.000 A 
ATOM      9  C   UNL     1      -0.573  10.270  19.213  0.00  0.00    +0.000 A 
ATOM     10  C   UNL     1      -1.336  11.276  19.671  0.00  0.00    +0.000 A 
ATOM     11  N   UNL     1      -1.226  11.665  21.002  0.00  0.00    +0.000 N 
ATOM     12  C   UNL     1      -1.789  12.704  21.719  0.00  0.00    +0.000 A 
ATOM     13  N   UNL     1      -1.436  12.582  22.987  0.00  0.00    +0.000 NA
ATOM     14  N   UNL     1      -0.574  11.525  23.107  0.00  0.00    +0.000 NA
ATOM     15  C   UNL     1      -0.409  11.000  21.912  0.00  0.00    +0.000 A 
ATOM     16  C   UNL     1       0.431   9.958  21.420  0.00  0.00    +0.000 A 
ATOM     17 CL   UNL     1       1.522   9.232  22.555  0.00  0.00    +0.000 Cl
BRANCH  12  18
ATOM     18  C   UNL     1      -2.522  13.891  21.185  0.00  0.00    +0.000 C 
BRANCH  18  19
ATOM     19  C   UNL     1      -3.989  13.807  20.866  0.00  0.00    +0.000 C 
ATOM     20  C   UNL     1      -4.982  13.164  21.802  0.00  0.00    +0.000 C 
ATOM     21  C   UNL     1      -4.957  14.659  21.654  0.00  0.00    +0.000 C 
ENDBRANCH  18  19
ENDBRANCH  12  18
ENDBRANCH   4   8
BRANCH   1  22
ATOM     22  O   UNL     1       3.573   5.590  17.775  0.00  0.00    +0.000 OA
BRANCH  22  25
ATOM     23  C   UNL     1       7.072   6.715  17.388  0.00  0.00    +0.000 A 
ATOM     24  C   UNL     1       5.799   6.618  17.933  0.00  0.00    +0.000 A 
ATOM     25  C   UNL     1       4.849   5.815  17.298  0.00  0.00    +0.000 A 
ATOM     26  C   UNL     1       5.167   5.207  16.090  0.00  0.00    +0.000 A 
ATOM     27  C   UNL     1       6.454   5.374  15.606  0.00  0.00    +0.000 A 
ATOM     28  N   UNL     1       7.406   6.094  16.236  0.00  0.00    +0.000 NA
BRANCH  23  30
ATOM     29  C   UNL     1       8.007   9.008  17.843  0.00  0.00    +0.000 C 
ATOM     30  C   UNL     1       8.143   7.511  18.085  0.00  0.00    +0.000 C 
ENDBRANCH  23  30
ENDBRANCH  22  25
ENDBRANCH   1  22
TORSDOF 6
ENDMDL
MODEL 6
REMARK VINA RESULT:      -8.3      3.648     10.508
REMARK  Name = 
REMARK  7 active torsions:
REMARK  status: ('A' for Active; 'I' for Inactive)
REMARK    1  A    between atoms: C_1  and  C_2
REMARK    2  A    between atoms: C_2  and  C_3
REMARK    3  A    between atoms: C_5  and  O_6
REMARK    4  A    between atoms: O_6  and  C_7
REMARK    5  A    between atoms: C_10  and  C_11
REMARK    6  A    between atoms: C_15  and  C_16
REMARK    7  A    between atoms: C_16  and  C_17
REMARK                            x       y       z     vdW  Elec       q    Type
REMARK                         _______ _______ _______ _____ _____    ______ ____
ROOT
ATOM      1  C   UNL     1      -1.156  12.349  19.765  0.00  0.00    +0.000 A 
ATOM      2  C   UNL     1       0.187  12.412  20.145  0.00  0.00    +0.000 A 
ATOM      3  C   UNL     1       1.033  11.334  19.891  0.00  0.00    +0.000 A 
ATOM      4  C   UNL     1       0.559  10.217  19.187  0.00  0.00    +0.000 A 
ATOM      5  C   UNL     1      -0.754  10.202  18.711  0.00  0.00    +0.000 A 
ATOM      6  C   UNL     1      -1.600  11.270  19.000  0.00  0.00    +0.000 A 
ATOM      7  F   UNL     1      -2.866  11.227  18.558  0.00  0.00    +0.000 F 
ENDROOT
BRANCH   4   8
ATOM      8  C   UNL     1       1.441   9.048  19.015  0.00  0.00    +0.000 A 
ATOM      9  C   UNL     1       2.220   8.917  17.776  0.00  0.00    +0.000 A 
ATOM     10  C   UNL     1       2.919   7.796  17.539  0.00  0.00    +0.000 A 
ATOM     11  N   UNL     1       2.920   6.778  18.488  0.00  0.00    +0.000 N 
ATOM     12  C   UNL     1       3.448   5.501  18.484  0.00  0.00    +0.000 A 
ATOM     13  N   UNL     1       3.257   4.961  19.676  0.00  0.00    +0.000 NA
ATOM     14  N   UNL     1       2.531   5.832  20.444  0.00  0.00    +0.000 NA
ATOM     15  C   UNL     1       2.287   6.904  19.721  0.00  0.00    +0.000 A 
ATOM     16  C   UNL     1       1.512   8.077  19.960  0.00  0.00    +0.000 A 
ATOM     17 CL   UNL     1       0.642   8.147  21.457  0.00  0.00    +0.000 Cl
BRANCH  12  18
ATOM     18  C   UNL     1       3.985   4.737  17.318  0.00  0.00    +0.000 C 
BRANCH  18  19
ATOM     19  C   UNL     1       5.359   5.024  16.781  0.00  0.00    +0.000 C 
ATOM     20  C   UNL     1       5.979   4.210  15.673  0.00  0.00    +0.000 C 
ATOM     21  C   UNL     1       5.494   5.603  15.392  0.00  0.00    +0.000 C 
ENDBRANCH  18  19
ENDBRANCH  12  18
ENDBRANCH   4   8
BRANCH   1  22
ATOM     22  O   UNL     1      -2.076  13.317  20.102  0.00  0.00    +0.000 OA
BRANCH  22  25
ATOM     23  C   UNL     1      -5.164  12.687  22.032  0.00  0.00    +0.000 A 
ATOM     24  C   UNL     1      -4.363  13.041  20.954  0.00  0.00    +0.000 A 
ATOM     25  C   UNL     1      -2.976  13.044  21.113  0.00  0.00    +0.000 A 
ATOM     26  C   UNL     1      -2.431  12.784  22.364  0.00  0.00    +0.000 A 
ATOM     27  C   UNL     1      -3.304  12.461  23.390  0.00  0.00    +0.000 A 
ATOM     28  N   UNL     1      -4.644  12.391  23.242  0.00  0.00    +0.000 NA
BRANCH  23  30
ATOM     29  C   UNL     1      -7.075  11.651  20.763  0.00  0.00    +0.000 C 
ATOM     30  C   UNL     1      -6.659  12.601  21.877  0.00  0.00    +0.000 C 
ENDBRANCH  23  30
ENDBRANCH  22  25
ENDBRANCH   1  22
TORSDOF 6
ENDMDL
MODEL 7
REMARK VINA RESULT:      -8.3      2.860      4.089
REMARK  Name = 
REMARK  7 active torsions:
REMARK  status: ('A' for Active; 'I' for Inactive)
REMARK    1  A    between atoms: C_1  and  C_2
REMARK    2  A    between atoms: C_2  and  C_3
REMARK    3  A    between atoms: C_5  and  O_6
REMARK    4  A    between atoms: O_6  and  C_7
REMARK    5  A    between atoms: C_10  and  C_11
REMARK    6  A    between atoms: C_15  and  C_16
REMARK    7  A    between atoms: C_16  and  C_17
REMARK                            x       y       z     vdW  Elec       q    Type
REMARK                         _______ _______ _______ _____ _____    ______ ____
ROOT
ATOM      1  C   UNL     1       5.564   4.785  16.772  0.00  0.00    +0.000 A 
ATOM      2  C   UNL     1       5.950   6.083  17.118  0.00  0.00    +0.000 A 
ATOM      3  C   UNL     1       5.015   6.968  17.652  0.00  0.00    +0.000 A 
ATOM      4  C   UNL     1       3.706   6.537  17.913  0.00  0.00    +0.000 A 
ATOM      5  C   UNL     1       3.351   5.207  17.670  0.00  0.00    +0.000 A 
ATOM      6  C   UNL     1       4.284   4.341  17.105  0.00  0.00    +0.000 A 
ATOM      7  F   UNL     1       3.918   3.075  16.854  0.00  0.00    +0.000 F 
ENDROOT
BRANCH   4   8
ATOM      8  C   UNL     1       2.707   7.513  18.385  0.00  0.00    +0.000 A 
ATOM      9  C   UNL     1       2.382   8.669  17.538  0.00  0.00    +0.000 A 
ATOM     10  C   UNL     1       1.582   9.640  18.008  0.00  0.00    +0.000 A 
ATOM     11  N   UNL     1       1.047   9.525  19.287  0.00  0.00    +0.000 N 
ATOM     12  C   UNL     1       0.293  10.385  20.062  0.00  0.00    +0.000 A 
ATOM     13  N   UNL     1      -0.047   9.761  21.177  0.00  0.00    +0.000 NA
ATOM     14  N   UNL     1       0.545   8.526  21.191  0.00  0.00    +0.000 NA
ATOM     15  C   UNL     1       1.239   8.398  20.080  0.00  0.00    +0.000 A 
ATOM     16  C   UNL     1       2.118   7.383  19.600  0.00  0.00    +0.000 A 
ATOM     17 CL   UNL     1       2.428   6.050  20.665  0.00  0.00    +0.000 Cl
BRANCH  12  18
ATOM     18  C   UNL     1       0.031  11.837  19.825  0.00  0.00    +0.000 C 
BRANCH  18  19
ATOM     19  C   UNL     1       1.166  12.820  19.758  0.00  0.00    +0.000 C 
ATOM     20  C   UNL     1       1.626  13.433  18.459  0.00  0.00    +0.000 C 
ATOM     21  C   UNL     1       0.861  14.267  19.446  0.00  0.00    +0.000 C 
ENDBRANCH  18  19
ENDBRANCH  12  18
ENDBRANCH   4   8
BRANCH   1  22
ATOM     22  O   UNL     1       6.398   3.904  16.120  0.00  0.00    +0.000 OA
BRANCH  22  25
ATOM     23  C   UNL     1       5.941   3.451  12.481  0.00  0.00    +0.000 A 
ATOM     24  C   UNL     1       5.791   3.217  13.841  0.00  0.00    +0.000 A 
ATOM     25  C   UNL     1       6.509   4.000  14.747  0.00  0.00    +0.000 A 
ATOM     26  C   UNL     1       7.425   4.929  14.270  0.00  0.00    +0.000 A 
ATOM     27  C   UNL     1       7.528   5.083  12.897  0.00  0.00    +0.000 A 
ATOM     28  N   UNL     1       6.797   4.381  12.006  0.00  0.00    +0.000 NA
BRANCH  23  30
ATOM     29  C   UNL     1       3.851   3.406  11.079  0.00  0.00    +0.000 C 
ATOM     30  C   UNL     1       5.127   2.678  11.477  0.00  0.00    +0.000 C 
ENDBRANCH  23  30
ENDBRANCH  22  25
ENDBRANCH   1  22
TORSDOF 6
ENDMDL
MODEL 8
REMARK VINA RESULT:      -8.2      2.481      3.689
REMARK  Name = 
REMARK  7 active torsions:
REMARK  status: ('A' for Active; 'I' for Inactive)
REMARK    1  A    between atoms: C_1  and  C_2
REMARK    2  A    between atoms: C_2  and  C_3
REMARK    3  A    between atoms: C_5  and  O_6
REMARK    4  A    between atoms: O_6  and  C_7
REMARK    5  A    between atoms: C_10  and  C_11
REMARK    6  A    between atoms: C_15  and  C_16
REMARK    7  A    between atoms: C_16  and  C_17
REMARK                            x       y       z     vdW  Elec       q    Type
REMARK                         _______ _______ _______ _____ _____    ______ ____
ROOT
ATOM      1  C   UNL     1       5.460   5.157  16.649  0.00  0.00    +0.000 A 
ATOM      2  C   UNL     1       4.172   4.668  16.889  0.00  0.00    +0.000 A 
ATOM      3  C   UNL     1       3.224   5.481  17.508  0.00  0.00    +0.000 A 
ATOM      4  C   UNL     1       3.535   6.812  17.822  0.00  0.00    +0.000 A 
ATOM      5  C   UNL     1       4.786   7.333  17.480  0.00  0.00    +0.000 A 
ATOM      6  C   UNL     1       5.737   6.502  16.893  0.00  0.00    +0.000 A 
ATOM      7  F   UNL     1       6.942   7.011  16.597  0.00  0.00    +0.000 F 
ENDROOT
BRANCH   4   8
ATOM      8  C   UNL     1       2.553   7.625  18.564  0.00  0.00    +0.000 A 
ATOM      9  C   UNL     1       2.067   8.876  17.969  0.00  0.00    +0.000 A 
ATOM     10  C   UNL     1       1.282   9.698  18.685  0.00  0.00    +0.000 A 
ATOM     11  N   UNL     1       0.915   9.337  19.978  0.00  0.00    +0.000 N 
ATOM     12  C   UNL     1       0.220  10.003  20.969  0.00  0.00    +0.000 A 
ATOM     13  N   UNL     1       0.052   9.183  21.992  0.00  0.00    +0.000 NA
ATOM     14  N   UNL     1       0.704   8.008  21.728  0.00  0.00    +0.000 NA
ATOM     15  C   UNL     1       1.262   8.113  20.540  0.00  0.00    +0.000 A 
ATOM     16  C   UNL     1       2.126   7.255  19.798  0.00  0.00    +0.000 A 
ATOM     17 CL   UNL     1       2.633   5.792  20.577  0.00  0.00    +0.000 Cl
BRANCH  12  18
ATOM     18  C   UNL     1      -0.144  11.452  21.015  0.00  0.00    +0.000 C 
BRANCH  18  19
ATOM     19  C   UNL     1      -1.083  11.973  22.067  0.00  0.00    +0.000 C 
ATOM     20  C   UNL     1      -0.857  13.289  22.770  0.00  0.00    +0.000 C 
ATOM     21  C   UNL     1      -1.948  13.169  21.745  0.00  0.00    +0.000 C 
ENDBRANCH  18  19
ENDBRANCH  12  18
ENDBRANCH   4   8
BRANCH   1  22
ATOM     22  O   UNL     1       6.480   4.370  16.165  0.00  0.00    +0.000 OA
BRANCH  22  25
ATOM     23  C   UNL     1       6.142   3.447  12.602  0.00  0.00    +0.000 A 
ATOM     24  C   UNL     1       5.933   3.403  13.974  0.00  0.00    +0.000 A 
ATOM     25  C   UNL     1       6.646   4.277  14.797  0.00  0.00    +0.000 A 
ATOM     26  C   UNL     1       7.612   5.104  14.240  0.00  0.00    +0.000 A 
ATOM     27  C   UNL     1       7.771   5.069  12.864  0.00  0.00    +0.000 A 
ATOM     28  N   UNL     1       7.049   4.278  12.044  0.00  0.00    +0.000 NA
BRANCH  23  30
ATOM     29  C   UNL     1       4.085   3.268  11.162  0.00  0.00    +0.000 C 
ATOM     30  C   UNL     1       5.338   2.573  11.677  0.00  0.00    +0.000 C 
ENDBRANCH  23  30
ENDBRANCH  22  25
ENDBRANCH   1  22
TORSDOF 6
ENDMDL
MODEL 9
REMARK VINA RESULT:      -8.2      3.479      4.853
REMARK  Name = 
REMARK  7 active torsions:
REMARK  status: ('A' for Active; 'I' for Inactive)
REMARK    1  A    between atoms: C_1  and  C_2
REMARK    2  A    between atoms: C_2  and  C_3
REMARK    3  A    between atoms: C_5  and  O_6
REMARK    4  A    between atoms: O_6  and  C_7
REMARK    5  A    between atoms: C_10  and  C_11
REMARK    6  A    between atoms: C_15  and  C_16
REMARK    7  A    between atoms: C_16  and  C_17
REMARK                            x       y       z     vdW  Elec       q    Type
REMARK                         _______ _______ _______ _____ _____    ______ ____
ROOT
ATOM      1  C   UNL     1       1.917   8.422  19.088  0.00  0.00    +0.000 A 
ATOM      2  C   UNL     1       1.568   9.141  17.941  0.00  0.00    +0.000 A 
ATOM      3  C   UNL     1       0.437   9.955  17.949  0.00  0.00    +0.000 A 
ATOM      4  C   UNL     1      -0.310  10.112  19.126  0.00  0.00    +0.000 A 
ATOM      5  C   UNL     1       0.104   9.480  20.301  0.00  0.00    +0.000 A 
ATOM      6  C   UNL     1       1.217   8.642  20.273  0.00  0.00    +0.000 A 
ATOM      7  F   UNL     1       1.583   8.021  21.404  0.00  0.00    +0.000 F 
ENDROOT
BRANCH   4   8
ATOM      8  C   UNL     1      -1.557  10.898  19.087  0.00  0.00    +0.000 A 
ATOM      9  C   UNL     1      -1.843  11.839  20.178  0.00  0.00    +0.000 A 
ATOM     10  C   UNL     1      -3.033  12.459  20.234  0.00  0.00    +0.000 A 
ATOM     11  N   UNL     1      -3.973  12.223  19.237  0.00  0.00    +0.000 N 
ATOM     12  C   UNL     1      -5.286  12.624  19.081  0.00  0.00    +0.000 A 
ATOM     13  N   UNL     1      -5.719  12.207  17.904  0.00  0.00    +0.000 NA
ATOM     14  N   UNL     1      -4.737  11.457  17.312  0.00  0.00    +0.000 NA
ATOM     15  C   UNL     1      -3.705  11.425  18.128  0.00  0.00    +0.000 A 
ATOM     16  C   UNL     1      -2.458  10.735  18.085  0.00  0.00    +0.000 A 
ATOM     17 CL   UNL     1      -2.206   9.659  16.750  0.00  0.00    +0.000 Cl
BRANCH  12  18
ATOM     18  C   UNL     1      -6.176  13.259  20.101  0.00  0.00    +0.000 C 
BRANCH  18  19
ATOM     19  C   UNL     1      -7.511  12.655  20.435  0.00  0.00    +0.000 C 
ATOM     20  C   UNL     1      -7.645  11.297  21.079  0.00  0.00    +0.000 C 
ATOM     21  C   UNL     1      -7.916  12.535  21.885  0.00  0.00    +0.000 C 
ENDBRANCH  18  19
ENDBRANCH  12  18
ENDBRANCH   4   8
BRANCH   1  22
ATOM     22  O   UNL     1       2.941   7.501  19.110  0.00  0.00    +0.000 OA
BRANCH  22  25
ATOM     23  C   UNL     1       2.428   3.964  20.052  0.00  0.00    +0.000 A 
ATOM     24  C   UNL     1       2.859   5.279  20.156  0.00  0.00    +0.000 A 
ATOM     25  C   UNL     1       2.616   6.158  19.099  0.00  0.00    +0.000 A 
ATOM     26  C   UNL     1       2.033   5.679  17.933  0.00  0.00    +0.000 A 
ATOM     27  C   UNL     1       1.653   4.347  17.906  0.00  0.00    +0.000 A 
ATOM     28  N   UNL     1       1.822   3.497  18.939  0.00  0.00    +0.000 NA
BRANCH  23  30
ATOM     29  C   UNL     1       1.278   2.544  21.784  0.00  0.00    +0.000 C 
ATOM     30  C   UNL     1       2.606   3.007  21.201  0.00  0.00    +0.000 C 
ENDBRANCH  23  30
ENDBRANCH  22  25
ENDBRANCH   1  22
TORSDOF 6
ENDMDL
