MODEL 1
REMARK VINA RESULT:      -6.9      0.000      0.000
REMARK  Name = 
REMARK  5 active torsions:
REMARK  status: ('A' for Active; 'I' for Inactive)
REMARK    1  A    between atoms: C_1  and  N_2
REMARK    2  A    between atoms: C_3  and  C_4
REMARK    3  A    between atoms: C_4  and  C_5
REMARK    4  A    between atoms: C_5  and  N_6
REMARK    5  A    between atoms: C_7  and  C_8
REMARK                            x       y       z     vdW  Elec       q    Type
REMARK                         _______ _______ _______ _____ _____    ______ ____
ROOT
ATOM      1  C   UNL     1       2.727   2.094  17.485  0.00  0.00    +0.000 C 
ATOM      2  N   UNL     1       3.281   3.474  17.625  0.00  0.00    +0.000 N 
ATOM      3  C   UNL     1       2.597   4.571  18.145  0.00  0.00    +0.000 A 
ATOM      4  C   UNL     1       3.280   5.859  18.232  0.00  0.00    +0.000 A 
ATOM      5  C   UNL     1       4.646   5.939  17.780  0.00  0.00    +0.000 A 
ATOM      6  C   UNL     1       5.433   7.124  17.866  0.00  0.00    +0.000 A 
ATOM      7  C   UNL     1       6.744   7.176  17.373  0.00  0.00    +0.000 A 
ATOM      8 CL   UNL     1       7.663   8.669  17.457  0.00  0.00    +0.000 Cl
ATOM      9  C   UNL     1       7.325   6.048  16.815  0.00  0.00    +0.000 A 
ATOM     10  C   UNL     1       6.606   4.866  16.760  0.00  0.00    +0.000 A 
ATOM     11  C   UNL     1       5.274   4.795  17.239  0.00  0.00    +0.000 A 
ATOM     12  C   UNL     1       4.584   3.586  17.172  0.00  0.00    +0.000 A 
ATOM     13  O   UNL     1       5.159   2.609  16.711  0.00  0.00    +0.000 OA
ENDROOT
BRANCH   4  14
ATOM     14  C   UNL     1       2.567   7.130  18.705  0.00  0.00    +0.000 A 
ATOM     15  C   UNL     1       2.212   7.384  20.056  0.00  0.00    +0.000 A 
ATOM     16  C   UNL     1       1.470   8.517  20.414  0.00  0.00    +0.000 A 
ATOM     17  C   UNL     1       1.098   9.450  19.449  0.00  0.00    +0.000 A 
ATOM     18  C   UNL     1       1.459   9.249  18.122  0.00  0.00    +0.000 A 
ATOM     19  C   UNL     1       2.164   8.100  17.752  0.00  0.00    +0.000 A 
ENDBRANCH   4  14
BRANCH   3  20
ATOM     20  C   UNL     1       1.124   4.419  18.608  0.00  0.00    +0.000 C 
BRANCH  20  21
ATOM     21  C   UNL     1       0.896   4.146  20.112  0.00  0.00    +0.000 C 
BRANCH  21  22
ATOM     22  N   UNL     1       0.692   2.728  20.372  0.00  0.00    +0.000 NA
ATOM     23  H   UNL     1       1.626   2.261  20.434  0.00  0.00    +0.000 HD
ATOM     24  H   UNL     1       0.198   2.325  19.542  0.00  0.00    +0.000 HD
ENDBRANCH  21  22
ENDBRANCH  20  21
ENDBRANCH   3  20
TORSDOF 4
ENDMDL
MODEL 2
REMARK VINA RESULT:      -6.8      0.329      1.077
REMARK  Name = 
REMARK  5 active torsions:
REMARK  status: ('A' for Active; 'I' for Inactive)
REMARK    1  A    between atoms: C_1  and  N_2
REMARK    2  A    between atoms: C_3  and  C_4
REMARK    3  A    between atoms: C_4  and  C_5
REMARK    4  A    between atoms: C_5  and  N_6
REMARK    5  A    between atoms: C_7  and  C_8
REMARK                            x       y       z     vdW  Elec       q    Type
REMARK                         _______ _______ _______ _____ _____    ______ ____
ROOT
ATOM      1  C   UNL     1       2.956   2.133  17.135  0.00  0.00    +0.000 C 
ATOM      2  N   UNL     1       3.449   3.526  17.352  0.00  0.00    +0.000 N 
ATOM      3  C   UNL     1       2.698   4.579  17.871  0.00  0.00    +0.000 A 
ATOM      4  C   UNL     1       3.326   5.887  18.040  0.00  0.00    +0.000 A 
ATOM      5  C   UNL     1       4.711   6.032  17.666  0.00  0.00    +0.000 A 
ATOM      6  C   UNL     1       5.447   7.239  17.836  0.00  0.00    +0.000 A 
ATOM      7  C   UNL     1       6.780   7.356  17.418  0.00  0.00    +0.000 A 
ATOM      8 CL   UNL     1       7.636   8.877  17.603  0.00  0.00    +0.000 Cl
ATOM      9  C   UNL     1       7.431   6.271  16.854  0.00  0.00    +0.000 A 
ATOM     10  C   UNL     1       6.761   5.066  16.720  0.00  0.00    +0.000 A 
ATOM     11  C   UNL     1       5.409   4.931  17.121  0.00  0.00    +0.000 A 
ATOM     12  C   UNL     1       4.770   3.701  16.976  0.00  0.00    +0.000 A 
ATOM     13  O   UNL     1       5.405   2.763  16.514  0.00  0.00    +0.000 OA
ENDROOT
BRANCH   4  14
ATOM     14  C   UNL     1       2.542   7.113  18.516  0.00  0.00    +0.000 A 
ATOM     15  C   UNL     1       2.148   8.180  17.668  0.00  0.00    +0.000 A 
ATOM     16  C   UNL     1       1.522   9.325  18.180  0.00  0.00    +0.000 A 
ATOM     17  C   UNL     1       1.231   9.422  19.538  0.00  0.00    +0.000 A 
ATOM     18  C   UNL     1       1.573   8.379  20.391  0.00  0.00    +0.000 A 
ATOM     19  C   UNL     1       2.234   7.253  19.894  0.00  0.00    +0.000 A 
ENDBRANCH   4  14
BRANCH   3  20
ATOM     20  C   UNL     1       1.209   4.358  18.247  0.00  0.00    +0.000 C 
BRANCH  20  21
ATOM     21  C   UNL     1       0.927   3.806  19.662  0.00  0.00    +0.000 C 
BRANCH  21  22
ATOM     22  N   UNL     1       0.249   2.518  19.608  0.00  0.00    +0.000 NA
ATOM     23  H   UNL     1       0.723   1.920  18.894  0.00  0.00    +0.000 HD
ATOM     24  H   UNL     1      -0.726   2.692  19.268  0.00  0.00    +0.000 HD
ENDBRANCH  21  22
ENDBRANCH  20  21
ENDBRANCH   3  20
TORSDOF 4
ENDMDL
MODEL 3
REMARK VINA RESULT:      -6.5      2.334      5.006
REMARK  Name = 
REMARK  5 active torsions:
REMARK  status: ('A' for Active; 'I' for Inactive)
REMARK    1  A    between atoms: C_1  and  N_2
REMARK    2  A    between atoms: C_3  and  C_4
REMARK    3  A    between atoms: C_4  and  C_5
REMARK    4  A    between atoms: C_5  and  N_6
REMARK    5  A    between atoms: C_7  and  C_8
REMARK                            x       y       z     vdW  Elec       q    Type
REMARK                         _______ _______ _______ _____ _____    ______ ____
ROOT
ATOM      1  C   UNL     1       2.690   2.567  21.332  0.00  0.00    +0.000 C 
ATOM      2  N   UNL     1       2.918   3.712  20.400  0.00  0.00    +0.000 N 
ATOM      3  C   UNL     1       3.746   3.690  19.279  0.00  0.00    +0.000 A 
ATOM      4  C   UNL     1       3.856   4.889  18.452  0.00  0.00    +0.000 A 
ATOM      5  C   UNL     1       3.090   6.050  18.828  0.00  0.00    +0.000 A 
ATOM      6  C   UNL     1       3.070   7.257  18.071  0.00  0.00    +0.000 A 
ATOM      7  C   UNL     1       2.349   8.382  18.493  0.00  0.00    +0.000 A 
ATOM      8 CL   UNL     1       2.391   9.864  17.555  0.00  0.00    +0.000 Cl
ATOM      9  C   UNL     1       1.599   8.332  19.657  0.00  0.00    +0.000 A 
ATOM     10  C   UNL     1       1.555   7.159  20.393  0.00  0.00    +0.000 A 
ATOM     11  C   UNL     1       2.288   6.015  19.991  0.00  0.00    +0.000 A 
ATOM     12  C   UNL     1       2.215   4.851  20.754  0.00  0.00    +0.000 A 
ATOM     13  O   UNL     1       1.501   4.847  21.747  0.00  0.00    +0.000 OA
ENDROOT
BRANCH   4  14
ATOM     14  C   UNL     1       4.814   4.972  17.260  0.00  0.00    +0.000 A 
ATOM     15  C   UNL     1       4.531   4.437  15.976  0.00  0.00    +0.000 A 
ATOM     16  C   UNL     1       5.489   4.452  14.953  0.00  0.00    +0.000 A 
ATOM     17  C   UNL     1       6.735   5.038  15.162  0.00  0.00    +0.000 A 
ATOM     18  C   UNL     1       7.032   5.602  16.397  0.00  0.00    +0.000 A 
ATOM     19  C   UNL     1       6.097   5.553  17.435  0.00  0.00    +0.000 A 
ENDBRANCH   4  14
BRANCH   3  20
ATOM     20  C   UNL     1       4.549   2.409  18.933  0.00  0.00    +0.000 C 
BRANCH  20  21
ATOM     21  C   UNL     1       3.825   1.349  18.074  0.00  0.00    +0.000 C 
BRANCH  21  22
ATOM     22  N   UNL     1       2.469   1.764  17.742  0.00  0.00    +0.000 NA
ATOM     23  H   UNL     1       2.264   1.482  16.756  0.00  0.00    +0.000 HD
ATOM     24  H   UNL     1       2.445   2.810  17.776  0.00  0.00    +0.000 HD
ENDBRANCH  21  22
ENDBRANCH  20  21
ENDBRANCH   3  20
TORSDOF 4
ENDMDL
MODEL 4
REMARK VINA RESULT:      -6.5      2.478      4.610
REMARK  Name = 
REMARK  5 active torsions:
REMARK  status: ('A' for Active; 'I' for Inactive)
REMARK    1  A    between atoms: C_1  and  N_2
REMARK    2  A    between atoms: C_3  and  C_4
REMARK    3  A    between atoms: C_4  and  C_5
REMARK    4  A    between atoms: C_5  and  N_6
REMARK    5  A    between atoms: C_7  and  C_8
REMARK                            x       y       z     vdW  Elec       q    Type
REMARK                         _______ _______ _______ _____ _____    ______ ____
ROOT
ATOM      1  C   UNL     1       6.010   4.906  16.020  0.00  0.00    +0.000 C 
ATOM      2  N   UNL     1       4.935   5.362  16.951  0.00  0.00    +0.000 N 
ATOM      3  C   UNL     1       4.328   4.580  17.931  0.00  0.00    +0.000 A 
ATOM      4  C   UNL     1       3.298   5.173  18.780  0.00  0.00    +0.000 A 
ATOM      5  C   UNL     1       2.955   6.558  18.570  0.00  0.00    +0.000 A 
ATOM      6  C   UNL     1       2.008   7.262  19.368  0.00  0.00    +0.000 A 
ATOM      7  C   UNL     1       1.667   8.595  19.104  0.00  0.00    +0.000 A 
ATOM      8 CL   UNL     1       0.461   9.411  20.083  0.00  0.00    +0.000 Cl
ATOM      9  C   UNL     1       2.279   9.279  18.066  0.00  0.00    +0.000 A 
ATOM     10  C   UNL     1       3.241   8.641  17.300  0.00  0.00    +0.000 A 
ATOM     11  C   UNL     1       3.590   7.289  17.540  0.00  0.00    +0.000 A 
ATOM     12  C   UNL     1       4.566   6.682  16.753  0.00  0.00    +0.000 A 
ATOM     13  O   UNL     1       5.108   7.345  15.879  0.00  0.00    +0.000 OA
ENDROOT
BRANCH   4  14
ATOM     14  C   UNL     1       2.521   4.354  19.815  0.00  0.00    +0.000 A 
ATOM     15  C   UNL     1       2.999   4.070  21.121  0.00  0.00    +0.000 A 
ATOM     16  C   UNL     1       2.290   3.228  21.989  0.00  0.00    +0.000 A 
ATOM     17  C   UNL     1       1.069   2.682  21.602  0.00  0.00    +0.000 A 
ATOM     18  C   UNL     1       0.556   2.969  20.342  0.00  0.00    +0.000 A 
ATOM     19  C   UNL     1       1.277   3.773  19.456  0.00  0.00    +0.000 A 
ENDBRANCH   4  14
BRANCH   3  20
ATOM     20  C   UNL     1       4.738   3.093  18.102  0.00  0.00    +0.000 C 
BRANCH  20  21
ATOM     21  C   UNL     1       3.706   2.034  17.654  0.00  0.00    +0.000 C 
BRANCH  21  22
ATOM     22  N   UNL     1       3.931   0.755  18.314  0.00  0.00    +0.000 NA
ATOM     23  H   UNL     1       3.886   0.900  19.348  0.00  0.00    +0.000 HD
ATOM     24  H   UNL     1       4.906   0.452  18.084  0.00  0.00    +0.000 HD
ENDBRANCH  21  22
ENDBRANCH  20  21
ENDBRANCH   3  20
TORSDOF 4
ENDMDL
MODEL 5
REMARK VINA RESULT:      -6.5      3.176      5.654
REMARK  Name = 
REMARK  5 active torsions:
REMARK  status: ('A' for Active; 'I' for Inactive)
REMARK    1  A    between atoms: C_1  and  N_2
REMARK    2  A    between atoms: C_3  and  C_4
REMARK    3  A    between atoms: C_4  and  C_5
REMARK    4  A    between atoms: C_5  and  N_6
REMARK    5  A    between atoms: C_7  and  C_8
REMARK                            x       y       z     vdW  Elec       q    Type
REMARK                         _______ _______ _______ _____ _____    ______ ____
ROOT
ATOM      1  C   UNL     1       4.385   7.245  16.311  0.00  0.00    +0.000 C 
ATOM      2  N   UNL     1       3.503   7.137  17.512  0.00  0.00    +0.000 N 
ATOM      3  C   UNL     1       3.269   5.974  18.242  0.00  0.00    +0.000 A 
ATOM      4  C   UNL     1       2.391   6.030  19.408  0.00  0.00    +0.000 A 
ATOM      5  C   UNL     1       1.804   7.299  19.760  0.00  0.00    +0.000 A 
ATOM      6  C   UNL     1       0.976   7.491  20.903  0.00  0.00    +0.000 A 
ATOM      7  C   UNL     1       0.386   8.729  21.188  0.00  0.00    +0.000 A 
ATOM      8 CL   UNL     1      -0.665   8.910  22.582  0.00  0.00    +0.000 Cl
ATOM      9  C   UNL     1       0.626   9.821  20.368  0.00  0.00    +0.000 A 
ATOM     10  C   UNL     1       1.465   9.683  19.275  0.00  0.00    +0.000 A 
ATOM     11  C   UNL     1       2.060   8.436  18.961  0.00  0.00    +0.000 A 
ATOM     12  C   UNL     1       2.904   8.337  17.856  0.00  0.00    +0.000 A 
ATOM     13  O   UNL     1       3.119   9.342  17.193  0.00  0.00    +0.000 OA
ENDROOT
BRANCH   4  14
ATOM     14  C   UNL     1       2.013   4.778  20.205  0.00  0.00    +0.000 A 
ATOM     15  C   UNL     1       2.613   4.412  21.438  0.00  0.00    +0.000 A 
ATOM     16  C   UNL     1       2.299   3.201  22.070  0.00  0.00    +0.000 A 
ATOM     17  C   UNL     1       1.350   2.343  21.520  0.00  0.00    +0.000 A 
ATOM     18  C   UNL     1       0.718   2.688  20.331  0.00  0.00    +0.000 A 
ATOM     19  C   UNL     1       1.056   3.874  19.674  0.00  0.00    +0.000 A 
ENDBRANCH   4  14
BRANCH   3  20
ATOM     20  C   UNL     1       3.927   4.639  17.807  0.00  0.00    +0.000 C 
BRANCH  20  21
ATOM     21  C   UNL     1       5.279   4.284  18.466  0.00  0.00    +0.000 C 
BRANCH  21  22
ATOM     22  N   UNL     1       5.169   3.104  19.311  0.00  0.00    +0.000 NA
ATOM     23  H   UNL     1       5.838   3.199  20.109  0.00  0.00    +0.000 HD
ATOM     24  H   UNL     1       5.480   2.282  18.742  0.00  0.00    +0.000 HD
ENDBRANCH  21  22
ENDBRANCH  20  21
ENDBRANCH   3  20
TORSDOF 4
ENDMDL
MODEL 6
REMARK VINA RESULT:      -6.4      9.312     11.994
REMARK  Name = 
REMARK  5 active torsions:
REMARK  status: ('A' for Active; 'I' for Inactive)
REMARK    1  A    between atoms: C_1  and  N_2
REMARK    2  A    between atoms: C_3  and  C_4
REMARK    3  A    between atoms: C_4  and  C_5
REMARK    4  A    between atoms: C_5  and  N_6
REMARK    5  A    between atoms: C_7  and  C_8
REMARK                            x       y       z     vdW  Elec       q    Type
REMARK                         _______ _______ _______ _____ _____    ______ ____
ROOT
ATOM      1  C   UNL     1      11.905  17.239  17.706  0.00  0.00    +0.000 C 
ATOM      2  N   UNL     1      10.709  16.447  18.124  0.00  0.00    +0.000 N 
ATOM      3  C   UNL     1      10.704  15.085  18.418  0.00  0.00    +0.000 A 
ATOM      4  C   UNL     1       9.455  14.450  18.831  0.00  0.00    +0.000 A 
ATOM      5  C   UNL     1       8.272  15.269  18.924  0.00  0.00    +0.000 A 
ATOM      6  C   UNL     1       7.011  14.778  19.367  0.00  0.00    +0.000 A 
ATOM      7  C   UNL     1       5.871  15.593  19.401  0.00  0.00    +0.000 A 
ATOM      8 CL   UNL     1       4.326  14.935  19.909  0.00  0.00    +0.000 Cl
ATOM      9  C   UNL     1       5.957  16.926  19.030  0.00  0.00    +0.000 A 
ATOM     10  C   UNL     1       7.179  17.450  18.641  0.00  0.00    +0.000 A 
ATOM     11  C   UNL     1       8.339  16.639  18.586  0.00  0.00    +0.000 A 
ATOM     12  C   UNL     1       9.552  17.203  18.195  0.00  0.00    +0.000 A 
ATOM     13  O   UNL     1       9.582  18.396  17.923  0.00  0.00    +0.000 OA
ENDROOT
BRANCH   4  14
ATOM     14  C   UNL     1       9.350  12.943  19.082  0.00  0.00    +0.000 A 
ATOM     15  C   UNL     1       9.620  12.326  20.331  0.00  0.00    +0.000 A 
ATOM     16  C   UNL     1       9.607  10.932  20.474  0.00  0.00    +0.000 A 
ATOM     17  C   UNL     1       9.283  10.116  19.393  0.00  0.00    +0.000 A 
ATOM     18  C   UNL     1       8.980  10.689  18.164  0.00  0.00    +0.000 A 
ATOM     19  C   UNL     1       9.031  12.077  18.004  0.00  0.00    +0.000 A 
ENDBRANCH   4  14
BRANCH   3  20
ATOM     20  C   UNL     1      12.011  14.259  18.292  0.00  0.00    +0.000 C 
BRANCH  20  21
ATOM     21  C   UNL     1      12.226  13.500  16.963  0.00  0.00    +0.000 C 
BRANCH  21  22
ATOM     22  N   UNL     1      11.333  13.986  15.920  0.00  0.00    +0.000 NA
ATOM     23  H   UNL     1      11.523  13.453  15.041  0.00  0.00    +0.000 HD
ATOM     24  H   UNL     1      11.581  14.986  15.736  0.00  0.00    +0.000 HD
ENDBRANCH  21  22
ENDBRANCH  20  21
ENDBRANCH   3  20
TORSDOF 4
ENDMDL
MODEL 7
REMARK VINA RESULT:      -6.3      2.335      4.946
REMARK  Name = 
REMARK  5 active torsions:
REMARK  status: ('A' for Active; 'I' for Inactive)
REMARK    1  A    between atoms: C_1  and  N_2
REMARK    2  A    between atoms: C_3  and  C_4
REMARK    3  A    between atoms: C_4  and  C_5
REMARK    4  A    between atoms: C_5  and  N_6
REMARK    5  A    between atoms: C_7  and  C_8
REMARK                            x       y       z     vdW  Elec       q    Type
REMARK                         _______ _______ _______ _____ _____    ______ ____
ROOT
ATOM      1  C   UNL     1       2.609   2.560  21.375  0.00  0.00    +0.000 C 
ATOM      2  N   UNL     1       2.880   3.690  20.436  0.00  0.00    +0.000 N 
ATOM      3  C   UNL     1       3.746   3.645  19.346  0.00  0.00    +0.000 A 
ATOM      4  C   UNL     1       3.896   4.831  18.506  0.00  0.00    +0.000 A 
ATOM      5  C   UNL     1       3.127   6.004  18.840  0.00  0.00    +0.000 A 
ATOM      6  C   UNL     1       3.145   7.201  18.067  0.00  0.00    +0.000 A 
ATOM      7  C   UNL     1       2.420   8.337  18.448  0.00  0.00    +0.000 A 
ATOM      8 CL   UNL     1       2.507   9.806  17.492  0.00  0.00    +0.000 Cl
ATOM      9  C   UNL     1       1.629   8.310  19.586  0.00  0.00    +0.000 A 
ATOM     10  C   UNL     1       1.549   7.148  20.335  0.00  0.00    +0.000 A 
ATOM     11  C   UNL     1       2.286   5.992  19.975  0.00  0.00    +0.000 A 
ATOM     12  C   UNL     1       2.175   4.839  20.750  0.00  0.00    +0.000 A 
ATOM     13  O   UNL     1       1.427   4.855  21.718  0.00  0.00    +0.000 OA
ENDROOT
BRANCH   4  14
ATOM     14  C   UNL     1       4.896   4.890  17.348  0.00  0.00    +0.000 A 
ATOM     15  C   UNL     1       6.168   5.513  17.430  0.00  0.00    +0.000 A 
ATOM     16  C   UNL     1       6.998   5.626  16.306  0.00  0.00    +0.000 A 
ATOM     17  C   UNL     1       6.608   5.085  15.084  0.00  0.00    +0.000 A 
ATOM     18  C   UNL     1       5.383   4.437  14.978  0.00  0.00    +0.000 A 
ATOM     19  C   UNL     1       4.532   4.358  16.084  0.00  0.00    +0.000 A 
ENDBRANCH   4  14
BRANCH   3  20
ATOM     20  C   UNL     1       4.550   2.353  19.045  0.00  0.00    +0.000 C 
BRANCH  20  21
ATOM     21  C   UNL     1       3.827   1.265  18.220  0.00  0.00    +0.000 C 
BRANCH  21  22
ATOM     22  N   UNL     1       2.491   1.689  17.828  0.00  0.00    +0.000 NA
ATOM     23  H   UNL     1       1.906   1.793  18.688  0.00  0.00    +0.000 HD
ATOM     24  H   UNL     1       2.071   0.917  17.259  0.00  0.00    +0.000 HD
ENDBRANCH  21  22
ENDBRANCH  20  21
ENDBRANCH   3  20
TORSDOF 4
ENDMDL
MODEL 8
REMARK VINA RESULT:      -6.3      2.467      4.670
REMARK  Name = 
REMARK  5 active torsions:
REMARK  status: ('A' for Active; 'I' for Inactive)
REMARK    1  A    between atoms: C_1  and  N_2
REMARK    2  A    between atoms: C_3  and  C_4
REMARK    3  A    between atoms: C_4  and  C_5
REMARK    4  A    between atoms: C_5  and  N_6
REMARK    5  A    between atoms: C_7  and  C_8
REMARK                            x       y       z     vdW  Elec       q    Type
REMARK                         _______ _______ _______ _____ _____    ______ ____
ROOT
ATOM      1  C   UNL     1       6.024   4.931  15.829  0.00  0.00    +0.000 C 
ATOM      2  N   UNL     1       4.959   5.341  16.793  0.00  0.00    +0.000 N 
ATOM      3  C   UNL     1       4.352   4.508  17.731  0.00  0.00    +0.000 A 
ATOM      4  C   UNL     1       3.333   5.061  18.619  0.00  0.00    +0.000 A 
ATOM      5  C   UNL     1       3.001   6.458  18.492  0.00  0.00    +0.000 A 
ATOM      6  C   UNL     1       2.066   7.123  19.336  0.00  0.00    +0.000 A 
ATOM      7  C   UNL     1       1.735   8.472  19.152  0.00  0.00    +0.000 A 
ATOM      8 CL   UNL     1       0.543   9.240  20.186  0.00  0.00    +0.000 Cl
ATOM      9  C   UNL     1       2.346   9.209  18.151  0.00  0.00    +0.000 A 
ATOM     10  C   UNL     1       3.297   8.608  17.343  0.00  0.00    +0.000 A 
ATOM     11  C   UNL     1       3.635   7.242  17.502  0.00  0.00    +0.000 A 
ATOM     12  C   UNL     1       4.601   6.673  16.674  0.00  0.00    +0.000 A 
ATOM     13  O   UNL     1       5.143   7.381  15.836  0.00  0.00    +0.000 OA
ENDROOT
BRANCH   4  14
ATOM     14  C   UNL     1       2.557   4.189  19.611  0.00  0.00    +0.000 A 
ATOM     15  C   UNL     1       1.263   3.663  19.360  0.00  0.00    +0.000 A 
ATOM     16  C   UNL     1       0.559   2.958  20.346  0.00  0.00    +0.000 A 
ATOM     17  C   UNL     1       1.136   2.719  21.590  0.00  0.00    +0.000 A 
ATOM     18  C   UNL     1       2.416   3.191  21.857  0.00  0.00    +0.000 A 
ATOM     19  C   UNL     1       3.108   3.930  20.893  0.00  0.00    +0.000 A 
ENDBRANCH   4  14
BRANCH   3  20
ATOM     20  C   UNL     1       4.750   3.011  17.812  0.00  0.00    +0.000 C 
BRANCH  20  21
ATOM     21  C   UNL     1       3.621   1.981  17.586  0.00  0.00    +0.000 C 
BRANCH  21  22
ATOM     22  N   UNL     1       3.817   0.787  18.396  0.00  0.00    +0.000 NA
ATOM     23  H   UNL     1       3.878   1.070  19.401  0.00  0.00    +0.000 HD
ATOM     24  H   UNL     1       4.743   0.378  18.132  0.00  0.00    +0.000 HD
ENDBRANCH  21  22
ENDBRANCH  20  21
ENDBRANCH   3  20
TORSDOF 4
ENDMDL
MODEL 9
REMARK VINA RESULT:      -6.2      3.174      5.706
REMARK  Name = 
REMARK  5 active torsions:
REMARK  status: ('A' for Active; 'I' for Inactive)
REMARK    1  A    between atoms: C_1  and  N_2
REMARK    2  A    between atoms: C_3  and  C_4
REMARK    3  A    between atoms: C_4  and  C_5
REMARK    4  A    between atoms: C_5  and  N_6
REMARK    5  A    between atoms: C_7  and  C_8
REMARK                            x       y       z     vdW  Elec       q    Type
REMARK                         _______ _______ _______ _____ _____    ______ ____
ROOT
ATOM      1  C   UNL     1       4.420   7.327  16.262  0.00  0.00    +0.000 C 
ATOM      2  N   UNL     1       3.532   7.171  17.453  0.00  0.00    +0.000 N 
ATOM      3  C   UNL     1       3.307   5.983  18.145  0.00  0.00    +0.000 A 
ATOM      4  C   UNL     1       2.421   5.991  19.306  0.00  0.00    +0.000 A 
ATOM      5  C   UNL     1       1.817   7.241  19.694  0.00  0.00    +0.000 A 
ATOM      6  C   UNL     1       0.981   7.387  20.838  0.00  0.00    +0.000 A 
ATOM      7  C   UNL     1       0.375   8.610  21.159  0.00  0.00    +0.000 A 
ATOM      8 CL   UNL     1      -0.686   8.734  22.551  0.00  0.00    +0.000 Cl
ATOM      9  C   UNL     1       0.608   9.729  20.376  0.00  0.00    +0.000 A 
ATOM     10  C   UNL     1       1.455   9.636  19.284  0.00  0.00    +0.000 A 
ATOM     11  C   UNL     1       2.066   8.406  18.934  0.00  0.00    +0.000 A 
ATOM     12  C   UNL     1       2.917   8.352  17.832  0.00  0.00    +0.000 A 
ATOM     13  O   UNL     1       3.125   9.381  17.202  0.00  0.00    +0.000 OA
ENDROOT
BRANCH   4  14
ATOM     14  C   UNL     1       2.052   4.710  20.060  0.00  0.00    +0.000 A 
ATOM     15  C   UNL     1       1.059   3.794  19.628  0.00  0.00    +0.000 A 
ATOM     16  C   UNL     1       0.693   2.692  20.413  0.00  0.00    +0.000 A 
ATOM     17  C   UNL     1       1.333   2.445  21.625  0.00  0.00    +0.000 A 
ATOM     18  C   UNL     1       2.335   3.304  22.061  0.00  0.00    +0.000 A 
ATOM     19  C   UNL     1       2.676   4.428  21.303  0.00  0.00    +0.000 A 
ENDBRANCH   4  14
BRANCH   3  20
ATOM     20  C   UNL     1       3.983   4.669  17.671  0.00  0.00    +0.000 C 
BRANCH  20  21
ATOM     21  C   UNL     1       5.313   4.287  18.358  0.00  0.00    +0.000 C 
BRANCH  21  22
ATOM     22  N   UNL     1       5.191   3.042  19.105  0.00  0.00    +0.000 NA
ATOM     23  H   UNL     1       6.027   2.940  19.723  0.00  0.00    +0.000 HD
ATOM     24  H   UNL     1       5.218   2.258  18.412  0.00  0.00    +0.000 HD
ENDBRANCH  21  22
ENDBRANCH  20  21
ENDBRANCH   3  20
TORSDOF 4
ENDMDL
