MODEL 1
REMARK VINA RESULT:      -8.1      0.000      0.000
REMARK  Name = 
REMARK  6 active torsions:
REMARK  status: ('A' for Active; 'I' for Inactive)
REMARK    1  A    between atoms: C_1  and  C_2
REMARK    2  A    between atoms: C_2  and  C_3
REMARK    3  A    between atoms: C_2  and  N_4
REMARK    4  A    between atoms: N_4  and  O_5
REMARK    5  A    between atoms: C_6  and  C_8
REMARK    6  A    between atoms: C_8  and  C_9
REMARK                            x       y       z     vdW  Elec       q    Type
REMARK                         _______ _______ _______ _____ _____    ______ ____
ROOT
ATOM      1  C   UNL     1       2.262   7.699  19.002  0.00  0.00    +0.000 A 
ATOM      2  C   UNL     1       1.872   8.314  17.812  0.00  0.00    +0.000 A 
ATOM      3  C   UNL     1       1.114   9.486  17.847  0.00  0.00    +0.000 A 
ATOM      4  C   UNL     1       0.733  10.065  19.067  0.00  0.00    +0.000 A 
ATOM      5  C   UNL     1       1.075   9.441  20.270  0.00  0.00    +0.000 A 
ATOM      6  C   UNL     1       1.852   8.266  20.216  0.00  0.00    +0.000 A 
ATOM      7  C   UNL     1       0.650   9.866  21.635  0.00  0.00    +0.000 C 
ATOM      8  O   UNL     1       1.145   9.308  22.616  0.00  0.00    +0.000 OA
ATOM      9  C   UNL     1      -0.379  10.897  21.900  0.00  0.00    +0.000 A 
ATOM     10  C   UNL     1      -1.167  10.746  23.053  0.00  0.00    +0.000 A 
ATOM     11  C   UNL     1      -2.135  11.692  23.381  0.00  0.00    +0.000 A 
ATOM     12  C   UNL     1      -2.320  12.801  22.561  0.00  0.00    +0.000 A 
ATOM     13  C   UNL     1      -1.530  12.968  21.422  0.00  0.00    +0.000 A 
ATOM     14  C   UNL     1      -0.547  12.023  21.087  0.00  0.00    +0.000 A 
ATOM     15  C   UNL     1       0.324  12.220  19.888  0.00  0.00    +0.000 C 
ATOM     16  O   UNL     1       0.017  11.221  18.921  0.00  0.00    +0.000 OA
ENDROOT
BRANCH   1  17
ATOM     17  C   UNL     1       3.093   6.438  19.000  0.00  0.00    +0.000 C 
BRANCH  17  19
ATOM     18  N   UNL     1       2.186   4.395  20.072  0.00  0.00    +0.000 N 
ATOM     19  C   UNL     1       2.264   5.163  18.928  0.00  0.00    +0.000 C 
ATOM     20  O   UNL     1       1.723   4.830  17.869  0.00  0.00    +0.000 OA
BRANCH  18  22
ATOM     21  C   UNL     1       1.849   2.081  19.232  0.00  0.00    +0.000 C 
ATOM     22  C   UNL     1       1.362   3.176  20.181  0.00  0.00    +0.000 C 
ATOM     23  C   UNL     1       1.271   2.669  21.619  0.00  0.00    +0.000 C 
ENDBRANCH  18  22
BRANCH  18  24
ATOM     24  O   UNL     1       2.650   4.954  21.278  0.00  0.00    +0.000 OA
ATOM     25  H   UNL     1       3.585   4.699  21.338  0.00  0.00    +0.000 HD
ENDBRANCH  18  24
ENDBRANCH  17  19
ENDBRANCH   1  17
TORSDOF 4
ENDMDL
MODEL 2
REMARK VINA RESULT:      -8.0      5.120      7.804
REMARK  Name = 
REMARK  6 active torsions:
REMARK  status: ('A' for Active; 'I' for Inactive)
REMARK    1  A    between atoms: C_1  and  C_2
REMARK    2  A    between atoms: C_2  and  C_3
REMARK    3  A    between atoms: C_2  and  N_4
REMARK    4  A    between atoms: N_4  and  O_5
REMARK    5  A    between atoms: C_6  and  C_8
REMARK    6  A    between atoms: C_8  and  C_9
REMARK                            x       y       z     vdW  Elec       q    Type
REMARK                         _______ _______ _______ _____ _____    ______ ____
ROOT
ATOM      1  C   UNL     1       6.361   5.410  15.993  0.00  0.00    +0.000 A 
ATOM      2  C   UNL     1       5.492   6.428  15.599  0.00  0.00    +0.000 A 
ATOM      3  C   UNL     1       4.340   6.690  16.343  0.00  0.00    +0.000 A 
ATOM      4  C   UNL     1       4.034   5.944  17.491  0.00  0.00    +0.000 A 
ATOM      5  C   UNL     1       4.868   4.889  17.878  0.00  0.00    +0.000 A 
ATOM      6  C   UNL     1       6.033   4.648  17.123  0.00  0.00    +0.000 A 
ATOM      7  C   UNL     1       4.620   3.937  18.998  0.00  0.00    +0.000 C 
ATOM      8  O   UNL     1       5.511   3.146  19.318  0.00  0.00    +0.000 OA
ATOM      9  C   UNL     1       3.341   3.839  19.737  0.00  0.00    +0.000 A 
ATOM     10  C   UNL     1       2.971   2.576  20.227  0.00  0.00    +0.000 A 
ATOM     11  C   UNL     1       1.795   2.414  20.956  0.00  0.00    +0.000 A 
ATOM     12  C   UNL     1       0.981   3.514  21.206  0.00  0.00    +0.000 A 
ATOM     13  C   UNL     1       1.350   4.777  20.735  0.00  0.00    +0.000 A 
ATOM     14  C   UNL     1       2.538   4.951  20.006  0.00  0.00    +0.000 A 
ATOM     15  C   UNL     1       2.952   6.309  19.535  0.00  0.00    +0.000 C 
ATOM     16  O   UNL     1       2.885   6.347  18.114  0.00  0.00    +0.000 OA
ENDROOT
BRANCH   1  17
ATOM     17  C   UNL     1       7.621   5.108  15.218  0.00  0.00    +0.000 C 
BRANCH  17  19
ATOM     18  N   UNL     1       6.686   3.787  13.340  0.00  0.00    +0.000 N 
ATOM     19  C   UNL     1       7.388   4.912  13.728  0.00  0.00    +0.000 C 
ATOM     20  O   UNL     1       7.848   5.717  12.913  0.00  0.00    +0.000 OA
BRANCH  18  22
ATOM     21  C   UNL     1       7.093   2.305  11.388  0.00  0.00    +0.000 C 
ATOM     22  C   UNL     1       6.316   3.499  11.942  0.00  0.00    +0.000 C 
ATOM     23  C   UNL     1       4.810   3.312  11.772  0.00  0.00    +0.000 C 
ENDBRANCH  18  22
BRANCH  18  24
ATOM     24  O   UNL     1       6.023   3.047  14.336  0.00  0.00    +0.000 OA
ATOM     25  H   UNL     1       5.423   2.451  13.858  0.00  0.00    +0.000 HD
ENDBRANCH  18  24
ENDBRANCH  17  19
ENDBRANCH   1  17
TORSDOF 4
ENDMDL
MODEL 3
REMARK VINA RESULT:      -7.8      5.370      8.393
REMARK  Name = 
REMARK  6 active torsions:
REMARK  status: ('A' for Active; 'I' for Inactive)
REMARK    1  A    between atoms: C_1  and  C_2
REMARK    2  A    between atoms: C_2  and  C_3
REMARK    3  A    between atoms: C_2  and  N_4
REMARK    4  A    between atoms: N_4  and  O_5
REMARK    5  A    between atoms: C_6  and  C_8
REMARK    6  A    between atoms: C_8  and  C_9
REMARK                            x       y       z     vdW  Elec       q    Type
REMARK                         _______ _______ _______ _____ _____    ______ ____
ROOT
ATOM      1  C   UNL     1       6.668   7.215  17.261  0.00  0.00    +0.000 A 
ATOM      2  C   UNL     1       7.299   6.038  16.859  0.00  0.00    +0.000 A 
ATOM      3  C   UNL     1       6.617   4.822  16.927  0.00  0.00    +0.000 A 
ATOM      4  C   UNL     1       5.297   4.757  17.397  0.00  0.00    +0.000 A 
ATOM      5  C   UNL     1       4.661   5.919  17.847  0.00  0.00    +0.000 A 
ATOM      6  C   UNL     1       5.359   7.140  17.757  0.00  0.00    +0.000 A 
ATOM      7  C   UNL     1       3.311   5.996  18.477  0.00  0.00    +0.000 C 
ATOM      8  O   UNL     1       2.816   7.104  18.693  0.00  0.00    +0.000 OA
ATOM      9  C   UNL     1       2.529   4.817  18.912  0.00  0.00    +0.000 A 
ATOM     10  C   UNL     1       1.694   4.970  20.031  0.00  0.00    +0.000 A 
ATOM     11  C   UNL     1       0.908   3.911  20.480  0.00  0.00    +0.000 A 
ATOM     12  C   UNL     1       0.946   2.692  19.811  0.00  0.00    +0.000 A 
ATOM     13  C   UNL     1       1.763   2.536  18.689  0.00  0.00    +0.000 A 
ATOM     14  C   UNL     1       2.553   3.600  18.224  0.00  0.00    +0.000 A 
ATOM     15  C   UNL     1       3.398   3.444  17.000  0.00  0.00    +0.000 C 
ATOM     16  O   UNL     1       4.771   3.495  17.375  0.00  0.00    +0.000 OA
ENDROOT
BRANCH   1  17
ATOM     17  C   UNL     1       7.371   8.549  17.188  0.00  0.00    +0.000 C 
BRANCH  17  19
ATOM     18  N   UNL     1       8.909  10.034  18.445  0.00  0.00    +0.000 N 
ATOM     19  C   UNL     1       8.384   8.765  18.303  0.00  0.00    +0.000 C 
ATOM     20  O   UNL     1       8.738   7.820  19.016  0.00  0.00    +0.000 OA
BRANCH  18  22
ATOM     21  C   UNL     1      10.918  11.376  19.021  0.00  0.00    +0.000 C 
ATOM     22  C   UNL     1       9.840  10.416  19.523  0.00  0.00    +0.000 C 
ATOM     23  C   UNL     1       9.111  10.983  20.740  0.00  0.00    +0.000 C 
ENDBRANCH  18  22
BRANCH  18  24
ATOM     24  O   UNL     1       8.296  11.085  17.736  0.00  0.00    +0.000 OA
ATOM     25  H   UNL     1       7.447  11.237  18.182  0.00  0.00    +0.000 HD
ENDBRANCH  18  24
ENDBRANCH  17  19
ENDBRANCH   1  17
TORSDOF 4
ENDMDL
MODEL 4
REMARK VINA RESULT:      -7.7      2.156      3.117
REMARK  Name = 
REMARK  6 active torsions:
REMARK  status: ('A' for Active; 'I' for Inactive)
REMARK    1  A    between atoms: C_1  and  C_2
REMARK    2  A    between atoms: C_2  and  C_3
REMARK    3  A    between atoms: C_2  and  N_4
REMARK    4  A    between atoms: N_4  and  O_5
REMARK    5  A    between atoms: C_6  and  C_8
REMARK    6  A    between atoms: C_8  and  C_9
REMARK                            x       y       z     vdW  Elec       q    Type
REMARK                         _______ _______ _______ _____ _____    ______ ____
ROOT
ATOM      1  C   UNL     1       2.343   7.383  18.490  0.00  0.00    +0.000 A 
ATOM      2  C   UNL     1       2.238   8.299  17.443  0.00  0.00    +0.000 A 
ATOM      3  C   UNL     1       1.745   9.583  17.685  0.00  0.00    +0.000 A 
ATOM      4  C   UNL     1       1.348   9.975  18.972  0.00  0.00    +0.000 A 
ATOM      5  C   UNL     1       1.402   9.058  20.027  0.00  0.00    +0.000 A 
ATOM      6  C   UNL     1       1.916   7.771  19.767  0.00  0.00    +0.000 A 
ATOM      7  C   UNL     1       0.912   9.284  21.417  0.00  0.00    +0.000 C 
ATOM      8  O   UNL     1       1.156   8.440  22.281  0.00  0.00    +0.000 OA
ATOM      9  C   UNL     1       0.098  10.450  21.830  0.00  0.00    +0.000 A 
ATOM     10  C   UNL     1      -0.839  10.254  22.858  0.00  0.00    +0.000 A 
ATOM     11  C   UNL     1      -1.619  11.313  23.318  0.00  0.00    +0.000 A 
ATOM     12  C   UNL     1      -1.466  12.577  22.758  0.00  0.00    +0.000 A 
ATOM     13  C   UNL     1      -0.525  12.783  21.746  0.00  0.00    +0.000 A 
ATOM     14  C   UNL     1       0.271  11.724  21.281  0.00  0.00    +0.000 A 
ATOM     15  C   UNL     1       1.304  11.953  20.224  0.00  0.00    +0.000 C 
ATOM     16  O   UNL     1       0.914  11.270  19.038  0.00  0.00    +0.000 OA
ENDROOT
BRANCH   1  17
ATOM     17  C   UNL     1       2.884   5.991  18.265  0.00  0.00    +0.000 C 
BRANCH  17  19
ATOM     18  N   UNL     1       5.310   5.998  17.752  0.00  0.00    +0.000 N 
ATOM     19  C   UNL     1       4.330   5.821  18.709  0.00  0.00    +0.000 C 
ATOM     20  O   UNL     1       4.592   5.500  19.872  0.00  0.00    +0.000 OA
BRANCH  18  22
ATOM     21  C   UNL     1       7.390   4.664  17.498  0.00  0.00    +0.000 C 
ATOM     22  C   UNL     1       6.755   5.942  18.045  0.00  0.00    +0.000 C 
ATOM     23  C   UNL     1       7.491   7.186  17.553  0.00  0.00    +0.000 C 
ENDBRANCH  18  22
BRANCH  18  24
ATOM     24  O   UNL     1       4.936   6.566  16.520  0.00  0.00    +0.000 OA
ATOM     25  H   UNL     1       3.967   6.631  16.549  0.00  0.00    +0.000 HD
ENDBRANCH  18  24
ENDBRANCH  17  19
ENDBRANCH   1  17
TORSDOF 4
ENDMDL
MODEL 5
REMARK VINA RESULT:      -7.6      2.020      2.691
REMARK  Name = 
REMARK  6 active torsions:
REMARK  status: ('A' for Active; 'I' for Inactive)
REMARK    1  A    between atoms: C_1  and  C_2
REMARK    2  A    between atoms: C_2  and  C_3
REMARK    3  A    between atoms: C_2  and  N_4
REMARK    4  A    between atoms: N_4  and  O_5
REMARK    5  A    between atoms: C_6  and  C_8
REMARK    6  A    between atoms: C_8  and  C_9
REMARK                            x       y       z     vdW  Elec       q    Type
REMARK                         _______ _______ _______ _____ _____    ______ ____
ROOT
ATOM      1  C   UNL     1       2.415   6.995  19.317  0.00  0.00    +0.000 A 
ATOM      2  C   UNL     1       2.241   7.583  18.064  0.00  0.00    +0.000 A 
ATOM      3  C   UNL     1       1.644   8.841  17.960  0.00  0.00    +0.000 A 
ATOM      4  C   UNL     1       1.211   9.533  19.101  0.00  0.00    +0.000 A 
ATOM      5  C   UNL     1       1.335   8.942  20.362  0.00  0.00    +0.000 A 
ATOM      6  C   UNL     1       1.953   7.678  20.450  0.00  0.00    +0.000 A 
ATOM      7  C   UNL     1       0.823   9.496  21.648  0.00  0.00    +0.000 C 
ATOM      8  O   UNL     1       1.131   8.939  22.704  0.00  0.00    +0.000 OA
ATOM      9  C   UNL     1      -0.084  10.662  21.747  0.00  0.00    +0.000 A 
ATOM     10  C   UNL     1      -1.006  10.678  22.806  0.00  0.00    +0.000 A 
ATOM     11  C   UNL     1      -1.872  11.756  22.978  0.00  0.00    +0.000 A 
ATOM     12  C   UNL     1      -1.820  12.830  22.095  0.00  0.00    +0.000 A 
ATOM     13  C   UNL     1      -0.895  12.829  21.048  0.00  0.00    +0.000 A 
ATOM     14  C   UNL     1      -0.013  11.750  20.872  0.00  0.00    +0.000 A 
ATOM     15  C   UNL     1       1.002  11.766  19.774  0.00  0.00    +0.000 C 
ATOM     16  O   UNL     1       0.673  10.759  18.823  0.00  0.00    +0.000 OA
ENDROOT
BRANCH   1  17
ATOM     17  C   UNL     1       3.068   5.641  19.467  0.00  0.00    +0.000 C 
BRANCH  17  19
ATOM     18  N   UNL     1       4.951   5.328  17.884  0.00  0.00    +0.000 N 
ATOM     19  C   UNL     1       3.621   5.084  18.163  0.00  0.00    +0.000 C 
ATOM     20  O   UNL     1       2.883   4.474  17.383  0.00  0.00    +0.000 OA
BRANCH  18  22
ATOM     21  C   UNL     1       5.449   5.684  15.476  0.00  0.00    +0.000 C 
ATOM     22  C   UNL     1       5.648   4.791  16.700  0.00  0.00    +0.000 C 
ATOM     23  C   UNL     1       7.129   4.536  16.971  0.00  0.00    +0.000 C 
ENDBRANCH  18  22
BRANCH  18  24
ATOM     24  O   UNL     1       5.760   5.840  18.916  0.00  0.00    +0.000 OA
ATOM     25  H   UNL     1       5.782   6.800  18.774  0.00  0.00    +0.000 HD
ENDBRANCH  18  24
ENDBRANCH  17  19
ENDBRANCH   1  17
TORSDOF 4
ENDMDL
MODEL 6
REMARK VINA RESULT:      -7.6      0.852      1.309
REMARK  Name = 
REMARK  6 active torsions:
REMARK  status: ('A' for Active; 'I' for Inactive)
REMARK    1  A    between atoms: C_1  and  C_2
REMARK    2  A    between atoms: C_2  and  C_3
REMARK    3  A    between atoms: C_2  and  N_4
REMARK    4  A    between atoms: N_4  and  O_5
REMARK    5  A    between atoms: C_6  and  C_8
REMARK    6  A    between atoms: C_8  and  C_9
REMARK                            x       y       z     vdW  Elec       q    Type
REMARK                         _______ _______ _______ _____ _____    ______ ____
ROOT
ATOM      1  C   UNL     1       2.284   7.722  19.137  0.00  0.00    +0.000 A 
ATOM      2  C   UNL     1       1.802   8.197  17.918  0.00  0.00    +0.000 A 
ATOM      3  C   UNL     1       0.951   9.303  17.887  0.00  0.00    +0.000 A 
ATOM      4  C   UNL     1       0.567   9.955  19.068  0.00  0.00    +0.000 A 
ATOM      5  C   UNL     1       1.003   9.467  20.305  0.00  0.00    +0.000 A 
ATOM      6  C   UNL     1       1.872   8.358  20.316  0.00  0.00    +0.000 A 
ATOM      7  C   UNL     1       0.592   9.974  21.646  0.00  0.00    +0.000 C 
ATOM      8  O   UNL     1       1.167   9.545  22.648  0.00  0.00    +0.000 OA
ATOM      9  C   UNL     1      -0.508  10.939  21.867  0.00  0.00    +0.000 A 
ATOM     10  C   UNL     1      -1.239  10.827  23.061  0.00  0.00    +0.000 A 
ATOM     11  C   UNL     1      -2.270  11.718  23.349  0.00  0.00    +0.000 A 
ATOM     12  C   UNL     1      -2.576  12.733  22.448  0.00  0.00    +0.000 A 
ATOM     13  C   UNL     1      -1.844  12.862  21.265  0.00  0.00    +0.000 A 
ATOM     14  C   UNL     1      -0.798  11.973  20.970  0.00  0.00    +0.000 A 
ATOM     15  C   UNL     1       0.010  12.133  19.722  0.00  0.00    +0.000 C 
ATOM     16  O   UNL     1      -0.248  11.033  18.857  0.00  0.00    +0.000 OA
ENDROOT
BRANCH   1  17
ATOM     17  C   UNL     1       3.216   6.535  19.206  0.00  0.00    +0.000 C 
BRANCH  17  19
ATOM     18  N   UNL     1       2.684   4.138  18.860  0.00  0.00    +0.000 N 
ATOM     19  C   UNL     1       2.536   5.252  19.661  0.00  0.00    +0.000 C 
ATOM     20  O   UNL     1       1.853   5.240  20.691  0.00  0.00    +0.000 OA
BRANCH  18  22
ATOM     21  C   UNL     1       0.708   2.638  18.725  0.00  0.00    +0.000 C 
ATOM     22  C   UNL     1       2.150   2.808  19.206  0.00  0.00    +0.000 C 
ATOM     23  C   UNL     1       3.044   1.679  18.698  0.00  0.00    +0.000 C 
ENDBRANCH  18  22
BRANCH  18  24
ATOM     24  O   UNL     1       3.644   4.187  17.831  0.00  0.00    +0.000 OA
ATOM     25  H   UNL     1       3.259   4.757  17.146  0.00  0.00    +0.000 HD
ENDBRANCH  18  24
ENDBRANCH  17  19
ENDBRANCH   1  17
TORSDOF 4
ENDMDL
MODEL 7
REMARK VINA RESULT:      -7.5      2.204      3.028
REMARK  Name = 
REMARK  6 active torsions:
REMARK  status: ('A' for Active; 'I' for Inactive)
REMARK    1  A    between atoms: C_1  and  C_2
REMARK    2  A    between atoms: C_2  and  C_3
REMARK    3  A    between atoms: C_2  and  N_4
REMARK    4  A    between atoms: N_4  and  O_5
REMARK    5  A    between atoms: C_6  and  C_8
REMARK    6  A    between atoms: C_8  and  C_9
REMARK                            x       y       z     vdW  Elec       q    Type
REMARK                         _______ _______ _______ _____ _____    ______ ____
ROOT
ATOM      1  C   UNL     1       2.487   7.386  18.664  0.00  0.00    +0.000 A 
ATOM      2  C   UNL     1       2.254   8.201  17.556  0.00  0.00    +0.000 A 
ATOM      3  C   UNL     1       1.635   9.442  17.720  0.00  0.00    +0.000 A 
ATOM      4  C   UNL     1       1.237   9.892  18.988  0.00  0.00    +0.000 A 
ATOM      5  C   UNL     1       1.420   9.071  20.105  0.00  0.00    +0.000 A 
ATOM      6  C   UNL     1       2.060   7.828  19.924  0.00  0.00    +0.000 A 
ATOM      7  C   UNL     1       0.951   9.355  21.492  0.00  0.00    +0.000 C 
ATOM      8  O   UNL     1       1.309   8.611  22.408  0.00  0.00    +0.000 OA
ATOM      9  C   UNL     1       0.031  10.459  21.848  0.00  0.00    +0.000 A 
ATOM     10  C   UNL     1      -0.848  10.249  22.923  0.00  0.00    +0.000 A 
ATOM     11  C   UNL     1      -1.722  11.254  23.331  0.00  0.00    +0.000 A 
ATOM     12  C   UNL     1      -1.721  12.480  22.672  0.00  0.00    +0.000 A 
ATOM     13  C   UNL     1      -0.838  12.701  21.612  0.00  0.00    +0.000 A 
ATOM     14  C   UNL     1       0.051  11.697  21.198  0.00  0.00    +0.000 A 
ATOM     15  C   UNL     1       1.022  11.947  20.088  0.00  0.00    +0.000 C 
ATOM     16  O   UNL     1       0.670  11.136  18.973  0.00  0.00    +0.000 OA
ENDROOT
BRANCH   1  17
ATOM     17  C   UNL     1       3.165   6.044  18.525  0.00  0.00    +0.000 C 
BRANCH  17  19
ATOM     18  N   UNL     1       5.633   5.935  18.313  0.00  0.00    +0.000 N 
ATOM     19  C   UNL     1       4.422   6.083  17.668  0.00  0.00    +0.000 C 
ATOM     20  O   UNL     1       4.340   6.279  16.451  0.00  0.00    +0.000 OA
BRANCH  18  22
ATOM     21  C   UNL     1       7.727   7.166  17.792  0.00  0.00    +0.000 C 
ATOM     22  C   UNL     1       6.929   5.875  17.611  0.00  0.00    +0.000 C 
ATOM     23  C   UNL     1       7.747   4.651  18.018  0.00  0.00    +0.000 C 
ENDBRANCH  18  22
BRANCH  18  24
ATOM     24  O   UNL     1       5.619   5.508  19.654  0.00  0.00    +0.000 OA
ATOM     25  H   UNL     1       4.790   5.014  19.759  0.00  0.00    +0.000 HD
ENDBRANCH  18  24
ENDBRANCH  17  19
ENDBRANCH   1  17
TORSDOF 4
ENDMDL
MODEL 8
REMARK VINA RESULT:      -7.5      2.545      4.139
REMARK  Name = 
REMARK  6 active torsions:
REMARK  status: ('A' for Active; 'I' for Inactive)
REMARK    1  A    between atoms: C_1  and  C_2
REMARK    2  A    between atoms: C_2  and  C_3
REMARK    3  A    between atoms: C_2  and  N_4
REMARK    4  A    between atoms: N_4  and  O_5
REMARK    5  A    between atoms: C_6  and  C_8
REMARK    6  A    between atoms: C_8  and  C_9
REMARK                            x       y       z     vdW  Elec       q    Type
REMARK                         _______ _______ _______ _____ _____    ______ ____
ROOT
ATOM      1  C   UNL     1       2.632   5.853  18.735  0.00  0.00    +0.000 A 
ATOM      2  C   UNL     1       2.335   5.538  20.061  0.00  0.00    +0.000 A 
ATOM      3  C   UNL     1       1.756   6.497  20.894  0.00  0.00    +0.000 A 
ATOM      4  C   UNL     1       1.463   7.785  20.420  0.00  0.00    +0.000 A 
ATOM      5  C   UNL     1       1.795   8.135  19.107  0.00  0.00    +0.000 A 
ATOM      6  C   UNL     1       2.366   7.150  18.277  0.00  0.00    +0.000 A 
ATOM      7  C   UNL     1       1.655   9.488  18.495  0.00  0.00    +0.000 C 
ATOM      8  O   UNL     1       1.850   9.619  17.285  0.00  0.00    +0.000 OA
ATOM      9  C   UNL     1       1.339  10.716  19.259  0.00  0.00    +0.000 A 
ATOM     10  C   UNL     1       1.882  11.926  18.795  0.00  0.00    +0.000 A 
ATOM     11  C   UNL     1       1.603  13.125  19.447  0.00  0.00    +0.000 A 
ATOM     12  C   UNL     1       0.776  13.126  20.565  0.00  0.00    +0.000 A 
ATOM     13  C   UNL     1       0.219  11.930  21.023  0.00  0.00    +0.000 A 
ATOM     14  C   UNL     1       0.488  10.717  20.368  0.00  0.00    +0.000 A 
ATOM     15  C   UNL     1      -0.138   9.442  20.836  0.00  0.00    +0.000 C 
ATOM     16  O   UNL     1       0.877   8.591  21.357  0.00  0.00    +0.000 OA
ENDROOT
BRANCH   1  17
ATOM     17  C   UNL     1       3.247   4.835  17.804  0.00  0.00    +0.000 C 
BRANCH  17  19
ATOM     18  N   UNL     1       5.690   4.583  18.146  0.00  0.00    +0.000 N 
ATOM     19  C   UNL     1       4.679   5.161  17.405  0.00  0.00    +0.000 C 
ATOM     20  O   UNL     1       4.905   5.944  16.477  0.00  0.00    +0.000 OA
BRANCH  18  22
ATOM     21  C   UNL     1       7.406   4.508  16.351  0.00  0.00    +0.000 C 
ATOM     22  C   UNL     1       7.123   4.742  17.835  0.00  0.00    +0.000 C 
ATOM     23  C   UNL     1       7.667   6.090  18.302  0.00  0.00    +0.000 C 
ENDBRANCH  18  22
BRANCH  18  24
ATOM     24  O   UNL     1       5.347   3.549  19.038  0.00  0.00    +0.000 OA
ATOM     25  H   UNL     1       5.247   2.755  18.487  0.00  0.00    +0.000 HD
ENDBRANCH  18  24
ENDBRANCH  17  19
ENDBRANCH   1  17
TORSDOF 4
ENDMDL
MODEL 9
REMARK VINA RESULT:      -7.5      0.975      1.009
REMARK  Name = 
REMARK  6 active torsions:
REMARK  status: ('A' for Active; 'I' for Inactive)
REMARK    1  A    between atoms: C_1  and  C_2
REMARK    2  A    between atoms: C_2  and  C_3
REMARK    3  A    between atoms: C_2  and  N_4
REMARK    4  A    between atoms: N_4  and  O_5
REMARK    5  A    between atoms: C_6  and  C_8
REMARK    6  A    between atoms: C_8  and  C_9
REMARK                            x       y       z     vdW  Elec       q    Type
REMARK                         _______ _______ _______ _____ _____    ______ ____
ROOT
ATOM      1  C   UNL     1       2.295   7.591  19.439  0.00  0.00    +0.000 A 
ATOM      2  C   UNL     1       1.921   8.046  18.175  0.00  0.00    +0.000 A 
ATOM      3  C   UNL     1       1.125   9.186  18.051  0.00  0.00    +0.000 A 
ATOM      4  C   UNL     1       0.688   9.892  19.182  0.00  0.00    +0.000 A 
ATOM      5  C   UNL     1       1.015   9.427  20.460  0.00  0.00    +0.000 A 
ATOM      6  C   UNL     1       1.831   8.282  20.566  0.00  0.00    +0.000 A 
ATOM      7  C   UNL     1       0.534   9.995  21.753  0.00  0.00    +0.000 C 
ATOM      8  O   UNL     1       1.018   9.575  22.806  0.00  0.00    +0.000 OA
ATOM      9  C   UNL     1      -0.535  11.013  21.866  0.00  0.00    +0.000 A 
ATOM     10  C   UNL     1      -1.351  10.970  23.008  0.00  0.00    +0.000 A 
ATOM     11  C   UNL     1      -2.359  11.914  23.195  0.00  0.00    +0.000 A 
ATOM     12  C   UNL     1      -2.556  12.911  22.245  0.00  0.00    +0.000 A 
ATOM     13  C   UNL     1      -1.737  12.969  21.115  0.00  0.00    +0.000 A 
ATOM     14  C   UNL     1      -0.714  12.027  20.921  0.00  0.00    +0.000 A 
ATOM     15  C   UNL     1       0.186  12.112  19.729  0.00  0.00    +0.000 C 
ATOM     16  O   UNL     1      -0.060  10.996  18.882  0.00  0.00    +0.000 OA
ENDROOT
BRANCH   1  17
ATOM     17  C   UNL     1       3.166   6.369  19.609  0.00  0.00    +0.000 C 
BRANCH  17  19
ATOM     18  N   UNL     1       2.157   4.168  19.074  0.00  0.00    +0.000 N 
ATOM     19  C   UNL     1       2.862   5.261  18.611  0.00  0.00    +0.000 C 
ATOM     20  O   UNL     1       3.272   5.339  17.449  0.00  0.00    +0.000 OA
BRANCH  18  22
ATOM     21  C   UNL     1       2.881   2.113  17.881  0.00  0.00    +0.000 C 
ATOM     22  C   UNL     1       1.722   3.053  18.212  0.00  0.00    +0.000 C 
ATOM     23  C   UNL     1       0.539   2.293  18.808  0.00  0.00    +0.000 C 
ENDBRANCH  18  22
BRANCH  18  24
ATOM     24  O   UNL     1       1.552   4.261  20.343  0.00  0.00    +0.000 OA
ATOM     25  H   UNL     1       2.268   4.503  20.952  0.00  0.00    +0.000 HD
ENDBRANCH  18  24
ENDBRANCH  17  19
ENDBRANCH   1  17
TORSDOF 4
ENDMDL
