MODEL 1
REMARK VINA RESULT:      -8.1      0.000      0.000
REMARK  Name = 
REMARK  6 active torsions:
REMARK  status: ('A' for Active; 'I' for Inactive)
REMARK    1  A    between atoms: C_1  and  C_2
REMARK    2  A    between atoms: C_2  and  N_3
REMARK    3  A    between atoms: C_4  and  C_6
REMARK    4  A    between atoms: C_8  and  C_9
REMARK    5  A    between atoms: C_11  and  C_12
REMARK    6  A    between atoms: C_19  and  C_20
REMARK                            x       y       z     vdW  Elec       q    Type
REMARK                         _______ _______ _______ _____ _____    ______ ____
ROOT
ATOM      1  C   UNL     1       4.173   6.557  17.422  0.00  0.00    +0.000 A 
ATOM      2  S   UNL     1       3.818   8.209  17.715  0.00  0.00    +0.000 S 
ATOM      3  C   UNL     1       2.380   7.757  18.544  0.00  0.00    +0.000 A 
ATOM      4  N   UNL     1       2.261   6.460  18.761  0.00  0.00    +0.000 NA
ATOM      5  C   UNL     1       3.290   5.758  18.136  0.00  0.00    +0.000 A 
ENDROOT
BRANCH   1   8
ATOM      6  C   UNL     1       6.415   5.310  14.779  0.00  0.00    +0.000 A 
ATOM      7  C   UNL     1       5.135   5.443  15.281  0.00  0.00    +0.000 A 
ATOM      8  C   UNL     1       5.281   6.123  16.513  0.00  0.00    +0.000 A 
ATOM      9  N   UNL     1       6.570   6.349  16.788  0.00  0.00    +0.000 NA
ATOM     10  N   UNL     1       7.229   5.849  15.737  0.00  0.00    +0.000 N 
ATOM     11  H   UNL     1       8.243   5.913  15.713  0.00  0.00    +0.000 HD
BRANCH   6  13
ATOM     12  N   UNL     1       6.351   3.604  13.139  0.00  0.00    +0.000 N 
ATOM     13  C   UNL     1       6.952   4.763  13.563  0.00  0.00    +0.000 C 
ATOM     14  O   UNL     1       7.873   5.302  12.959  0.00  0.00    +0.000 OA
ATOM     15  H   UNL     1       5.542   3.255  13.633  0.00  0.00    +0.000 HD
BRANCH  12  17
ATOM     16  C   UNL     1       5.672   1.989  11.430  0.00  0.00    +0.000 C 
ATOM     17  C   UNL     1       6.759   2.918  11.936  0.00  0.00    +0.000 C 
ENDBRANCH  12  17
ENDBRANCH   6  13
ENDBRANCH   1   8
BRANCH   3  18
ATOM     18  C   UNL     1       1.411   8.762  18.990  0.00  0.00    +0.000 A 
ATOM     19  C   UNL     1       0.826   9.640  18.069  0.00  0.00    +0.000 A 
ATOM     20  C   UNL     1      -0.068  10.618  18.502  0.00  0.00    +0.000 A 
ATOM     21  C   UNL     1      -0.353  10.699  19.853  0.00  0.00    +0.000 A 
ATOM     22  N   UNL     1       0.189   9.878  20.780  0.00  0.00    +0.000 NA
ATOM     23  C   UNL     1       1.057   8.940  20.328  0.00  0.00    +0.000 A 
ENDBRANCH   3  18
BRANCH   5  24
ATOM     24  C   UNL     1       3.378   4.306  18.307  0.00  0.00    +0.000 A 
ATOM     25  C   UNL     1       4.211   3.771  19.295  0.00  0.00    +0.000 A 
ATOM     26  C   UNL     1       4.285   2.387  19.494  0.00  0.00    +0.000 A 
ATOM     27  C   UNL     1       3.518   1.524  18.712  0.00  0.00    +0.000 A 
ATOM     28  C   UNL     1       2.710   2.037  17.704  0.00  0.00    +0.000 A 
ATOM     29  C   UNL     1       2.669   3.415  17.484  0.00  0.00    +0.000 A 
ENDBRANCH   5  24
TORSDOF 5
ENDMDL
MODEL 2
REMARK VINA RESULT:      -8.0      0.550      1.312
REMARK  Name = 
REMARK  6 active torsions:
REMARK  status: ('A' for Active; 'I' for Inactive)
REMARK    1  A    between atoms: C_1  and  C_2
REMARK    2  A    between atoms: C_2  and  N_3
REMARK    3  A    between atoms: C_4  and  C_6
REMARK    4  A    between atoms: C_8  and  C_9
REMARK    5  A    between atoms: C_11  and  C_12
REMARK    6  A    between atoms: C_19  and  C_20
REMARK                            x       y       z     vdW  Elec       q    Type
REMARK                         _______ _______ _______ _____ _____    ______ ____
ROOT
ATOM      1  C   UNL     1       4.179   6.476  17.448  0.00  0.00    +0.000 A 
ATOM      2  S   UNL     1       3.848   8.137  17.718  0.00  0.00    +0.000 S 
ATOM      3  C   UNL     1       2.400   7.718  18.548  0.00  0.00    +0.000 A 
ATOM      4  N   UNL     1       2.261   6.427  18.782  0.00  0.00    +0.000 NA
ATOM      5  C   UNL     1       3.281   5.700  18.170  0.00  0.00    +0.000 A 
ENDROOT
BRANCH   1   8
ATOM      6  C   UNL     1       6.416   5.242  14.795  0.00  0.00    +0.000 A 
ATOM      7  C   UNL     1       5.132   5.459  15.256  0.00  0.00    +0.000 A 
ATOM      8  C   UNL     1       5.283   6.012  16.549  0.00  0.00    +0.000 A 
ATOM      9  N   UNL     1       6.572   6.084  16.894  0.00  0.00    +0.000 NA
ATOM     10  N   UNL     1       7.230   5.612  15.829  0.00  0.00    +0.000 N 
ATOM     11  H   UNL     1       8.245   5.577  15.851  0.00  0.00    +0.000 HD
BRANCH   6  13
ATOM     12  N   UNL     1       6.306   3.657  13.040  0.00  0.00    +0.000 N 
ATOM     13  C   UNL     1       6.955   4.750  13.557  0.00  0.00    +0.000 C 
ATOM     14  O   UNL     1       7.920   5.278  13.014  0.00  0.00    +0.000 OA
ATOM     15  H   UNL     1       5.466   3.321  13.489  0.00  0.00    +0.000 HD
BRANCH  12  17
ATOM     16  C   UNL     1       5.878   1.800  11.504  0.00  0.00    +0.000 C 
ATOM     17  C   UNL     1       6.709   3.034  11.802  0.00  0.00    +0.000 C 
ENDBRANCH  12  17
ENDBRANCH   6  13
ENDBRANCH   1   8
BRANCH   3  18
ATOM     18  C   UNL     1       1.446   8.744  18.977  0.00  0.00    +0.000 A 
ATOM     19  C   UNL     1       1.047   8.825  20.317  0.00  0.00    +0.000 A 
ATOM     20  C   UNL     1       0.112   9.779  20.715  0.00  0.00    +0.000 A 
ATOM     21  C   UNL     1      -0.409  10.631  19.757  0.00  0.00    +0.000 A 
ATOM     22  N   UNL     1      -0.059  10.589  18.452  0.00  0.00    +0.000 NA
ATOM     23  C   UNL     1       0.849   9.647  18.097  0.00  0.00    +0.000 A 
ENDBRANCH   3  18
BRANCH   5  24
ATOM     24  C   UNL     1       3.346   4.249  18.361  0.00  0.00    +0.000 A 
ATOM     25  C   UNL     1       2.565   3.406  17.564  0.00  0.00    +0.000 A 
ATOM     26  C   UNL     1       2.638   2.016  17.711  0.00  0.00    +0.000 A 
ATOM     27  C   UNL     1       3.499   1.454  18.653  0.00  0.00    +0.000 A 
ATOM     28  C   UNL     1       4.256   2.278  19.477  0.00  0.00    +0.000 A 
ATOM     29  C   UNL     1       4.153   3.665  19.353  0.00  0.00    +0.000 A 
ENDBRANCH   5  24
TORSDOF 5
ENDMDL
MODEL 3
REMARK VINA RESULT:      -7.8      3.141      8.201
REMARK  Name = 
REMARK  6 active torsions:
REMARK  status: ('A' for Active; 'I' for Inactive)
REMARK    1  A    between atoms: C_1  and  C_2
REMARK    2  A    between atoms: C_2  and  N_3
REMARK    3  A    between atoms: C_4  and  C_6
REMARK    4  A    between atoms: C_8  and  C_9
REMARK    5  A    between atoms: C_11  and  C_12
REMARK    6  A    between atoms: C_19  and  C_20
REMARK                            x       y       z     vdW  Elec       q    Type
REMARK                         _______ _______ _______ _____ _____    ______ ____
ROOT
ATOM      1  C   UNL     1       2.948   6.692  18.236  0.00  0.00    +0.000 A 
ATOM      2  S   UNL     1       3.768   7.156  16.802  0.00  0.00    +0.000 S 
ATOM      3  C   UNL     1       4.486   5.596  16.703  0.00  0.00    +0.000 A 
ATOM      4  N   UNL     1       4.005   4.719  17.565  0.00  0.00    +0.000 NA
ATOM      5  C   UNL     1       3.109   5.329  18.442  0.00  0.00    +0.000 A 
ENDROOT
BRANCH   1   8
ATOM      6  C   UNL     1       1.325   8.743  20.829  0.00  0.00    +0.000 A 
ATOM      7  C   UNL     1       2.024   7.602  20.486  0.00  0.00    +0.000 A 
ATOM      8  C   UNL     1       2.198   7.672  19.085  0.00  0.00    +0.000 A 
ATOM      9  N   UNL     1       1.599   8.754  18.578  0.00  0.00    +0.000 NA
ATOM     10  N   UNL     1       1.079   9.377  19.643  0.00  0.00    +0.000 N 
ATOM     11  H   UNL     1       0.573  10.247  19.507  0.00  0.00    +0.000 HD
BRANCH   6  13
ATOM     12  N   UNL     1      -0.379   9.853  22.042  0.00  0.00    +0.000 N 
ATOM     13  C   UNL     1       0.874   9.293  22.078  0.00  0.00    +0.000 C 
ATOM     14  O   UNL     1       1.565   9.255  23.091  0.00  0.00    +0.000 OA
ATOM     15  H   UNL     1      -0.932   9.777  21.201  0.00  0.00    +0.000 HD
BRANCH  12  17
ATOM     16  C   UNL     1      -1.794  11.683  22.841  0.00  0.00    +0.000 C 
ATOM     17  C   UNL     1      -0.991  10.449  23.206  0.00  0.00    +0.000 C 
ENDBRANCH  12  17
ENDBRANCH   6  13
ENDBRANCH   1   8
BRANCH   3  18
ATOM     18  C   UNL     1       5.515   5.294  15.704  0.00  0.00    +0.000 A 
ATOM     19  C   UNL     1       5.257   4.382  14.674  0.00  0.00    +0.000 A 
ATOM     20  C   UNL     1       6.250   4.071  13.747  0.00  0.00    +0.000 A 
ATOM     21  C   UNL     1       7.487   4.678  13.877  0.00  0.00    +0.000 A 
ATOM     22  N   UNL     1       7.785   5.561  14.855  0.00  0.00    +0.000 NA
ATOM     23  C   UNL     1       6.799   5.839  15.744  0.00  0.00    +0.000 A 
ENDBRANCH   3  18
BRANCH   5  24
ATOM     24  C   UNL     1       2.412   4.514  19.440  0.00  0.00    +0.000 A 
ATOM     25  C   UNL     1       1.250   3.821  19.085  0.00  0.00    +0.000 A 
ATOM     26  C   UNL     1       0.588   3.013  20.016  0.00  0.00    +0.000 A 
ATOM     27  C   UNL     1       1.086   2.883  21.312  0.00  0.00    +0.000 A 
ATOM     28  C   UNL     1       2.220   3.591  21.692  0.00  0.00    +0.000 A 
ATOM     29  C   UNL     1       2.856   4.426  20.771  0.00  0.00    +0.000 A 
ENDBRANCH   5  24
TORSDOF 5
ENDMDL
MODEL 4
REMARK VINA RESULT:      -7.6      2.991      7.891
REMARK  Name = 
REMARK  6 active torsions:
REMARK  status: ('A' for Active; 'I' for Inactive)
REMARK    1  A    between atoms: C_1  and  C_2
REMARK    2  A    between atoms: C_2  and  N_3
REMARK    3  A    between atoms: C_4  and  C_6
REMARK    4  A    between atoms: C_8  and  C_9
REMARK    5  A    between atoms: C_11  and  C_12
REMARK    6  A    between atoms: C_19  and  C_20
REMARK                            x       y       z     vdW  Elec       q    Type
REMARK                         _______ _______ _______ _____ _____    ______ ____
ROOT
ATOM      1  C   UNL     1       3.039   6.438  18.510  0.00  0.00    +0.000 A 
ATOM      2  S   UNL     1       3.804   6.981  17.074  0.00  0.00    +0.000 S 
ATOM      3  C   UNL     1       4.501   5.424  16.852  0.00  0.00    +0.000 A 
ATOM      4  N   UNL     1       4.047   4.501  17.679  0.00  0.00    +0.000 NA
ATOM      5  C   UNL     1       3.195   5.063  18.628  0.00  0.00    +0.000 A 
ENDROOT
BRANCH   1   8
ATOM      6  C   UNL     1       1.221   9.108  20.281  0.00  0.00    +0.000 A 
ATOM      7  C   UNL     1       1.838   8.656  19.130  0.00  0.00    +0.000 A 
ATOM      8  C   UNL     1       2.335   7.370  19.447  0.00  0.00    +0.000 A 
ATOM      9  N   UNL     1       2.094   7.063  20.725  0.00  0.00    +0.000 NA
ATOM     10  N   UNL     1       1.430   8.121  21.204  0.00  0.00    +0.000 N 
ATOM     11  H   UNL     1       1.125   8.116  22.174  0.00  0.00    +0.000 HD
BRANCH   6  13
ATOM     12  N   UNL     1      -0.637  10.512  19.858  0.00  0.00    +0.000 N 
ATOM     13  C   UNL     1       0.490  10.299  20.612  0.00  0.00    +0.000 C 
ATOM     14  O   UNL     1       0.854  11.058  21.504  0.00  0.00    +0.000 OA
ATOM     15  H   UNL     1      -0.931   9.808  19.196  0.00  0.00    +0.000 HD
BRANCH  12  17
ATOM     16  C   UNL     1      -2.399  11.887  18.860  0.00  0.00    +0.000 C 
ATOM     17  C   UNL     1      -1.493  11.657  20.055  0.00  0.00    +0.000 C 
ENDBRANCH  12  17
ENDBRANCH   6  13
ENDBRANCH   1   8
BRANCH   3  18
ATOM     18  C   UNL     1       5.485   5.175  15.795  0.00  0.00    +0.000 A 
ATOM     19  C   UNL     1       5.184   4.312  14.735  0.00  0.00    +0.000 A 
ATOM     20  C   UNL     1       6.135   4.050  13.751  0.00  0.00    +0.000 A 
ATOM     21  C   UNL     1       7.375   4.655  13.854  0.00  0.00    +0.000 A 
ATOM     22  N   UNL     1       7.714   5.492  14.860  0.00  0.00    +0.000 NA
ATOM     23  C   UNL     1       6.768   5.723  15.803  0.00  0.00    +0.000 A 
ENDBRANCH   3  18
BRANCH   5  24
ATOM     24  C   UNL     1       2.531   4.196  19.604  0.00  0.00    +0.000 A 
ATOM     25  C   UNL     1       1.184   3.861  19.435  0.00  0.00    +0.000 A 
ATOM     26  C   UNL     1       0.541   3.008  20.340  0.00  0.00    +0.000 A 
ATOM     27  C   UNL     1       1.243   2.474  21.421  0.00  0.00    +0.000 A 
ATOM     28  C   UNL     1       2.573   2.823  21.622  0.00  0.00    +0.000 A 
ATOM     29  C   UNL     1       3.199   3.704  20.739  0.00  0.00    +0.000 A 
ENDBRANCH   5  24
TORSDOF 5
ENDMDL
MODEL 5
REMARK VINA RESULT:      -7.6      2.968      8.055
REMARK  Name = 
REMARK  6 active torsions:
REMARK  status: ('A' for Active; 'I' for Inactive)
REMARK    1  A    between atoms: C_1  and  C_2
REMARK    2  A    between atoms: C_2  and  N_3
REMARK    3  A    between atoms: C_4  and  C_6
REMARK    4  A    between atoms: C_8  and  C_9
REMARK    5  A    between atoms: C_11  and  C_12
REMARK    6  A    between atoms: C_19  and  C_20
REMARK                            x       y       z     vdW  Elec       q    Type
REMARK                         _______ _______ _______ _____ _____    ______ ____
ROOT
ATOM      1  C   UNL     1       3.011   6.522  18.409  0.00  0.00    +0.000 A 
ATOM      2  S   UNL     1       3.814   7.053  16.989  0.00  0.00    +0.000 S 
ATOM      3  C   UNL     1       4.509   5.491  16.794  0.00  0.00    +0.000 A 
ATOM      4  N   UNL     1       4.030   4.575  17.615  0.00  0.00    +0.000 NA
ATOM      5  C   UNL     1       3.158   5.147  18.539  0.00  0.00    +0.000 A 
ENDROOT
BRANCH   1   8
ATOM      6  C   UNL     1       1.055   9.144  20.102  0.00  0.00    +0.000 A 
ATOM      7  C   UNL     1       1.614   8.646  18.941  0.00  0.00    +0.000 A 
ATOM      8  C   UNL     1       2.288   7.463  19.322  0.00  0.00    +0.000 A 
ATOM      9  N   UNL     1       2.204   7.265  20.642  0.00  0.00    +0.000 NA
ATOM     10  N   UNL     1       1.464   8.288  21.086  0.00  0.00    +0.000 N 
ATOM     11  H   UNL     1       1.252   8.350  22.078  0.00  0.00    +0.000 HD
BRANCH   6  13
ATOM     12  N   UNL     1       0.304  10.736  21.685  0.00  0.00    +0.000 N 
ATOM     13  C   UNL     1       0.219  10.275  20.395  0.00  0.00    +0.000 C 
ATOM     14  O   UNL     1      -0.508  10.783  19.547  0.00  0.00    +0.000 OA
ATOM     15  H   UNL     1       0.983  10.330  22.313  0.00  0.00    +0.000 HD
BRANCH  12  17
ATOM     16  C   UNL     1      -1.590  11.431  23.072  0.00  0.00    +0.000 C 
ATOM     17  C   UNL     1      -0.462  11.866  22.154  0.00  0.00    +0.000 C 
ENDBRANCH  12  17
ENDBRANCH   6  13
ENDBRANCH   1   8
BRANCH   3  18
ATOM     18  C   UNL     1       5.518   5.231  15.763  0.00  0.00    +0.000 A 
ATOM     19  C   UNL     1       5.262   4.315  14.736  0.00  0.00    +0.000 A 
ATOM     20  C   UNL     1       6.237   4.044  13.777  0.00  0.00    +0.000 A 
ATOM     21  C   UNL     1       7.454   4.695  13.873  0.00  0.00    +0.000 A 
ATOM     22  N   UNL     1       7.750   5.584  14.847  0.00  0.00    +0.000 NA
ATOM     23  C   UNL     1       6.782   5.822  15.766  0.00  0.00    +0.000 A 
ENDBRANCH   3  18
BRANCH   5  24
ATOM     24  C   UNL     1       2.466   4.289  19.503  0.00  0.00    +0.000 A 
ATOM     25  C   UNL     1       3.077   3.976  20.722  0.00  0.00    +0.000 A 
ATOM     26  C   UNL     1       2.418   3.183  21.669  0.00  0.00    +0.000 A 
ATOM     27  C   UNL     1       1.136   2.699  21.408  0.00  0.00    +0.000 A 
ATOM     28  C   UNL     1       0.529   2.972  20.189  0.00  0.00    +0.000 A 
ATOM     29  C   UNL     1       1.204   3.732  19.233  0.00  0.00    +0.000 A 
ENDBRANCH   5  24
TORSDOF 5
ENDMDL
MODEL 6
REMARK VINA RESULT:      -7.4      1.830      2.001
REMARK  Name = 
REMARK  6 active torsions:
REMARK  status: ('A' for Active; 'I' for Inactive)
REMARK    1  A    between atoms: C_1  and  C_2
REMARK    2  A    between atoms: C_2  and  N_3
REMARK    3  A    between atoms: C_4  and  C_6
REMARK    4  A    between atoms: C_8  and  C_9
REMARK    5  A    between atoms: C_11  and  C_12
REMARK    6  A    between atoms: C_19  and  C_20
REMARK                            x       y       z     vdW  Elec       q    Type
REMARK                         _______ _______ _______ _____ _____    ______ ____
ROOT
ATOM      1  C   UNL     1       3.222   6.650  18.201  0.00  0.00    +0.000 A 
ATOM      2  S   UNL     1       3.252   8.351  17.981  0.00  0.00    +0.000 S 
ATOM      3  C   UNL     1       1.800   8.498  18.891  0.00  0.00    +0.000 A 
ATOM      4  N   UNL     1       1.415   7.385  19.487  0.00  0.00    +0.000 NA
ATOM      5  C   UNL     1       2.229   6.318  19.114  0.00  0.00    +0.000 A 
ENDROOT
BRANCH   1   8
ATOM      6  C   UNL     1       5.532   4.856  15.962  0.00  0.00    +0.000 A 
ATOM      7  C   UNL     1       4.681   5.923  16.179  0.00  0.00    +0.000 A 
ATOM      8  C   UNL     1       4.155   5.729  17.478  0.00  0.00    +0.000 A 
ATOM      9  N   UNL     1       4.603   4.589  18.013  0.00  0.00    +0.000 NA
ATOM     10  N   UNL     1       5.422   4.083  17.084  0.00  0.00    +0.000 N 
ATOM     11  H   UNL     1       5.899   3.205  17.271  0.00  0.00    +0.000 HD
BRANCH   6  13
ATOM     12  N   UNL     1       5.758   3.973  13.777  0.00  0.00    +0.000 N 
ATOM     13  C   UNL     1       6.399   4.484  14.878  0.00  0.00    +0.000 C 
ATOM     14  O   UNL     1       7.616   4.621  14.945  0.00  0.00    +0.000 OA
ATOM     15  H   UNL     1       4.749   3.965  13.750  0.00  0.00    +0.000 HD
BRANCH  12  17
ATOM     16  C   UNL     1       5.635   2.614  11.745  0.00  0.00    +0.000 C 
ATOM     17  C   UNL     1       6.472   3.551  12.596  0.00  0.00    +0.000 C 
ENDBRANCH  12  17
ENDBRANCH   6  13
ENDBRANCH   1   8
BRANCH   3  18
ATOM     18  C   UNL     1       1.100   9.781  19.004  0.00  0.00    +0.000 A 
ATOM     19  C   UNL     1      -0.218   9.831  19.475  0.00  0.00    +0.000 A 
ATOM     20  C   UNL     1      -0.892  11.049  19.547  0.00  0.00    +0.000 A 
ATOM     21  C   UNL     1      -0.231  12.193  19.138  0.00  0.00    +0.000 A 
ATOM     22  N   UNL     1       1.038  12.196  18.672  0.00  0.00    +0.000 NA
ATOM     23  C   UNL     1       1.665  10.995  18.611  0.00  0.00    +0.000 A 
ENDBRANCH   3  18
BRANCH   5  24
ATOM     24  C   UNL     1       2.009   5.000  19.715  0.00  0.00    +0.000 A 
ATOM     25  C   UNL     1       2.435   4.752  21.024  0.00  0.00    +0.000 A 
ATOM     26  C   UNL     1       2.205   3.509  21.626  0.00  0.00    +0.000 A 
ATOM     27  C   UNL     1       1.540   2.503  20.926  0.00  0.00    +0.000 A 
ATOM     28  C   UNL     1       1.140   2.721  19.613  0.00  0.00    +0.000 A 
ATOM     29  C   UNL     1       1.405   3.949  19.004  0.00  0.00    +0.000 A 
ENDBRANCH   5  24
TORSDOF 5
ENDMDL
MODEL 7
REMARK VINA RESULT:      -7.3      1.363      1.646
REMARK  Name = 
REMARK  6 active torsions:
REMARK  status: ('A' for Active; 'I' for Inactive)
REMARK    1  A    between atoms: C_1  and  C_2
REMARK    2  A    between atoms: C_2  and  N_3
REMARK    3  A    between atoms: C_4  and  C_6
REMARK    4  A    between atoms: C_8  and  C_9
REMARK    5  A    between atoms: C_11  and  C_12
REMARK    6  A    between atoms: C_19  and  C_20
REMARK                            x       y       z     vdW  Elec       q    Type
REMARK                         _______ _______ _______ _____ _____    ______ ____
ROOT
ATOM      1  C   UNL     1       3.560   6.479  17.747  0.00  0.00    +0.000 A 
ATOM      2  S   UNL     1       3.630   8.192  17.729  0.00  0.00    +0.000 S 
ATOM      3  C   UNL     1       2.155   8.266  18.611  0.00  0.00    +0.000 A 
ATOM      4  N   UNL     1       1.730   7.100  19.061  0.00  0.00    +0.000 NA
ATOM      5  C   UNL     1       2.534   6.065  18.586  0.00  0.00    +0.000 A 
ENDROOT
BRANCH   1   8
ATOM      6  C   UNL     1       5.829   4.871  15.332  0.00  0.00    +0.000 A 
ATOM      7  C   UNL     1       4.941   5.887  15.628  0.00  0.00    +0.000 A 
ATOM      8  C   UNL     1       4.496   5.628  16.946  0.00  0.00    +0.000 A 
ATOM      9  N   UNL     1       5.027   4.496  17.419  0.00  0.00    +0.000 NA
ATOM     10  N   UNL     1       5.818   4.059  16.432  0.00  0.00    +0.000 N 
ATOM     11  H   UNL     1       6.346   3.201  16.565  0.00  0.00    +0.000 HD
BRANCH   6  13
ATOM     12  N   UNL     1       6.130   3.646  13.329  0.00  0.00    +0.000 N 
ATOM     13  C   UNL     1       6.654   4.575  14.193  0.00  0.00    +0.000 C 
ATOM     14  O   UNL     1       7.738   5.120  14.017  0.00  0.00    +0.000 OA
ATOM     15  H   UNL     1       5.196   3.296  13.483  0.00  0.00    +0.000 HD
BRANCH  12  17
ATOM     16  C   UNL     1       6.141   2.040  11.481  0.00  0.00    +0.000 C 
ATOM     17  C   UNL     1       6.821   3.231  12.131  0.00  0.00    +0.000 C 
ENDBRANCH  12  17
ENDBRANCH   6  13
ENDBRANCH   1   8
BRANCH   3  18
ATOM     18  C   UNL     1       1.478   9.543  18.855  0.00  0.00    +0.000 A 
ATOM     19  C   UNL     1       1.958  10.723  18.273  0.00  0.00    +0.000 A 
ATOM     20  C   UNL     1       1.332  11.940  18.536  0.00  0.00    +0.000 A 
ATOM     21  C   UNL     1       0.239  11.950  19.383  0.00  0.00    +0.000 A 
ATOM     22  N   UNL     1      -0.259  10.839  19.971  0.00  0.00    +0.000 NA
ATOM     23  C   UNL     1       0.374   9.672  19.699  0.00  0.00    +0.000 A 
ENDBRANCH   3  18
BRANCH   5  24
ATOM     24  C   UNL     1       2.270   4.692  19.022  0.00  0.00    +0.000 A 
ATOM     25  C   UNL     1       1.486   3.848  18.229  0.00  0.00    +0.000 A 
ATOM     26  C   UNL     1       1.249   2.523  18.613  0.00  0.00    +0.000 A 
ATOM     27  C   UNL     1       1.802   2.025  19.793  0.00  0.00    +0.000 A 
ATOM     28  C   UNL     1       2.555   2.860  20.610  0.00  0.00    +0.000 A 
ATOM     29  C   UNL     1       2.758   4.191  20.242  0.00  0.00    +0.000 A 
ENDBRANCH   5  24
TORSDOF 5
ENDMDL
MODEL 8
REMARK VINA RESULT:      -7.2      3.064      7.822
REMARK  Name = 
REMARK  6 active torsions:
REMARK  status: ('A' for Active; 'I' for Inactive)
REMARK    1  A    between atoms: C_1  and  C_2
REMARK    2  A    between atoms: C_2  and  N_3
REMARK    3  A    between atoms: C_4  and  C_6
REMARK    4  A    between atoms: C_8  and  C_9
REMARK    5  A    between atoms: C_11  and  C_12
REMARK    6  A    between atoms: C_19  and  C_20
REMARK                            x       y       z     vdW  Elec       q    Type
REMARK                         _______ _______ _______ _____ _____    ______ ____
ROOT
ATOM      1  C   UNL     1       2.991   6.625  18.256  0.00  0.00    +0.000 A 
ATOM      2  S   UNL     1       3.806   7.120  16.831  0.00  0.00    +0.000 S 
ATOM      3  C   UNL     1       4.521   5.562  16.693  0.00  0.00    +0.000 A 
ATOM      4  N   UNL     1       4.043   4.666  17.537  0.00  0.00    +0.000 NA
ATOM      5  C   UNL     1       3.152   5.257  18.431  0.00  0.00    +0.000 A 
ENDROOT
BRANCH   1   8
ATOM      6  C   UNL     1       0.992   9.282  19.842  0.00  0.00    +0.000 A 
ATOM      7  C   UNL     1       1.580   8.759  18.706  0.00  0.00    +0.000 A 
ATOM      8  C   UNL     1       2.245   7.585  19.130  0.00  0.00    +0.000 A 
ATOM      9  N   UNL     1       2.127   7.416  20.451  0.00  0.00    +0.000 NA
ATOM     10  N   UNL     1       1.377   8.448  20.854  0.00  0.00    +0.000 N 
ATOM     11  H   UNL     1       1.140   8.531  21.839  0.00  0.00    +0.000 HD
BRANCH   6  13
ATOM     12  N   UNL     1       0.084  11.321  19.056  0.00  0.00    +0.000 N 
ATOM     13  C   UNL     1       0.149  10.419  20.088  0.00  0.00    +0.000 C 
ATOM     14  O   UNL     1      -0.460  10.559  21.143  0.00  0.00    +0.000 OA
ATOM     15  H   UNL     1       0.541  11.109  18.181  0.00  0.00    +0.000 HD
BRANCH  12  17
ATOM     16  C   UNL     1       0.046  13.730  18.621  0.00  0.00    +0.000 C 
ATOM     17  C   UNL     1      -0.717  12.520  19.128  0.00  0.00    +0.000 C 
ENDBRANCH  12  17
ENDBRANCH   6  13
ENDBRANCH   1   8
BRANCH   3  18
ATOM     18  C   UNL     1       5.547   5.282  15.684  0.00  0.00    +0.000 A 
ATOM     19  C   UNL     1       5.292   4.375  14.648  0.00  0.00    +0.000 A 
ATOM     20  C   UNL     1       6.282   4.085  13.710  0.00  0.00    +0.000 A 
ATOM     21  C   UNL     1       7.511   4.707  13.835  0.00  0.00    +0.000 A 
ATOM     22  N   UNL     1       7.805   5.587  14.819  0.00  0.00    +0.000 NA
ATOM     23  C   UNL     1       6.823   5.844  15.717  0.00  0.00    +0.000 A 
ENDBRANCH   3  18
BRANCH   5  24
ATOM     24  C   UNL     1       2.458   4.420  19.413  0.00  0.00    +0.000 A 
ATOM     25  C   UNL     1       2.996   4.258  20.694  0.00  0.00    +0.000 A 
ATOM     26  C   UNL     1       2.331   3.488  21.655  0.00  0.00    +0.000 A 
ATOM     27  C   UNL     1       1.115   2.878  21.348  0.00  0.00    +0.000 A 
ATOM     28  C   UNL     1       0.584   3.001  20.070  0.00  0.00    +0.000 A 
ATOM     29  C   UNL     1       1.269   3.738  19.103  0.00  0.00    +0.000 A 
ENDBRANCH   5  24
TORSDOF 5
ENDMDL
MODEL 9
REMARK VINA RESULT:      -7.2      1.780      2.230
REMARK  Name = 
REMARK  6 active torsions:
REMARK  status: ('A' for Active; 'I' for Inactive)
REMARK    1  A    between atoms: C_1  and  C_2
REMARK    2  A    between atoms: C_2  and  N_3
REMARK    3  A    between atoms: C_4  and  C_6
REMARK    4  A    between atoms: C_8  and  C_9
REMARK    5  A    between atoms: C_11  and  C_12
REMARK    6  A    between atoms: C_19  and  C_20
REMARK                            x       y       z     vdW  Elec       q    Type
REMARK                         _______ _______ _______ _____ _____    ______ ____
ROOT
ATOM      1  C   UNL     1       3.175   6.629  18.414  0.00  0.00    +0.000 A 
ATOM      2  S   UNL     1       3.172   8.340  18.299  0.00  0.00    +0.000 S 
ATOM      3  C   UNL     1       1.733   8.405  19.240  0.00  0.00    +0.000 A 
ATOM      4  N   UNL     1       1.377   7.251  19.772  0.00  0.00    +0.000 NA
ATOM      5  C   UNL     1       2.203   6.223  19.319  0.00  0.00    +0.000 A 
ENDROOT
BRANCH   1   8
ATOM      6  C   UNL     1       5.499   5.031  16.045  0.00  0.00    +0.000 A 
ATOM      7  C   UNL     1       4.652   6.079  16.350  0.00  0.00    +0.000 A 
ATOM      8  C   UNL     1       4.111   5.772  17.620  0.00  0.00    +0.000 A 
ATOM      9  N   UNL     1       4.548   4.585  18.055  0.00  0.00    +0.000 NA
ATOM     10  N   UNL     1       5.374   4.160  17.092  0.00  0.00    +0.000 N 
ATOM     11  H   UNL     1       5.844   3.266  17.204  0.00  0.00    +0.000 HD
BRANCH   6  13
ATOM     12  N   UNL     1       5.811   4.024  13.926  0.00  0.00    +0.000 N 
ATOM     13  C   UNL     1       6.377   4.753  14.942  0.00  0.00    +0.000 C 
ATOM     14  O   UNL     1       7.539   5.145  14.921  0.00  0.00    +0.000 OA
ATOM     15  H   UNL     1       4.826   3.803  13.962  0.00  0.00    +0.000 HD
BRANCH  12  17
ATOM     16  C   UNL     1       5.722   2.762  11.831  0.00  0.00    +0.000 C 
ATOM     17  C   UNL     1       6.545   3.657  12.738  0.00  0.00    +0.000 C 
ENDBRANCH  12  17
ENDBRANCH   6  13
ENDBRANCH   1   8
BRANCH   3  18
ATOM     18  C   UNL     1       1.014   9.666  19.443  0.00  0.00    +0.000 A 
ATOM     19  C   UNL     1       0.305   9.894  20.629  0.00  0.00    +0.000 A 
ATOM     20  C   UNL     1      -0.407  11.080  20.803  0.00  0.00    +0.000 A 
ATOM     21  C   UNL     1      -0.399  12.010  19.780  0.00  0.00    +0.000 A 
ATOM     22  N   UNL     1       0.266  11.834  18.616  0.00  0.00    +0.000 NA
ATOM     23  C   UNL     1       0.945  10.669  18.476  0.00  0.00    +0.000 A 
ENDBRANCH   3  18
BRANCH   5  24
ATOM     24  C   UNL     1       2.016   4.867  19.841  0.00  0.00    +0.000 A 
ATOM     25  C   UNL     1       1.355   3.908  19.067  0.00  0.00    +0.000 A 
ATOM     26  C   UNL     1       1.195   2.599  19.535  0.00  0.00    +0.000 A 
ATOM     27  C   UNL     1       1.701   2.233  20.782  0.00  0.00    +0.000 A 
ATOM     28  C   UNL     1       2.330   3.182  21.579  0.00  0.00    +0.000 A 
ATOM     29  C   UNL     1       2.455   4.495  21.124  0.00  0.00    +0.000 A 
ENDBRANCH   5  24
TORSDOF 5
ENDMDL
