MODEL 1
REMARK VINA RESULT:      -7.3      0.000      0.000
REMARK  Name = 
REMARK  9 active torsions:
REMARK  status: ('A' for Active; 'I' for Inactive)
REMARK    1  A    between atoms: C_1  and  O_2
REMARK    2  A    between atoms: O_2  and  C_3
REMARK    3  A    between atoms: C_8  and  O_9
REMARK    4  A    between atoms: O_9  and  C_10
REMARK    5  A    between atoms: C_13  and  C_15
REMARK    6  A    between atoms: C_15  and  C_16
REMARK    7  A    between atoms: C_15  and  N_23
REMARK    8  A    between atoms: N_23  and  C_24
REMARK    9  A    between atoms: N_23  and  C_25
REMARK                            x       y       z     vdW  Elec       q    Type
REMARK                         _______ _______ _______ _____ _____    ______ ____
ROOT
ATOM      1  C   UNL     1       2.506   7.493  18.156  0.00  0.00    +0.000 C 
ATOM      2  C   UNL     1       1.980   7.799  19.580  0.00  0.00    +0.000 C 
ATOM      3  N   UNL     1       1.428   9.027  19.049  0.00  0.00    +0.000 N 
ATOM      4  C   UNL     1       0.611   9.949  19.647  0.00  0.00    +0.000 C 
ATOM      5  O   UNL     1       0.236   9.797  20.814  0.00  0.00    +0.000 OA
ATOM      6  C   UNL     1       2.080   8.919  17.766  0.00  0.00    +0.000 C 
ENDROOT
BRANCH   1   7
ATOM      7  O   UNL     1       3.913   7.178  18.092  0.00  0.00    +0.000 OA
BRANCH   7  13
ATOM      8  C   UNL     1       4.374   4.752  17.652  0.00  0.00    +0.000 A 
ATOM      9  C   UNL     1       4.868   3.836  16.706  0.00  0.00    +0.000 A 
ATOM     10  C   UNL     1       5.455   4.275  15.518  0.00  0.00    +0.000 A 
ATOM     11  C   UNL     1       5.517   5.634  15.241  0.00  0.00    +0.000 A 
ATOM     12  C   UNL     1       4.966   6.545  16.141  0.00  0.00    +0.000 A 
ATOM     13  C   UNL     1       4.387   6.121  17.346  0.00  0.00    +0.000 A 
BRANCH   8  15
ATOM     14  C   UNL     1       4.019   2.945  19.145  0.00  0.00    +0.000 C 
ATOM     15  O   UNL     1       3.859   4.332  18.847  0.00  0.00    +0.000 OA
ENDBRANCH   8  15
ENDBRANCH   7  13
ENDBRANCH   1   7
BRANCH   4  16
ATOM     16  C   UNL     1       0.158  11.204  18.831  0.00  0.00    +0.000 C 
BRANCH  16  17
ATOM     17  C   UNL     1      -1.320  11.058  18.444  0.00  0.00    +0.000 A 
ATOM     18  C   UNL     1      -2.321  11.845  19.041  0.00  0.00    +0.000 A 
ATOM     19  C   UNL     1      -3.655  11.733  18.653  0.00  0.00    +0.000 A 
ATOM     20  C   UNL     1      -4.003  10.825  17.662  0.00  0.00    +0.000 A 
ATOM     21  F   UNL     1      -5.280  10.737  17.270  0.00  0.00    +0.000 F 
ATOM     22  C   UNL     1      -3.041  10.019  17.066  0.00  0.00    +0.000 A 
ATOM     23  C   UNL     1      -1.704  10.128  17.459  0.00  0.00    +0.000 A 
ENDBRANCH  16  17
BRANCH  16  24
ATOM     24  N   UNL     1       0.485  12.493  19.528  0.00  0.00    +0.000 NA
ATOM     25  C   UNL     1       1.673  12.358  20.384  0.00  0.00    +0.000 C 
ATOM     26  C   UNL     1       0.725  13.590  18.584  0.00  0.00    +0.000 C 
ENDBRANCH  16  24
ENDBRANCH   4  16
TORSDOF 6
ENDMDL
MODEL 2
REMARK VINA RESULT:      -7.3      0.952      1.730
REMARK  Name = 
REMARK  9 active torsions:
REMARK  status: ('A' for Active; 'I' for Inactive)
REMARK    1  A    between atoms: C_1  and  O_2
REMARK    2  A    between atoms: O_2  and  C_3
REMARK    3  A    between atoms: C_8  and  O_9
REMARK    4  A    between atoms: O_9  and  C_10
REMARK    5  A    between atoms: C_13  and  C_15
REMARK    6  A    between atoms: C_15  and  C_16
REMARK    7  A    between atoms: C_15  and  N_23
REMARK    8  A    between atoms: N_23  and  C_24
REMARK    9  A    between atoms: N_23  and  C_25
REMARK                            x       y       z     vdW  Elec       q    Type
REMARK                         _______ _______ _______ _____ _____    ______ ____
ROOT
ATOM      1  C   UNL     1       2.410   7.745  18.131  0.00  0.00    +0.000 C 
ATOM      2  C   UNL     1       1.897   8.024  19.566  0.00  0.00    +0.000 C 
ATOM      3  N   UNL     1       1.288   9.231  19.051  0.00  0.00    +0.000 N 
ATOM      4  C   UNL     1       0.446  10.118  19.668  0.00  0.00    +0.000 C 
ATOM      5  O   UNL     1       0.097   9.946  20.840  0.00  0.00    +0.000 OA
ATOM      6  C   UNL     1       1.921   9.154  17.756  0.00  0.00    +0.000 C 
ENDROOT
BRANCH   1   7
ATOM      7  O   UNL     1       3.827   7.486  18.042  0.00  0.00    +0.000 OA
BRANCH   7  13
ATOM      8  C   UNL     1       5.529   6.119  16.807  0.00  0.00    +0.000 A 
ATOM      9  C   UNL     1       5.852   4.823  16.367  0.00  0.00    +0.000 A 
ATOM     10  C   UNL     1       4.949   3.769  16.508  0.00  0.00    +0.000 A 
ATOM     11  C   UNL     1       3.727   3.987  17.130  0.00  0.00    +0.000 A 
ATOM     12  C   UNL     1       3.427   5.253  17.632  0.00  0.00    +0.000 A 
ATOM     13  C   UNL     1       4.318   6.326  17.484  0.00  0.00    +0.000 A 
BRANCH   8  15
ATOM     14  C   UNL     1       7.479   7.263  17.520  0.00  0.00    +0.000 C 
ATOM     15  O   UNL     1       6.382   7.170  16.611  0.00  0.00    +0.000 OA
ENDBRANCH   8  15
ENDBRANCH   7  13
ENDBRANCH   1   7
BRANCH   4  16
ATOM     16  C   UNL     1      -0.071  11.358  18.865  0.00  0.00    +0.000 C 
BRANCH  16  17
ATOM     17  C   UNL     1      -1.557  11.170  18.532  0.00  0.00    +0.000 A 
ATOM     18  C   UNL     1      -2.557  11.936  19.158  0.00  0.00    +0.000 A 
ATOM     19  C   UNL     1      -3.900  11.786  18.819  0.00  0.00    +0.000 A 
ATOM     20  C   UNL     1      -4.259  10.860  17.848  0.00  0.00    +0.000 A 
ATOM     21  F   UNL     1      -5.546  10.737  17.502  0.00  0.00    +0.000 F 
ATOM     22  C   UNL     1      -3.298  10.074  17.225  0.00  0.00    +0.000 A 
ATOM     23  C   UNL     1      -1.951  10.222  17.569  0.00  0.00    +0.000 A 
ENDBRANCH  16  17
BRANCH  16  24
ATOM     24  N   UNL     1       0.246  12.657  19.548  0.00  0.00    +0.000 NA
ATOM     25  C   UNL     1       1.605  12.657  20.107  0.00  0.00    +0.000 C 
ATOM     26  C   UNL     1       0.125  13.804  18.641  0.00  0.00    +0.000 C 
ENDBRANCH  16  24
ENDBRANCH   4  16
TORSDOF 6
ENDMDL
MODEL 3
REMARK VINA RESULT:      -7.3      0.524      1.082
REMARK  Name = 
REMARK  9 active torsions:
REMARK  status: ('A' for Active; 'I' for Inactive)
REMARK    1  A    between atoms: C_1  and  O_2
REMARK    2  A    between atoms: O_2  and  C_3
REMARK    3  A    between atoms: C_8  and  O_9
REMARK    4  A    between atoms: O_9  and  C_10
REMARK    5  A    between atoms: C_13  and  C_15
REMARK    6  A    between atoms: C_15  and  C_16
REMARK    7  A    between atoms: C_15  and  N_23
REMARK    8  A    between atoms: N_23  and  C_24
REMARK    9  A    between atoms: N_23  and  C_25
REMARK                            x       y       z     vdW  Elec       q    Type
REMARK                         _______ _______ _______ _____ _____    ______ ____
ROOT
ATOM      1  C   UNL     1       2.401   7.604  18.143  0.00  0.00    +0.000 C 
ATOM      2  C   UNL     1       1.924   7.935  19.579  0.00  0.00    +0.000 C 
ATOM      3  N   UNL     1       1.359   9.156  19.047  0.00  0.00    +0.000 N 
ATOM      4  C   UNL     1       0.567  10.093  19.656  0.00  0.00    +0.000 C 
ATOM      5  O   UNL     1       0.229   9.961  20.837  0.00  0.00    +0.000 OA
ATOM      6  C   UNL     1       1.968   9.025  17.744  0.00  0.00    +0.000 C 
ENDROOT
BRANCH   1   7
ATOM      7  O   UNL     1       3.804   7.280  18.038  0.00  0.00    +0.000 OA
BRANCH   7  13
ATOM      8  C   UNL     1       4.022   4.822  17.593  0.00  0.00    +0.000 A 
ATOM      9  C   UNL     1       4.528   3.863  16.697  0.00  0.00    +0.000 A 
ATOM     10  C   UNL     1       5.325   4.240  15.614  0.00  0.00    +0.000 A 
ATOM     11  C   UNL     1       5.590   5.585  15.389  0.00  0.00    +0.000 A 
ATOM     12  C   UNL     1       5.034   6.546  16.232  0.00  0.00    +0.000 A 
ATOM     13  C   UNL     1       4.245   6.182  17.333  0.00  0.00    +0.000 A 
BRANCH   8  15
ATOM     14  C   UNL     1       1.999   3.921  18.438  0.00  0.00    +0.000 C 
ATOM     15  O   UNL     1       3.298   4.455  18.694  0.00  0.00    +0.000 OA
ENDBRANCH   8  15
ENDBRANCH   7  13
ENDBRANCH   1   7
BRANCH   4  16
ATOM     16  C   UNL     1       0.092  11.336  18.835  0.00  0.00    +0.000 C 
BRANCH  16  17
ATOM     17  C   UNL     1      -1.385  11.167  18.454  0.00  0.00    +0.000 A 
ATOM     18  C   UNL     1      -1.796  10.230  17.489  0.00  0.00    +0.000 A 
ATOM     19  C   UNL     1      -3.143  10.056  17.180  0.00  0.00    +0.000 A 
ATOM     20  C   UNL     1      -4.098  10.824  17.834  0.00  0.00    +0.000 A 
ATOM     21  F   UNL     1      -5.394  10.636  17.557  0.00  0.00    +0.000 F 
ATOM     22  C   UNL     1      -3.723  11.772  18.778  0.00  0.00    +0.000 A 
ATOM     23  C   UNL     1      -2.371  11.950  19.084  0.00  0.00    +0.000 A 
ENDBRANCH  16  17
BRANCH  16  24
ATOM     24  N   UNL     1       0.403  12.633  19.525  0.00  0.00    +0.000 NA
ATOM     25  C   UNL     1       1.767  12.641  20.072  0.00  0.00    +0.000 C 
ATOM     26  C   UNL     1       0.264  13.787  18.628  0.00  0.00    +0.000 C 
ENDBRANCH  16  24
ENDBRANCH   4  16
TORSDOF 6
ENDMDL
MODEL 4
REMARK VINA RESULT:      -7.1      1.027      2.043
REMARK  Name = 
REMARK  9 active torsions:
REMARK  status: ('A' for Active; 'I' for Inactive)
REMARK    1  A    between atoms: C_1  and  O_2
REMARK    2  A    between atoms: O_2  and  C_3
REMARK    3  A    between atoms: C_8  and  O_9
REMARK    4  A    between atoms: O_9  and  C_10
REMARK    5  A    between atoms: C_13  and  C_15
REMARK    6  A    between atoms: C_15  and  C_16
REMARK    7  A    between atoms: C_15  and  N_23
REMARK    8  A    between atoms: N_23  and  C_24
REMARK    9  A    between atoms: N_23  and  C_25
REMARK                            x       y       z     vdW  Elec       q    Type
REMARK                         _______ _______ _______ _____ _____    ______ ____
ROOT
ATOM      1  C   UNL     1       2.689   6.998  18.487  0.00  0.00    +0.000 C 
ATOM      2  C   UNL     1       2.056   7.447  19.828  0.00  0.00    +0.000 C 
ATOM      3  N   UNL     1       1.602   8.640  19.147  0.00  0.00    +0.000 N 
ATOM      4  C   UNL     1       0.776   9.639  19.590  0.00  0.00    +0.000 C 
ATOM      5  O   UNL     1       0.296   9.603  20.727  0.00  0.00    +0.000 OA
ATOM      6  C   UNL     1       2.357   8.397  17.941  0.00  0.00    +0.000 C 
ENDROOT
BRANCH   1   7
ATOM      7  O   UNL     1       4.082   6.631  18.576  0.00  0.00    +0.000 OA
BRANCH   7  13
ATOM      8  C   UNL     1       5.808   6.269  16.793  0.00  0.00    +0.000 A 
ATOM      9  C   UNL     1       6.318   5.340  15.868  0.00  0.00    +0.000 A 
ATOM     10  C   UNL     1       5.688   4.113  15.659  0.00  0.00    +0.000 A 
ATOM     11  C   UNL     1       4.564   3.780  16.404  0.00  0.00    +0.000 A 
ATOM     12  C   UNL     1       4.093   4.665  17.372  0.00  0.00    +0.000 A 
ATOM     13  C   UNL     1       4.707   5.909  17.583  0.00  0.00    +0.000 A 
BRANCH   8  15
ATOM     14  C   UNL     1       7.673   7.515  17.562  0.00  0.00    +0.000 C 
ATOM     15  O   UNL     1       6.381   7.500  16.954  0.00  0.00    +0.000 OA
ENDBRANCH   8  15
ENDBRANCH   7  13
ENDBRANCH   1   7
BRANCH   4  16
ATOM     16  C   UNL     1       0.446  10.831  18.632  0.00  0.00    +0.000 C 
BRANCH  16  17
ATOM     17  C   UNL     1      -1.055  10.832  18.312  0.00  0.00    +0.000 A 
ATOM     18  C   UNL     1      -1.617   9.915  17.406  0.00  0.00    +0.000 A 
ATOM     19  C   UNL     1      -2.988   9.898  17.154  0.00  0.00    +0.000 A 
ATOM     20  C   UNL     1      -3.812  10.807  17.804  0.00  0.00    +0.000 A 
ATOM     21  F   UNL     1      -5.132  10.771  17.583  0.00  0.00    +0.000 F 
ATOM     22  C   UNL     1      -3.285  11.738  18.690  0.00  0.00    +0.000 A 
ATOM     23  C   UNL     1      -1.910  11.758  18.939  0.00  0.00    +0.000 A 
ENDBRANCH  16  17
BRANCH  16  24
ATOM     24  N   UNL     1       0.965  12.143  19.147  0.00  0.00    +0.000 NA
ATOM     25  C   UNL     1       1.308  12.066  20.574  0.00  0.00    +0.000 C 
ATOM     26  C   UNL     1       2.153  12.596  18.415  0.00  0.00    +0.000 C 
ENDBRANCH  16  24
ENDBRANCH   4  16
TORSDOF 6
ENDMDL
MODEL 5
REMARK VINA RESULT:      -7.0      3.840      8.928
REMARK  Name = 
REMARK  9 active torsions:
REMARK  status: ('A' for Active; 'I' for Inactive)
REMARK    1  A    between atoms: C_1  and  O_2
REMARK    2  A    between atoms: O_2  and  C_3
REMARK    3  A    between atoms: C_8  and  O_9
REMARK    4  A    between atoms: O_9  and  C_10
REMARK    5  A    between atoms: C_13  and  C_15
REMARK    6  A    between atoms: C_15  and  C_16
REMARK    7  A    between atoms: C_15  and  N_23
REMARK    8  A    between atoms: N_23  and  C_24
REMARK    9  A    between atoms: N_23  and  C_25
REMARK                            x       y       z     vdW  Elec       q    Type
REMARK                         _______ _______ _______ _____ _____    ______ ____
ROOT
ATOM      1  C   UNL     1       1.718   7.405  20.766  0.00  0.00    +0.000 C 
ATOM      2  C   UNL     1       1.981   5.914  21.090  0.00  0.00    +0.000 C 
ATOM      3  N   UNL     1       2.694   5.827  19.835  0.00  0.00    +0.000 N 
ATOM      4  C   UNL     1       3.434   4.797  19.318  0.00  0.00    +0.000 C 
ATOM      5  O   UNL     1       3.572   3.742  19.946  0.00  0.00    +0.000 OA
ATOM      6  C   UNL     1       2.292   7.132  19.366  0.00  0.00    +0.000 C 
ENDROOT
BRANCH   1   7
ATOM      7  O   UNL     1       0.332   7.802  20.853  0.00  0.00    +0.000 OA
BRANCH   7  13
ATOM      8  C   UNL     1      -0.088  10.241  20.451  0.00  0.00    +0.000 A 
ATOM      9  C   UNL     1      -0.553  11.432  21.037  0.00  0.00    +0.000 A 
ATOM     10  C   UNL     1      -0.869  11.491  22.395  0.00  0.00    +0.000 A 
ATOM     11  C   UNL     1      -0.764  10.347  23.177  0.00  0.00    +0.000 A 
ATOM     12  C   UNL     1      -0.371   9.146  22.588  0.00  0.00    +0.000 A 
ATOM     13  C   UNL     1      -0.036   9.075  21.228  0.00  0.00    +0.000 A 
BRANCH   8  15
ATOM     14  C   UNL     1      -0.767  10.306  18.180  0.00  0.00    +0.000 C 
ATOM     15  O   UNL     1       0.288  10.194  19.137  0.00  0.00    +0.000 OA
ENDBRANCH   8  15
ENDBRANCH   7  13
ENDBRANCH   1   7
BRANCH   4  16
ATOM     16  C   UNL     1       4.106   4.973  17.916  0.00  0.00    +0.000 C 
BRANCH  16  17
ATOM     17  C   UNL     1       5.437   5.720  18.075  0.00  0.00    +0.000 A 
ATOM     18  C   UNL     1       5.739   6.861  17.311  0.00  0.00    +0.000 A 
ATOM     19  C   UNL     1       6.933   7.555  17.492  0.00  0.00    +0.000 A 
ATOM     20  C   UNL     1       7.844   7.110  18.441  0.00  0.00    +0.000 A 
ATOM     21  F   UNL     1       8.979   7.794  18.634  0.00  0.00    +0.000 F 
ATOM     22  C   UNL     1       7.585   5.975  19.198  0.00  0.00    +0.000 A 
ATOM     23  C   UNL     1       6.388   5.276  19.013  0.00  0.00    +0.000 A 
ENDBRANCH  16  17
BRANCH  16  24
ATOM     24  N   UNL     1       4.215   3.678  17.164  0.00  0.00    +0.000 NA
ATOM     25  C   UNL     1       2.891   3.122  16.851  0.00  0.00    +0.000 C 
ATOM     26  C   UNL     1       4.957   3.826  15.907  0.00  0.00    +0.000 C 
ENDBRANCH  16  24
ENDBRANCH   4  16
TORSDOF 6
ENDMDL
MODEL 6
REMARK VINA RESULT:      -6.9      3.554      8.734
REMARK  Name = 
REMARK  9 active torsions:
REMARK  status: ('A' for Active; 'I' for Inactive)
REMARK    1  A    between atoms: C_1  and  O_2
REMARK    2  A    between atoms: O_2  and  C_3
REMARK    3  A    between atoms: C_8  and  O_9
REMARK    4  A    between atoms: O_9  and  C_10
REMARK    5  A    between atoms: C_13  and  C_15
REMARK    6  A    between atoms: C_15  and  C_16
REMARK    7  A    between atoms: C_15  and  N_23
REMARK    8  A    between atoms: N_23  and  C_24
REMARK    9  A    between atoms: N_23  and  C_25
REMARK                            x       y       z     vdW  Elec       q    Type
REMARK                         _______ _______ _______ _____ _____    ______ ____
ROOT
ATOM      1  C   UNL     1       2.062   8.558  18.710  0.00  0.00    +0.000 C 
ATOM      2  C   UNL     1       1.949   7.754  20.029  0.00  0.00    +0.000 C 
ATOM      3  N   UNL     1       2.222   6.561  19.259  0.00  0.00    +0.000 N 
ATOM      4  C   UNL     1       2.447   5.278  19.682  0.00  0.00    +0.000 C 
ATOM      5  O   UNL     1       2.434   5.000  20.886  0.00  0.00    +0.000 OA
ATOM      6  C   UNL     1       2.113   7.208  17.973  0.00  0.00    +0.000 C 
ENDROOT
BRANCH   1   7
ATOM      7  O   UNL     1       0.940   9.424  18.437  0.00  0.00    +0.000 OA
BRANCH   7  13
ATOM      8  C   UNL     1       0.070  11.682  19.096  0.00  0.00    +0.000 A 
ATOM      9  C   UNL     1       0.398  13.045  19.207  0.00  0.00    +0.000 A 
ATOM     10  C   UNL     1       1.616  13.533  18.729  0.00  0.00    +0.000 A 
ATOM     11  C   UNL     1       2.539  12.657  18.174  0.00  0.00    +0.000 A 
ATOM     12  C   UNL     1       2.250  11.294  18.124  0.00  0.00    +0.000 A 
ATOM     13  C   UNL     1       1.025  10.790  18.586  0.00  0.00    +0.000 A 
BRANCH   8  15
ATOM     14  C   UNL     1      -2.263  11.571  18.684  0.00  0.00    +0.000 C 
ATOM     15  O   UNL     1      -1.148  11.208  19.500  0.00  0.00    +0.000 OA
ENDBRANCH   8  15
ENDBRANCH   7  13
ENDBRANCH   1   7
BRANCH   4  16
ATOM     16  C   UNL     1       2.720   4.164  18.619  0.00  0.00    +0.000 C 
BRANCH  16  17
ATOM     17  C   UNL     1       4.143   4.321  18.065  0.00  0.00    +0.000 A 
ATOM     18  C   UNL     1       5.244   4.545  18.911  0.00  0.00    +0.000 A 
ATOM     19  C   UNL     1       6.537   4.646  18.401  0.00  0.00    +0.000 A 
ATOM     20  C   UNL     1       6.742   4.526  17.033  0.00  0.00    +0.000 A 
ATOM     21  F   UNL     1       7.987   4.594  16.547  0.00  0.00    +0.000 F 
ATOM     22  C   UNL     1       5.673   4.324  16.169  0.00  0.00    +0.000 A 
ATOM     23  C   UNL     1       4.375   4.228  16.680  0.00  0.00    +0.000 A 
ENDBRANCH  16  17
BRANCH  16  24
ATOM     24  N   UNL     1       2.410   2.788  19.134  0.00  0.00    +0.000 NA
ATOM     25  C   UNL     1       0.981   2.472  19.006  0.00  0.00    +0.000 C 
ATOM     26  C   UNL     1       3.173   1.748  18.435  0.00  0.00    +0.000 C 
ENDBRANCH  16  24
ENDBRANCH   4  16
TORSDOF 6
ENDMDL
MODEL 7
REMARK VINA RESULT:      -6.9      3.046      8.133
REMARK  Name = 
REMARK  9 active torsions:
REMARK  status: ('A' for Active; 'I' for Inactive)
REMARK    1  A    between atoms: C_1  and  O_2
REMARK    2  A    between atoms: O_2  and  C_3
REMARK    3  A    between atoms: C_8  and  O_9
REMARK    4  A    between atoms: O_9  and  C_10
REMARK    5  A    between atoms: C_13  and  C_15
REMARK    6  A    between atoms: C_15  and  C_16
REMARK    7  A    between atoms: C_15  and  N_23
REMARK    8  A    between atoms: N_23  and  C_24
REMARK    9  A    between atoms: N_23  and  C_25
REMARK                            x       y       z     vdW  Elec       q    Type
REMARK                         _______ _______ _______ _____ _____    ______ ____
ROOT
ATOM      1  C   UNL     1       0.766   9.558  19.356  0.00  0.00    +0.000 C 
ATOM      2  C   UNL     1       1.562   9.519  18.028  0.00  0.00    +0.000 C 
ATOM      3  N   UNL     1       2.265   8.367  18.550  0.00  0.00    +0.000 N 
ATOM      4  C   UNL     1       3.158   7.533  17.933  0.00  0.00    +0.000 C 
ATOM      5  O   UNL     1       3.473   7.709  16.752  0.00  0.00    +0.000 OA
ATOM      6  C   UNL     1       1.731   8.484  19.886  0.00  0.00    +0.000 C 
ENDROOT
BRANCH   1   7
ATOM      7  O   UNL     1       0.767  10.841  20.017  0.00  0.00    +0.000 OA
BRANCH   7  13
ATOM      8  C   UNL     1      -0.781  11.445  21.896  0.00  0.00    +0.000 A 
ATOM      9  C   UNL     1      -1.981  12.102  22.221  0.00  0.00    +0.000 A 
ATOM     10  C   UNL     1      -2.821  12.601  21.224  0.00  0.00    +0.000 A 
ATOM     11  C   UNL     1      -2.450  12.488  19.891  0.00  0.00    +0.000 A 
ATOM     12  C   UNL     1      -1.228  11.902  19.564  0.00  0.00    +0.000 A 
ATOM     13  C   UNL     1      -0.381  11.382  20.553  0.00  0.00    +0.000 A 
BRANCH   8  15
ATOM     14  C   UNL     1      -0.229   9.520  23.165  0.00  0.00    +0.000 C 
ATOM     15  O   UNL     1       0.014  10.894  22.864  0.00  0.00    +0.000 OA
ENDBRANCH   8  15
ENDBRANCH   7  13
ENDBRANCH   1   7
BRANCH   4  16
ATOM     16  C   UNL     1       3.777   6.347  18.745  0.00  0.00    +0.000 C 
BRANCH  16  17
ATOM     17  C   UNL     1       2.734   5.233  18.901  0.00  0.00    +0.000 A 
ATOM     18  C   UNL     1       2.041   4.710  17.795  0.00  0.00    +0.000 A 
ATOM     19  C   UNL     1       1.125   3.669  17.943  0.00  0.00    +0.000 A 
ATOM     20  C   UNL     1       0.891   3.142  19.206  0.00  0.00    +0.000 A 
ATOM     21  F   UNL     1       0.033   2.124  19.343  0.00  0.00    +0.000 F 
ATOM     22  C   UNL     1       1.544   3.649  20.321  0.00  0.00    +0.000 A 
ATOM     23  C   UNL     1       2.459   4.697  20.173  0.00  0.00    +0.000 A 
ENDBRANCH  16  17
BRANCH  16  24
ATOM     24  N   UNL     1       5.089   5.886  18.179  0.00  0.00    +0.000 NA
ATOM     25  C   UNL     1       5.992   5.402  19.233  0.00  0.00    +0.000 C 
ATOM     26  C   UNL     1       4.922   4.814  17.192  0.00  0.00    +0.000 C 
ENDBRANCH  16  24
ENDBRANCH   4  16
TORSDOF 6
ENDMDL
MODEL 8
REMARK VINA RESULT:      -6.9      1.513      2.003
REMARK  Name = 
REMARK  9 active torsions:
REMARK  status: ('A' for Active; 'I' for Inactive)
REMARK    1  A    between atoms: C_1  and  O_2
REMARK    2  A    between atoms: O_2  and  C_3
REMARK    3  A    between atoms: C_8  and  O_9
REMARK    4  A    between atoms: O_9  and  C_10
REMARK    5  A    between atoms: C_13  and  C_15
REMARK    6  A    between atoms: C_15  and  C_16
REMARK    7  A    between atoms: C_15  and  N_23
REMARK    8  A    between atoms: N_23  and  C_24
REMARK    9  A    between atoms: N_23  and  C_25
REMARK                            x       y       z     vdW  Elec       q    Type
REMARK                         _______ _______ _______ _____ _____    ______ ____
ROOT
ATOM      1  C   UNL     1       1.867   7.325  19.573  0.00  0.00    +0.000 C 
ATOM      2  C   UNL     1       1.438   8.065  20.865  0.00  0.00    +0.000 C 
ATOM      3  N   UNL     1       1.072   9.188  20.030  0.00  0.00    +0.000 N 
ATOM      4  C   UNL     1       0.429  10.351  20.361  0.00  0.00    +0.000 C 
ATOM      5  O   UNL     1       0.068  10.564  21.522  0.00  0.00    +0.000 OA
ATOM      6  C   UNL     1       1.661   8.653  18.825  0.00  0.00    +0.000 C 
ENDROOT
BRANCH   1   7
ATOM      7  O   UNL     1       3.204   6.782  19.610  0.00  0.00    +0.000 OA
BRANCH   7  13
ATOM      8  C   UNL     1       4.743   4.904  18.981  0.00  0.00    +0.000 A 
ATOM      9  C   UNL     1       4.827   3.673  18.307  0.00  0.00    +0.000 A 
ATOM     10  C   UNL     1       3.751   3.185  17.563  0.00  0.00    +0.000 A 
ATOM     11  C   UNL     1       2.562   3.902  17.519  0.00  0.00    +0.000 A 
ATOM     12  C   UNL     1       2.448   5.088  18.242  0.00  0.00    +0.000 A 
ATOM     13  C   UNL     1       3.525   5.599  18.981  0.00  0.00    +0.000 A 
BRANCH   8  15
ATOM     14  C   UNL     1       7.009   5.597  18.893  0.00  0.00    +0.000 C 
ATOM     15  O   UNL     1       5.815   5.420  19.656  0.00  0.00    +0.000 OA
ENDBRANCH   8  15
ENDBRANCH   7  13
ENDBRANCH   1   7
BRANCH   4  16
ATOM     16  C   UNL     1       0.156  11.412  19.244  0.00  0.00    +0.000 C 
BRANCH  16  17
ATOM     17  C   UNL     1      -1.276  11.248  18.719  0.00  0.00    +0.000 A 
ATOM     18  C   UNL     1      -1.584  10.346  17.685  0.00  0.00    +0.000 A 
ATOM     19  C   UNL     1      -2.895  10.175  17.243  0.00  0.00    +0.000 A 
ATOM     20  C   UNL     1      -3.914  10.912  17.831  0.00  0.00    +0.000 A 
ATOM     21  F   UNL     1      -5.177  10.727  17.426  0.00  0.00    +0.000 F 
ATOM     22  C   UNL     1      -3.640  11.826  18.841  0.00  0.00    +0.000 A 
ATOM     23  C   UNL     1      -2.325  12.001  19.281  0.00  0.00    +0.000 A 
ENDBRANCH  16  17
BRANCH  16  24
ATOM     24  N   UNL     1       0.493  12.808  19.683  0.00  0.00    +0.000 NA
ATOM     25  C   UNL     1       1.854  12.889  20.231  0.00  0.00    +0.000 C 
ATOM     26  C   UNL     1       0.384  13.777  18.585  0.00  0.00    +0.000 C 
ENDBRANCH  16  24
ENDBRANCH   4  16
TORSDOF 6
ENDMDL
MODEL 9
REMARK VINA RESULT:      -6.9      3.110      8.040
REMARK  Name = 
REMARK  9 active torsions:
REMARK  status: ('A' for Active; 'I' for Inactive)
REMARK    1  A    between atoms: C_1  and  O_2
REMARK    2  A    between atoms: O_2  and  C_3
REMARK    3  A    between atoms: C_8  and  O_9
REMARK    4  A    between atoms: O_9  and  C_10
REMARK    5  A    between atoms: C_13  and  C_15
REMARK    6  A    between atoms: C_15  and  C_16
REMARK    7  A    between atoms: C_15  and  N_23
REMARK    8  A    between atoms: N_23  and  C_24
REMARK    9  A    between atoms: N_23  and  C_25
REMARK                            x       y       z     vdW  Elec       q    Type
REMARK                         _______ _______ _______ _____ _____    ______ ____
ROOT
ATOM      1  C   UNL     1       0.785   9.597  19.330  0.00  0.00    +0.000 C 
ATOM      2  C   UNL     1       1.478   9.536  17.946  0.00  0.00    +0.000 C 
ATOM      3  N   UNL     1       2.253   8.422  18.448  0.00  0.00    +0.000 N 
ATOM      4  C   UNL     1       3.120   7.592  17.789  0.00  0.00    +0.000 C 
ATOM      5  O   UNL     1       3.339   7.737  16.582  0.00  0.00    +0.000 OA
ATOM      6  C   UNL     1       1.820   8.568  19.817  0.00  0.00    +0.000 C 
ENDROOT
BRANCH   1   7
ATOM      7  O   UNL     1       0.799  10.900  19.950  0.00  0.00    +0.000 OA
BRANCH   7  13
ATOM      8  C   UNL     1      -0.636  11.376  21.951  0.00  0.00    +0.000 A 
ATOM      9  C   UNL     1      -1.806  12.020  22.390  0.00  0.00    +0.000 A 
ATOM     10  C   UNL     1      -2.689  12.607  21.482  0.00  0.00    +0.000 A 
ATOM     11  C   UNL     1      -2.391  12.594  20.126  0.00  0.00    +0.000 A 
ATOM     12  C   UNL     1      -1.199  12.019  19.689  0.00  0.00    +0.000 A 
ATOM     13  C   UNL     1      -0.309  11.412  20.588  0.00  0.00    +0.000 A 
BRANCH   8  15
ATOM     14  C   UNL     1      -0.153   9.400  23.169  0.00  0.00    +0.000 C 
ATOM     15  O   UNL     1       0.199  10.741  22.829  0.00  0.00    +0.000 OA
ENDBRANCH   8  15
ENDBRANCH   7  13
ENDBRANCH   1   7
BRANCH   4  16
ATOM     16  C   UNL     1       3.834   6.451  18.587  0.00  0.00    +0.000 C 
BRANCH  16  17
ATOM     17  C   UNL     1       2.836   5.321  18.872  0.00  0.00    +0.000 A 
ATOM     18  C   UNL     1       2.404   5.030  20.179  0.00  0.00    +0.000 A 
ATOM     19  C   UNL     1       1.466   4.029  20.422  0.00  0.00    +0.000 A 
ATOM     20  C   UNL     1       0.951   3.302  19.356  0.00  0.00    +0.000 A 
ATOM     21  F   UNL     1       0.029   2.360  19.588  0.00  0.00    +0.000 F 
ATOM     22  C   UNL     1       1.372   3.552  18.056  0.00  0.00    +0.000 A 
ATOM     23  C   UNL     1       2.316   4.553  17.812  0.00  0.00    +0.000 A 
ENDBRANCH  16  17
BRANCH  16  24
ATOM     24  N   UNL     1       5.104   5.996  17.927  0.00  0.00    +0.000 NA
ATOM     25  C   UNL     1       5.999   7.125  17.640  0.00  0.00    +0.000 C 
ATOM     26  C   UNL     1       5.839   5.026  18.747  0.00  0.00    +0.000 C 
ENDBRANCH  16  24
ENDBRANCH   4  16
TORSDOF 6
ENDMDL
