MODEL 1
REMARK VINA RESULT:      -4.4      0.000      0.000
REMARK  Name = 
REMARK  7 active torsions:
REMARK  status: ('A' for Active; 'I' for Inactive)
REMARK    1  A    between atoms: C_1  and  C_2
REMARK    2  A    between atoms: C_2  and  C_3
REMARK    3  A    between atoms: C_3  and  C_4
REMARK    4  A    between atoms: C_3  and  O_5
REMARK    5  A    between atoms: C_3  and  C_6
REMARK    6  A    between atoms: C_7  and  C_8
REMARK    7  A    between atoms: C_8  and  O_9
REMARK                            x       y       z     vdW  Elec       q    Type
REMARK                         _______ _______ _______ _____ _____    ______ ____
ROOT
ATOM      1  C   UNL     1       6.478   5.102  15.452  0.00  0.00    +0.000 C 
ATOM      2  C   UNL     1       5.341   6.107  15.655  0.00  0.00    +0.000 C 
ENDROOT
BRANCH   1   4
ATOM      3  C   UNL     1       7.589   4.675  17.732  0.00  0.00    +0.000 C 
ATOM      4  C   UNL     1       6.629   4.161  16.659  0.00  0.00    +0.000 C 
ENDBRANCH   1   4
BRANCH   1   5
ATOM      5  O   UNL     1       7.688   5.821  15.231  0.00  0.00    +0.000 OA
ATOM      6  H   UNL     1       7.799   6.447  15.967  0.00  0.00    +0.000 HD
ENDBRANCH   1   5
BRANCH   1   7
ATOM      7  C   UNL     1       6.185   4.300  14.194  0.00  0.00    +0.000 C 
ATOM      8  C   UNL     1       5.934   3.613  13.115  0.00  0.00    +0.000 C 
BRANCH   8   9
ATOM      9  C   UNL     1       5.641   2.812  11.857  0.00  0.00    +0.000 C 
BRANCH   9  10
ATOM     10  O   UNL     1       6.715   1.927  11.583  0.00  0.00    +0.000 OA
ATOM     11  H   UNL     1       6.552   1.562  10.696  0.00  0.00    +0.000 HD
ENDBRANCH   9  10
ENDBRANCH   8   9
ENDBRANCH   1   7
TORSDOF 5
ENDMDL
MODEL 2
REMARK VINA RESULT:      -4.4      3.475      6.355
REMARK  Name = 
REMARK  7 active torsions:
REMARK  status: ('A' for Active; 'I' for Inactive)
REMARK    1  A    between atoms: C_1  and  C_2
REMARK    2  A    between atoms: C_2  and  C_3
REMARK    3  A    between atoms: C_3  and  C_4
REMARK    4  A    between atoms: C_3  and  O_5
REMARK    5  A    between atoms: C_3  and  C_6
REMARK    6  A    between atoms: C_7  and  C_8
REMARK    7  A    between atoms: C_8  and  O_9
REMARK                            x       y       z     vdW  Elec       q    Type
REMARK                         _______ _______ _______ _____ _____    ______ ____
ROOT
ATOM      1  C   UNL     1       7.058   6.398  17.206  0.00  0.00    +0.000 C 
ATOM      2  C   UNL     1       7.538   5.298  18.156  0.00  0.00    +0.000 C 
ENDROOT
BRANCH   1   4
ATOM      3  C   UNL     1       4.806   5.417  16.444  0.00  0.00    +0.000 C 
ATOM      4  C   UNL     1       5.525   6.527  17.211  0.00  0.00    +0.000 C 
ENDBRANCH   1   4
BRANCH   1   5
ATOM      5  O   UNL     1       7.525   6.102  15.894  0.00  0.00    +0.000 OA
ATOM      6  H   UNL     1       7.742   6.945  15.459  0.00  0.00    +0.000 HD
ENDBRANCH   1   5
BRANCH   1   7
ATOM      7  C   UNL     1       7.697   7.709  17.634  0.00  0.00    +0.000 C 
ATOM      8  C   UNL     1       8.246   8.833  18.001  0.00  0.00    +0.000 C 
BRANCH   8   9
ATOM      9  C   UNL     1       8.885  10.144  18.430  0.00  0.00    +0.000 C 
BRANCH   9  10
ATOM     10  O   UNL     1       9.420  10.020  19.737  0.00  0.00    +0.000 OA
ATOM     11  H   UNL     1       9.191   9.125  20.044  0.00  0.00    +0.000 HD
ENDBRANCH   9  10
ENDBRANCH   8   9
ENDBRANCH   1   7
TORSDOF 5
ENDMDL
MODEL 3
REMARK VINA RESULT:      -4.4      3.078      4.037
REMARK  Name = 
REMARK  7 active torsions:
REMARK  status: ('A' for Active; 'I' for Inactive)
REMARK    1  A    between atoms: C_1  and  C_2
REMARK    2  A    between atoms: C_2  and  C_3
REMARK    3  A    between atoms: C_3  and  C_4
REMARK    4  A    between atoms: C_3  and  O_5
REMARK    5  A    between atoms: C_3  and  C_6
REMARK    6  A    between atoms: C_7  and  C_8
REMARK    7  A    between atoms: C_8  and  O_9
REMARK                            x       y       z     vdW  Elec       q    Type
REMARK                         _______ _______ _______ _____ _____    ______ ____
ROOT
ATOM      1  C   UNL     1       4.399   3.927  18.112  0.00  0.00    +0.000 C 
ATOM      2  C   UNL     1       4.171   5.305  18.739  0.00  0.00    +0.000 C 
ENDROOT
BRANCH   1   4
ATOM      3  C   UNL     1       1.868   4.125  17.699  0.00  0.00    +0.000 C 
ATOM      4  C   UNL     1       3.073   3.195  17.845  0.00  0.00    +0.000 C 
ENDBRANCH   1   4
BRANCH   1   5
ATOM      5  O   UNL     1       5.220   3.159  18.986  0.00  0.00    +0.000 OA
ATOM      6  H   UNL     1       5.002   2.221  18.849  0.00  0.00    +0.000 HD
ENDBRANCH   1   5
BRANCH   1   7
ATOM      7  C   UNL     1       5.165   4.116  16.813  0.00  0.00    +0.000 C 
ATOM      8  C   UNL     1       5.823   4.279  15.698  0.00  0.00    +0.000 C 
BRANCH   8   9
ATOM      9  C   UNL     1       6.589   4.469  14.399  0.00  0.00    +0.000 C 
BRANCH   9  10
ATOM     10  O   UNL     1       7.655   5.383  14.593  0.00  0.00    +0.000 OA
ATOM     11  H   UNL     1       7.248   6.251  14.759  0.00  0.00    +0.000 HD
ENDBRANCH   9  10
ENDBRANCH   8   9
ENDBRANCH   1   7
TORSDOF 5
ENDMDL
MODEL 4
REMARK VINA RESULT:      -4.3      4.827      6.331
REMARK  Name = 
REMARK  7 active torsions:
REMARK  status: ('A' for Active; 'I' for Inactive)
REMARK    1  A    between atoms: C_1  and  C_2
REMARK    2  A    between atoms: C_2  and  C_3
REMARK    3  A    between atoms: C_3  and  C_4
REMARK    4  A    between atoms: C_3  and  O_5
REMARK    5  A    between atoms: C_3  and  C_6
REMARK    6  A    between atoms: C_7  and  C_8
REMARK    7  A    between atoms: C_8  and  O_9
REMARK                            x       y       z     vdW  Elec       q    Type
REMARK                         _______ _______ _______ _____ _____    ______ ____
ROOT
ATOM      1  C   UNL     1       3.825   3.325  18.790  0.00  0.00    +0.000 C 
ATOM      2  C   UNL     1       2.944   3.542  20.023  0.00  0.00    +0.000 C 
ENDROOT
BRANCH   1   4
ATOM      3  C   UNL     1       1.722   4.342  17.714  0.00  0.00    +0.000 C 
ATOM      4  C   UNL     1       3.089   3.695  17.491  0.00  0.00    +0.000 C 
ENDBRANCH   1   4
BRANCH   1   5
ATOM      5  O   UNL     1       4.232   1.961  18.756  0.00  0.00    +0.000 OA
ATOM      6  H   UNL     1       5.149   1.917  19.079  0.00  0.00    +0.000 HD
ENDBRANCH   1   5
BRANCH   1   7
ATOM      7  C   UNL     1       5.077   4.172  18.945  0.00  0.00    +0.000 C 
ATOM      8  C   UNL     1       6.151   4.900  19.078  0.00  0.00    +0.000 C 
BRANCH   8   9
ATOM      9  C   UNL     1       7.404   5.748  19.233  0.00  0.00    +0.000 C 
BRANCH   9  10
ATOM     10  O   UNL     1       8.019   5.482  20.482  0.00  0.00    +0.000 OA
ATOM     11  H   UNL     1       7.862   6.266  21.039  0.00  0.00    +0.000 HD
ENDBRANCH   9  10
ENDBRANCH   8   9
ENDBRANCH   1   7
TORSDOF 5
ENDMDL
MODEL 5
REMARK VINA RESULT:      -4.3      1.773      2.038
REMARK  Name = 
REMARK  7 active torsions:
REMARK  status: ('A' for Active; 'I' for Inactive)
REMARK    1  A    between atoms: C_1  and  C_2
REMARK    2  A    between atoms: C_2  and  C_3
REMARK    3  A    between atoms: C_3  and  C_4
REMARK    4  A    between atoms: C_3  and  O_5
REMARK    5  A    between atoms: C_3  and  C_6
REMARK    6  A    between atoms: C_7  and  C_8
REMARK    7  A    between atoms: C_8  and  O_9
REMARK                            x       y       z     vdW  Elec       q    Type
REMARK                         _______ _______ _______ _____ _____    ______ ____
ROOT
ATOM      1  C   UNL     1       5.521   4.527  16.321  0.00  0.00    +0.000 C 
ATOM      2  C   UNL     1       5.463   6.054  16.417  0.00  0.00    +0.000 C 
ENDROOT
BRANCH   1   4
ATOM      3  C   UNL     1       3.321   4.790  17.627  0.00  0.00    +0.000 C 
ATOM      4  C   UNL     1       4.203   3.877  16.776  0.00  0.00    +0.000 C 
ENDBRANCH   1   4
BRANCH   1   5
ATOM      5  O   UNL     1       6.604   4.061  17.120  0.00  0.00    +0.000 OA
ATOM      6  H   UNL     1       7.416   4.136  16.590  0.00  0.00    +0.000 HD
ENDBRANCH   1   5
BRANCH   1   7
ATOM      7  C   UNL     1       5.821   4.153  14.879  0.00  0.00    +0.000 C 
ATOM      8  C   UNL     1       6.079   3.831  13.642  0.00  0.00    +0.000 C 
BRANCH   8   9
ATOM      9  C   UNL     1       6.379   3.457  12.200  0.00  0.00    +0.000 C 
BRANCH   9  10
ATOM     10  O   UNL     1       6.010   2.109  11.961  0.00  0.00    +0.000 OA
ATOM     11  H   UNL     1       6.396   1.866  11.101  0.00  0.00    +0.000 HD
ENDBRANCH   9  10
ENDBRANCH   8   9
ENDBRANCH   1   7
TORSDOF 5
ENDMDL
MODEL 6
REMARK VINA RESULT:      -4.3      1.515      1.745
REMARK  Name = 
REMARK  7 active torsions:
REMARK  status: ('A' for Active; 'I' for Inactive)
REMARK    1  A    between atoms: C_1  and  C_2
REMARK    2  A    between atoms: C_2  and  C_3
REMARK    3  A    between atoms: C_3  and  C_4
REMARK    4  A    between atoms: C_3  and  O_5
REMARK    5  A    between atoms: C_3  and  C_6
REMARK    6  A    between atoms: C_7  and  C_8
REMARK    7  A    between atoms: C_8  and  O_9
REMARK                            x       y       z     vdW  Elec       q    Type
REMARK                         _______ _______ _______ _____ _____    ______ ____
ROOT
ATOM      1  C   UNL     1       6.887   4.735  16.777  0.00  0.00    +0.000 C 
ATOM      2  C   UNL     1       7.091   6.246  16.921  0.00  0.00    +0.000 C 
ENDROOT
BRANCH   1   4
ATOM      3  C   UNL     1       5.580   4.844  18.990  0.00  0.00    +0.000 C 
ATOM      4  C   UNL     1       5.675   4.244  17.587  0.00  0.00    +0.000 C 
ENDBRANCH   1   4
BRANCH   1   5
ATOM      5  O   UNL     1       8.072   4.073  17.208  0.00  0.00    +0.000 OA
ATOM      6  H   UNL     1       7.850   3.137  17.357  0.00  0.00    +0.000 HD
ENDBRANCH   1   5
BRANCH   1   7
ATOM      7  C   UNL     1       6.697   4.420  15.303  0.00  0.00    +0.000 C 
ATOM      8  C   UNL     1       6.533   4.149  14.038  0.00  0.00    +0.000 C 
BRANCH   8   9
ATOM      9  C   UNL     1       6.343   3.833  12.563  0.00  0.00    +0.000 C 
BRANCH   9  10
ATOM     10  O   UNL     1       6.240   2.431  12.376  0.00  0.00    +0.000 OA
ATOM     11  H   UNL     1       5.554   2.120  12.991  0.00  0.00    +0.000 HD
ENDBRANCH   9  10
ENDBRANCH   8   9
ENDBRANCH   1   7
TORSDOF 5
ENDMDL
MODEL 7
REMARK VINA RESULT:      -4.2      3.396      4.247
REMARK  Name = 
REMARK  7 active torsions:
REMARK  status: ('A' for Active; 'I' for Inactive)
REMARK    1  A    between atoms: C_1  and  C_2
REMARK    2  A    between atoms: C_2  and  C_3
REMARK    3  A    between atoms: C_3  and  C_4
REMARK    4  A    between atoms: C_3  and  O_5
REMARK    5  A    between atoms: C_3  and  C_6
REMARK    6  A    between atoms: C_7  and  C_8
REMARK    7  A    between atoms: C_8  and  O_9
REMARK                            x       y       z     vdW  Elec       q    Type
REMARK                         _______ _______ _______ _____ _____    ______ ____
ROOT
ATOM      1  C   UNL     1       6.343   4.841  17.110  0.00  0.00    +0.000 C 
ATOM      2  C   UNL     1       6.879   4.584  15.699  0.00  0.00    +0.000 C 
ENDROOT
BRANCH   1   4
ATOM      3  C   UNL     1       7.518   7.087  17.548  0.00  0.00    +0.000 C 
ATOM      4  C   UNL     1       6.190   6.345  17.396  0.00  0.00    +0.000 C 
ENDBRANCH   1   4
BRANCH   1   5
ATOM      5  O   UNL     1       7.233   4.247  18.050  0.00  0.00    +0.000 OA
ATOM      6  H   UNL     1       7.837   3.664  17.558  0.00  0.00    +0.000 HD
ENDBRANCH   1   5
BRANCH   1   7
ATOM      7  C   UNL     1       5.001   4.142  17.244  0.00  0.00    +0.000 C 
ATOM      8  C   UNL     1       3.849   3.541  17.359  0.00  0.00    +0.000 C 
BRANCH   8   9
ATOM      9  C   UNL     1       2.506   2.841  17.493  0.00  0.00    +0.000 C 
BRANCH   9  10
ATOM     10  O   UNL     1       2.685   1.548  18.046  0.00  0.00    +0.000 OA
ATOM     11  H   UNL     1       1.945   1.406  18.662  0.00  0.00    +0.000 HD
ENDBRANCH   9  10
ENDBRANCH   8   9
ENDBRANCH   1   7
TORSDOF 5
ENDMDL
MODEL 8
REMARK VINA RESULT:      -4.2      4.974      6.126
REMARK  Name = 
REMARK  7 active torsions:
REMARK  status: ('A' for Active; 'I' for Inactive)
REMARK    1  A    between atoms: C_1  and  C_2
REMARK    2  A    between atoms: C_2  and  C_3
REMARK    3  A    between atoms: C_3  and  C_4
REMARK    4  A    between atoms: C_3  and  O_5
REMARK    5  A    between atoms: C_3  and  C_6
REMARK    6  A    between atoms: C_7  and  C_8
REMARK    7  A    between atoms: C_8  and  O_9
REMARK                            x       y       z     vdW  Elec       q    Type
REMARK                         _______ _______ _______ _____ _____    ______ ____
ROOT
ATOM      1  C   UNL     1       1.869   3.666  18.396  0.00  0.00    +0.000 C 
ATOM      2  C   UNL     1       1.762   2.141  18.482  0.00  0.00    +0.000 C 
ENDROOT
BRANCH   1   4
ATOM      3  C   UNL     1       1.267   3.364  20.878  0.00  0.00    +0.000 C 
ATOM      4  C   UNL     1       1.478   4.341  19.722  0.00  0.00    +0.000 C 
ENDBRANCH   1   4
BRANCH   1   5
ATOM      5  O   UNL     1       1.027   4.123  17.342  0.00  0.00    +0.000 OA
ATOM      6  H   UNL     1       0.104   4.011  17.631  0.00  0.00    +0.000 HD
ENDBRANCH   1   5
BRANCH   1   7
ATOM      7  C   UNL     1       3.299   4.022  18.027  0.00  0.00    +0.000 C 
ATOM      8  C   UNL     1       4.527   4.328  17.710  0.00  0.00    +0.000 C 
BRANCH   8   9
ATOM      9  C   UNL     1       5.958   4.684  17.340  0.00  0.00    +0.000 C 
BRANCH   9  10
ATOM     10  O   UNL     1       6.857   4.114  18.276  0.00  0.00    +0.000 OA
ATOM     11  H   UNL     1       7.443   4.835  18.569  0.00  0.00    +0.000 HD
ENDBRANCH   9  10
ENDBRANCH   8   9
ENDBRANCH   1   7
TORSDOF 5
ENDMDL
MODEL 9
REMARK VINA RESULT:      -4.2      1.154      1.410
REMARK  Name = 
REMARK  7 active torsions:
REMARK  status: ('A' for Active; 'I' for Inactive)
REMARK    1  A    between atoms: C_1  and  C_2
REMARK    2  A    between atoms: C_2  and  C_3
REMARK    3  A    between atoms: C_3  and  C_4
REMARK    4  A    between atoms: C_3  and  O_5
REMARK    5  A    between atoms: C_3  and  C_6
REMARK    6  A    between atoms: C_7  and  C_8
REMARK    7  A    between atoms: C_8  and  O_9
REMARK                            x       y       z     vdW  Elec       q    Type
REMARK                         _______ _______ _______ _____ _____    ______ ____
ROOT
ATOM      1  C   UNL     1       6.220   5.246  15.670  0.00  0.00    +0.000 C 
ATOM      2  C   UNL     1       5.218   6.403  15.634  0.00  0.00    +0.000 C 
ENDROOT
BRANCH   1   4
ATOM      3  C   UNL     1       4.552   3.824  17.016  0.00  0.00    +0.000 C 
ATOM      4  C   UNL     1       5.989   4.329  16.883  0.00  0.00    +0.000 C 
ENDBRANCH   1   4
BRANCH   1   5
ATOM      5  O   UNL     1       7.538   5.785  15.703  0.00  0.00    +0.000 OA
ATOM      6  H   UNL     1       7.772   6.049  14.796  0.00  0.00    +0.000 HD
ENDBRANCH   1   5
BRANCH   1   7
ATOM      7  C   UNL     1       6.081   4.455  14.380  0.00  0.00    +0.000 C 
ATOM      8  C   UNL     1       5.961   3.777  13.272  0.00  0.00    +0.000 C 
BRANCH   8   9
ATOM      9  C   UNL     1       5.821   2.986  11.982  0.00  0.00    +0.000 C 
BRANCH   9  10
ATOM     10  O   UNL     1       4.489   3.067  11.504  0.00  0.00    +0.000 OA
ATOM     11  H   UNL     1       4.444   2.500  10.714  0.00  0.00    +0.000 HD
ENDBRANCH   9  10
ENDBRANCH   8   9
ENDBRANCH   1   7
TORSDOF 5
ENDMDL
