MODEL 1
REMARK VINA RESULT:      -7.5      0.000      0.000
REMARK  Name = 
REMARK  13 active torsions:
REMARK  status: ('A' for Active; 'I' for Inactive)
REMARK    1  A    between atoms: C_1  and  C_2
REMARK    2  A    between atoms: C_2  and  C_3
REMARK    3  A    between atoms: C_2  and  N_4
REMARK    4  A    between atoms: N_4  and  C_5
REMARK    5  A    between atoms: C_5  and  C_6
REMARK    6  A    between atoms: C_6  and  O_7
REMARK    7  A    between atoms: C_6  and  C_8
REMARK    8  A    between atoms: C_8  and  O_9
REMARK    9  A    between atoms: O_9  and  C_10
REMARK   10  A    between atoms: C_10  and  C_12
REMARK   11  A    between atoms: C_15  and  O_16
REMARK   12  A    between atoms: O_16  and  C_17
REMARK   13  A    between atoms: C_17  and  C_18
REMARK                            x       y       z     vdW  Elec       q    Type
REMARK                         _______ _______ _______ _____ _____    ______ ____
ROOT
ATOM      1  C   UNL     1       5.713   5.494  17.774  0.00  0.00    +0.000 A 
ATOM      2  C   UNL     1       5.706   6.712  17.086  0.00  0.00    +0.000 A 
ATOM      3  C   UNL     1       6.724   7.644  17.290  0.00  0.00    +0.000 A 
ATOM      4  C   UNL     1       7.743   7.380  18.206  0.00  0.00    +0.000 A 
ATOM      5  C   UNL     1       7.795   6.137  18.839  0.00  0.00    +0.000 A 
ATOM      6  C   UNL     1       6.782   5.194  18.629  0.00  0.00    +0.000 A 
ENDROOT
BRANCH   1   7
ATOM      7  C   UNL     1       4.520   4.619  17.632  0.00  0.00    +0.000 C 
ATOM      8  O   UNL     1       3.415   5.040  17.335  0.00  0.00    +0.000 OA
BRANCH   7   9
ATOM      9  O   UNL     1       4.815   3.343  17.980  0.00  0.00    +0.000 OA
BRANCH   9  10
ATOM     10  C   UNL     1       4.301   2.927  19.253  0.00  0.00    +0.000 C 
BRANCH  10  11
ATOM     11  C   UNL     1       3.467   1.638  19.219  0.00  0.00    +0.000 C 
BRANCH  11  12
ATOM     12  O   UNL     1       3.890   0.830  18.107  0.00  0.00    +0.000 OA
ATOM     13  H   UNL     1       3.106   0.382  17.747  0.00  0.00    +0.000 HD
ENDBRANCH  11  12
BRANCH  11  14
ATOM     14  C   UNL     1       1.962   1.948  19.101  0.00  0.00    +0.000 C 
BRANCH  14  15
ATOM     15  N   UNL     1       1.732   3.397  19.051  0.00  0.00    +0.000 NA
ATOM     16  H   UNL     1       2.626   3.867  18.888  0.00  0.00    +0.000 HD
BRANCH  15  18
ATOM     17  C   UNL     1       1.256   2.944  21.389  0.00  0.00    +0.000 C 
ATOM     18  C   UNL     1       1.065   3.934  20.239  0.00  0.00    +0.000 C 
ATOM     19  C   UNL     1       1.626   5.299  20.645  0.00  0.00    +0.000 C 
ENDBRANCH  15  18
ENDBRANCH  14  15
ENDBRANCH  11  14
ENDBRANCH  10  11
ENDBRANCH   9  10
ENDBRANCH   7   9
ENDBRANCH   1   7
BRANCH   4  20
ATOM     20  O   UNL     1       8.719   8.275  18.566  0.00  0.00    +0.000 OA
BRANCH  20  21
ATOM     21  C   UNL     1       8.490   9.613  18.107  0.00  0.00    +0.000 C 
BRANCH  21  22
ATOM     22  C   UNL     1       9.452  10.599  18.726  0.00  0.00    +0.000 A 
ATOM     23  C   UNL     1      10.320  11.379  17.955  0.00  0.00    +0.000 A 
ATOM     24  C   UNL     1      11.166  12.307  18.566  0.00  0.00    +0.000 A 
ATOM     25  C   UNL     1      11.147  12.469  19.952  0.00  0.00    +0.000 A 
ATOM     26  C   UNL     1      10.277  11.709  20.729  0.00  0.00    +0.000 A 
ATOM     27  C   UNL     1       9.430  10.785  20.120  0.00  0.00    +0.000 A 
ENDBRANCH  21  22
ENDBRANCH  20  21
ENDBRANCH   4  20
TORSDOF 11
ENDMDL
MODEL 2
REMARK VINA RESULT:      -7.4      1.137      1.644
REMARK  Name = 
REMARK  13 active torsions:
REMARK  status: ('A' for Active; 'I' for Inactive)
REMARK    1  A    between atoms: C_1  and  C_2
REMARK    2  A    between atoms: C_2  and  C_3
REMARK    3  A    between atoms: C_2  and  N_4
REMARK    4  A    between atoms: N_4  and  C_5
REMARK    5  A    between atoms: C_5  and  C_6
REMARK    6  A    between atoms: C_6  and  O_7
REMARK    7  A    between atoms: C_6  and  C_8
REMARK    8  A    between atoms: C_8  and  O_9
REMARK    9  A    between atoms: O_9  and  C_10
REMARK   10  A    between atoms: C_10  and  C_12
REMARK   11  A    between atoms: C_15  and  O_16
REMARK   12  A    between atoms: O_16  and  C_17
REMARK   13  A    between atoms: C_17  and  C_18
REMARK                            x       y       z     vdW  Elec       q    Type
REMARK                         _______ _______ _______ _____ _____    ______ ____
ROOT
ATOM      1  C   UNL     1       6.519   5.163  17.218  0.00  0.00    +0.000 A 
ATOM      2  C   UNL     1       6.668   6.345  16.483  0.00  0.00    +0.000 A 
ATOM      3  C   UNL     1       7.402   7.411  17.003  0.00  0.00    +0.000 A 
ATOM      4  C   UNL     1       7.970   7.318  18.274  0.00  0.00    +0.000 A 
ATOM      5  C   UNL     1       7.886   6.115  18.979  0.00  0.00    +0.000 A 
ATOM      6  C   UNL     1       7.161   5.039  18.457  0.00  0.00    +0.000 A 
ENDROOT
BRANCH   1   7
ATOM      7  C   UNL     1       5.595   4.132  16.677  0.00  0.00    +0.000 C 
ATOM      8  O   UNL     1       5.601   3.776  15.511  0.00  0.00    +0.000 OA
BRANCH   7   9
ATOM      9  O   UNL     1       4.701   3.745  17.620  0.00  0.00    +0.000 OA
BRANCH   9  10
ATOM     10  C   UNL     1       3.418   4.381  17.537  0.00  0.00    +0.000 C 
BRANCH  10  11
ATOM     11  C   UNL     1       2.228   3.415  17.436  0.00  0.00    +0.000 C 
BRANCH  11  12
ATOM     12  O   UNL     1       1.048   4.154  17.074  0.00  0.00    +0.000 OA
ATOM     13  H   UNL     1       1.330   5.016  16.725  0.00  0.00    +0.000 HD
ENDBRANCH  11  12
BRANCH  11  14
ATOM     14  C   UNL     1       1.996   2.673  18.767  0.00  0.00    +0.000 C 
BRANCH  14  15
ATOM     15  N   UNL     1       2.949   3.126  19.787  0.00  0.00    +0.000 NA
ATOM     16  H   UNL     1       3.568   2.348  20.028  0.00  0.00    +0.000 HD
BRANCH  15  18
ATOM     17  C   UNL     1       1.136   4.553  20.545  0.00  0.00    +0.000 C 
ATOM     18  C   UNL     1       2.317   3.685  20.984  0.00  0.00    +0.000 C 
ATOM     19  C   UNL     1       1.819   2.592  21.934  0.00  0.00    +0.000 C 
ENDBRANCH  15  18
ENDBRANCH  14  15
ENDBRANCH  11  14
ENDBRANCH  10  11
ENDBRANCH   9  10
ENDBRANCH   7   9
ENDBRANCH   1   7
BRANCH   4  20
ATOM     20  O   UNL     1       8.605   8.347  18.922  0.00  0.00    +0.000 OA
BRANCH  20  21
ATOM     21  C   UNL     1       8.523   9.608  18.247  0.00  0.00    +0.000 C 
BRANCH  21  22
ATOM     22  C   UNL     1       9.580  10.578  18.722  0.00  0.00    +0.000 A 
ATOM     23  C   UNL     1      10.453  11.221  17.839  0.00  0.00    +0.000 A 
ATOM     24  C   UNL     1      11.390  12.139  18.317  0.00  0.00    +0.000 A 
ATOM     25  C   UNL     1      11.457  12.429  19.680  0.00  0.00    +0.000 A 
ATOM     26  C   UNL     1      10.583  11.807  20.567  0.00  0.00    +0.000 A 
ATOM     27  C   UNL     1       9.646  10.892  20.091  0.00  0.00    +0.000 A 
ENDBRANCH  21  22
ENDBRANCH  20  21
ENDBRANCH   4  20
TORSDOF 11
ENDMDL
MODEL 3
REMARK VINA RESULT:      -7.4      1.307      1.865
REMARK  Name = 
REMARK  13 active torsions:
REMARK  status: ('A' for Active; 'I' for Inactive)
REMARK    1  A    between atoms: C_1  and  C_2
REMARK    2  A    between atoms: C_2  and  C_3
REMARK    3  A    between atoms: C_2  and  N_4
REMARK    4  A    between atoms: N_4  and  C_5
REMARK    5  A    between atoms: C_5  and  C_6
REMARK    6  A    between atoms: C_6  and  O_7
REMARK    7  A    between atoms: C_6  and  C_8
REMARK    8  A    between atoms: C_8  and  O_9
REMARK    9  A    between atoms: O_9  and  C_10
REMARK   10  A    between atoms: C_10  and  C_12
REMARK   11  A    between atoms: C_15  and  O_16
REMARK   12  A    between atoms: O_16  and  C_17
REMARK   13  A    between atoms: C_17  and  C_18
REMARK                            x       y       z     vdW  Elec       q    Type
REMARK                         _______ _______ _______ _____ _____    ______ ____
ROOT
ATOM      1  C   UNL     1       6.166   5.410  18.381  0.00  0.00    +0.000 A 
ATOM      2  C   UNL     1       5.708   6.268  17.375  0.00  0.00    +0.000 A 
ATOM      3  C   UNL     1       6.440   7.405  17.030  0.00  0.00    +0.000 A 
ATOM      4  C   UNL     1       7.623   7.709  17.705  0.00  0.00    +0.000 A 
ATOM      5  C   UNL     1       8.121   6.817  18.657  0.00  0.00    +0.000 A 
ATOM      6  C   UNL     1       7.396   5.670  18.999  0.00  0.00    +0.000 A 
ENDROOT
BRANCH   1   7
ATOM      7  C   UNL     1       5.262   4.310  18.808  0.00  0.00    +0.000 C 
ATOM      8  O   UNL     1       5.506   3.573  19.748  0.00  0.00    +0.000 OA
BRANCH   7   9
ATOM      9  O   UNL     1       4.217   4.187  17.953  0.00  0.00    +0.000 OA
BRANCH   9  10
ATOM     10  C   UNL     1       3.840   2.837  17.648  0.00  0.00    +0.000 C 
BRANCH  10  11
ATOM     11  C   UNL     1       2.326   2.607  17.523  0.00  0.00    +0.000 C 
BRANCH  11  12
ATOM     12  O   UNL     1       1.706   3.800  17.013  0.00  0.00    +0.000 OA
ATOM     13  H   UNL     1       2.261   4.557  17.266  0.00  0.00    +0.000 HD
ENDBRANCH  11  12
BRANCH  11  14
ATOM     14  C   UNL     1       1.704   2.230  18.882  0.00  0.00    +0.000 C 
BRANCH  14  15
ATOM     15  N   UNL     1       2.664   2.448  19.971  0.00  0.00    +0.000 NA
ATOM     16  H   UNL     1       2.974   1.540  20.324  0.00  0.00    +0.000 HD
BRANCH  15  18
ATOM     17  C   UNL     1       1.117   4.253  20.473  0.00  0.00    +0.000 C 
ATOM     18  C   UNL     1       2.150   3.287  21.056  0.00  0.00    +0.000 C 
ATOM     19  C   UNL     1       1.500   2.456  22.165  0.00  0.00    +0.000 C 
ENDBRANCH  15  18
ENDBRANCH  14  15
ENDBRANCH  11  14
ENDBRANCH  10  11
ENDBRANCH   9  10
ENDBRANCH   7   9
ENDBRANCH   1   7
BRANCH   4  20
ATOM     20  O   UNL     1       8.350   8.859  17.525  0.00  0.00    +0.000 OA
BRANCH  20  21
ATOM     21  C   UNL     1       8.736   9.510  18.742  0.00  0.00    +0.000 C 
BRANCH  21  22
ATOM     22  C   UNL     1       9.401  10.842  18.488  0.00  0.00    +0.000 A 
ATOM     23  C   UNL     1      10.751  11.068  18.775  0.00  0.00    +0.000 A 
ATOM     24  C   UNL     1      11.335  12.303  18.489  0.00  0.00    +0.000 A 
ATOM     25  C   UNL     1      10.579  13.321  17.906  0.00  0.00    +0.000 A 
ATOM     26  C   UNL     1       9.238  13.103  17.603  0.00  0.00    +0.000 A 
ATOM     27  C   UNL     1       8.654  11.870  17.885  0.00  0.00    +0.000 A 
ENDBRANCH  21  22
ENDBRANCH  20  21
ENDBRANCH   4  20
TORSDOF 11
ENDMDL
MODEL 4
REMARK VINA RESULT:      -7.2      4.297      5.866
REMARK  Name = 
REMARK  13 active torsions:
REMARK  status: ('A' for Active; 'I' for Inactive)
REMARK    1  A    between atoms: C_1  and  C_2
REMARK    2  A    between atoms: C_2  and  C_3
REMARK    3  A    between atoms: C_2  and  N_4
REMARK    4  A    between atoms: N_4  and  C_5
REMARK    5  A    between atoms: C_5  and  C_6
REMARK    6  A    between atoms: C_6  and  O_7
REMARK    7  A    between atoms: C_6  and  C_8
REMARK    8  A    between atoms: C_8  and  O_9
REMARK    9  A    between atoms: O_9  and  C_10
REMARK   10  A    between atoms: C_10  and  C_12
REMARK   11  A    between atoms: C_15  and  O_16
REMARK   12  A    between atoms: O_16  and  C_17
REMARK   13  A    between atoms: C_17  and  C_18
REMARK                            x       y       z     vdW  Elec       q    Type
REMARK                         _______ _______ _______ _____ _____    ______ ____
ROOT
ATOM      1  C   UNL     1       3.217   6.317  19.235  0.00  0.00    +0.000 A 
ATOM      2  C   UNL     1       2.974   7.018  18.048  0.00  0.00    +0.000 A 
ATOM      3  C   UNL     1       3.948   7.075  17.052  0.00  0.00    +0.000 A 
ATOM      4  C   UNL     1       5.185   6.458  17.243  0.00  0.00    +0.000 A 
ATOM      5  C   UNL     1       5.404   5.698  18.393  0.00  0.00    +0.000 A 
ATOM      6  C   UNL     1       4.426   5.627  19.390  0.00  0.00    +0.000 A 
ENDROOT
BRANCH   1   7
ATOM      7  C   UNL     1       2.203   6.430  20.317  0.00  0.00    +0.000 C 
ATOM      8  O   UNL     1       1.769   7.497  20.716  0.00  0.00    +0.000 OA
BRANCH   7   9
ATOM      9  O   UNL     1       1.931   5.214  20.850  0.00  0.00    +0.000 OA
BRANCH   9  10
ATOM     10  C   UNL     1       0.789   4.549  20.292  0.00  0.00    +0.000 C 
BRANCH  10  11
ATOM     11  C   UNL     1       0.823   3.017  20.395  0.00  0.00    +0.000 C 
BRANCH  11  12
ATOM     12  O   UNL     1       2.007   2.617  21.107  0.00  0.00    +0.000 OA
ATOM     13  H   UNL     1       1.898   1.689  21.371  0.00  0.00    +0.000 HD
ENDBRANCH  11  12
BRANCH  11  14
ATOM     14  C   UNL     1       0.801   2.362  19.000  0.00  0.00    +0.000 C 
BRANCH  14  15
ATOM     15  N   UNL     1       1.928   1.434  18.844  0.00  0.00    +0.000 NA
ATOM     16  H   UNL     1       2.306   1.216  19.769  0.00  0.00    +0.000 HD
BRANCH  15  18
ATOM     17  C   UNL     1       2.489   3.210  17.285  0.00  0.00    +0.000 C 
ATOM     18  C   UNL     1       2.979   1.922  17.949  0.00  0.00    +0.000 C 
ATOM     19  C   UNL     1       4.286   2.200  18.696  0.00  0.00    +0.000 C 
ENDBRANCH  15  18
ENDBRANCH  14  15
ENDBRANCH  11  14
ENDBRANCH  10  11
ENDBRANCH   9  10
ENDBRANCH   7   9
ENDBRANCH   1   7
BRANCH   4  20
ATOM     20  O   UNL     1       6.247   6.557  16.380  0.00  0.00    +0.000 OA
BRANCH  20  21
ATOM     21  C   UNL     1       6.936   5.322  16.148  0.00  0.00    +0.000 C 
BRANCH  21  22
ATOM     22  C   UNL     1       6.829   4.872  14.710  0.00  0.00    +0.000 A 
ATOM     23  C   UNL     1       7.726   5.301  13.726  0.00  0.00    +0.000 A 
ATOM     24  C   UNL     1       7.613   4.829  12.416  0.00  0.00    +0.000 A 
ATOM     25  C   UNL     1       6.609   3.920  12.080  0.00  0.00    +0.000 A 
ATOM     26  C   UNL     1       5.720   3.475  13.055  0.00  0.00    +0.000 A 
ATOM     27  C   UNL     1       5.833   3.942  14.362  0.00  0.00    +0.000 A 
ENDBRANCH  21  22
ENDBRANCH  20  21
ENDBRANCH   4  20
TORSDOF 11
ENDMDL
MODEL 5
REMARK VINA RESULT:      -7.1      1.460      1.951
REMARK  Name = 
REMARK  13 active torsions:
REMARK  status: ('A' for Active; 'I' for Inactive)
REMARK    1  A    between atoms: C_1  and  C_2
REMARK    2  A    between atoms: C_2  and  C_3
REMARK    3  A    between atoms: C_2  and  N_4
REMARK    4  A    between atoms: N_4  and  C_5
REMARK    5  A    between atoms: C_5  and  C_6
REMARK    6  A    between atoms: C_6  and  O_7
REMARK    7  A    between atoms: C_6  and  C_8
REMARK    8  A    between atoms: C_8  and  O_9
REMARK    9  A    between atoms: O_9  and  C_10
REMARK   10  A    between atoms: C_10  and  C_12
REMARK   11  A    between atoms: C_15  and  O_16
REMARK   12  A    between atoms: O_16  and  C_17
REMARK   13  A    between atoms: C_17  and  C_18
REMARK                            x       y       z     vdW  Elec       q    Type
REMARK                         _______ _______ _______ _____ _____    ______ ____
ROOT
ATOM      1  C   UNL     1       6.402   5.135  17.191  0.00  0.00    +0.000 A 
ATOM      2  C   UNL     1       6.456   6.356  16.510  0.00  0.00    +0.000 A 
ATOM      3  C   UNL     1       7.226   7.408  17.008  0.00  0.00    +0.000 A 
ATOM      4  C   UNL     1       7.925   7.260  18.206  0.00  0.00    +0.000 A 
ATOM      5  C   UNL     1       7.932   6.022  18.850  0.00  0.00    +0.000 A 
ATOM      6  C   UNL     1       7.171   4.960  18.348  0.00  0.00    +0.000 A 
ENDROOT
BRANCH   1   7
ATOM      7  C   UNL     1       5.441   4.116  16.695  0.00  0.00    +0.000 C 
ATOM      8  O   UNL     1       5.662   3.405  15.729  0.00  0.00    +0.000 OA
BRANCH   7   9
ATOM      9  O   UNL     1       4.278   4.174  17.387  0.00  0.00    +0.000 OA
BRANCH   9  10
ATOM     10  C   UNL     1       3.825   2.921  17.920  0.00  0.00    +0.000 C 
BRANCH  10  11
ATOM     11  C   UNL     1       2.786   3.039  19.044  0.00  0.00    +0.000 C 
BRANCH  11  12
ATOM     12  O   UNL     1       1.466   2.929  18.482  0.00  0.00    +0.000 OA
ATOM     13  H   UNL     1       1.453   3.431  17.650  0.00  0.00    +0.000 HD
ENDBRANCH  11  12
BRANCH  11  14
ATOM     14  C   UNL     1       2.926   4.376  19.798  0.00  0.00    +0.000 C 
BRANCH  14  15
ATOM     15  N   UNL     1       2.194   5.443  19.105  0.00  0.00    +0.000 NA
ATOM     16  H   UNL     1       2.167   5.228  18.105  0.00  0.00    +0.000 HD
BRANCH  15  18
ATOM     17  C   UNL     1       2.852   7.500  17.995  0.00  0.00    +0.000 C 
ATOM     18  C   UNL     1       2.733   6.784  19.342  0.00  0.00    +0.000 C 
ATOM     19  C   UNL     1       1.842   7.604  20.277  0.00  0.00    +0.000 C 
ENDBRANCH  15  18
ENDBRANCH  14  15
ENDBRANCH  11  14
ENDBRANCH  10  11
ENDBRANCH   9  10
ENDBRANCH   7   9
ENDBRANCH   1   7
BRANCH   4  20
ATOM     20  O   UNL     1       8.609   8.267  18.839  0.00  0.00    +0.000 OA
BRANCH  20  21
ATOM     21  C   UNL     1       8.463   9.555  18.227  0.00  0.00    +0.000 C 
BRANCH  21  22
ATOM     22  C   UNL     1       9.457  10.557  18.766  0.00  0.00    +0.000 A 
ATOM     23  C   UNL     1      10.323  11.271  17.932  0.00  0.00    +0.000 A 
ATOM     24  C   UNL     1      11.200  12.215  18.469  0.00  0.00    +0.000 A 
ATOM     25  C   UNL     1      11.214  12.462  19.842  0.00  0.00    +0.000 A 
ATOM     26  C   UNL     1      10.346  11.767  20.681  0.00  0.00    +0.000 A 
ATOM     27  C   UNL     1       9.469  10.826  20.147  0.00  0.00    +0.000 A 
ENDBRANCH  21  22
ENDBRANCH  20  21
ENDBRANCH   4  20
TORSDOF 11
ENDMDL
MODEL 6
REMARK VINA RESULT:      -7.1      4.881      7.439
REMARK  Name = 
REMARK  13 active torsions:
REMARK  status: ('A' for Active; 'I' for Inactive)
REMARK    1  A    between atoms: C_1  and  C_2
REMARK    2  A    between atoms: C_2  and  C_3
REMARK    3  A    between atoms: C_2  and  N_4
REMARK    4  A    between atoms: N_4  and  C_5
REMARK    5  A    between atoms: C_5  and  C_6
REMARK    6  A    between atoms: C_6  and  O_7
REMARK    7  A    between atoms: C_6  and  C_8
REMARK    8  A    between atoms: C_8  and  O_9
REMARK    9  A    between atoms: O_9  and  C_10
REMARK   10  A    between atoms: C_10  and  C_12
REMARK   11  A    between atoms: C_15  and  O_16
REMARK   12  A    between atoms: O_16  and  C_17
REMARK   13  A    between atoms: C_17  and  C_18
REMARK                            x       y       z     vdW  Elec       q    Type
REMARK                         _______ _______ _______ _____ _____    ______ ____
ROOT
ATOM      1  C   UNL     1       2.955   6.870  18.508  0.00  0.00    +0.000 A 
ATOM      2  C   UNL     1       2.408   6.865  19.797  0.00  0.00    +0.000 A 
ATOM      3  C   UNL     1       1.618   7.930  20.231  0.00  0.00    +0.000 A 
ATOM      4  C   UNL     1       1.392   9.024  19.394  0.00  0.00    +0.000 A 
ATOM      5  C   UNL     1       1.875   8.999  18.084  0.00  0.00    +0.000 A 
ATOM      6  C   UNL     1       2.657   7.927  17.639  0.00  0.00    +0.000 A 
ENDROOT
BRANCH   1   7
ATOM      7  C   UNL     1       3.913   5.786  18.167  0.00  0.00    +0.000 C 
ATOM      8  O   UNL     1       5.118   5.888  18.320  0.00  0.00    +0.000 OA
BRANCH   7   9
ATOM      9  O   UNL     1       3.274   4.747  17.576  0.00  0.00    +0.000 OA
BRANCH   9  10
ATOM     10  C   UNL     1       4.081   3.581  17.362  0.00  0.00    +0.000 C 
BRANCH  10  11
ATOM     11  C   UNL     1       3.504   2.283  17.946  0.00  0.00    +0.000 C 
BRANCH  11  12
ATOM     12  O   UNL     1       2.218   2.029  17.354  0.00  0.00    +0.000 OA
ATOM     13  H   UNL     1       2.071   2.694  16.661  0.00  0.00    +0.000 HD
ENDBRANCH  11  12
BRANCH  11  14
ATOM     14  C   UNL     1       3.368   2.372  19.479  0.00  0.00    +0.000 C 
BRANCH  14  15
ATOM     15  N   UNL     1       2.072   1.842  19.918  0.00  0.00    +0.000 NA
ATOM     16  H   UNL     1       1.526   1.580  19.093  0.00  0.00    +0.000 HD
BRANCH  15  18
ATOM     17  C   UNL     1       2.280   3.355  21.807  0.00  0.00    +0.000 C 
ATOM     18  C   UNL     1       1.318   2.755  20.780  0.00  0.00    +0.000 C 
ATOM     19  C   UNL     1       0.657   3.882  19.983  0.00  0.00    +0.000 C 
ENDBRANCH  15  18
ENDBRANCH  14  15
ENDBRANCH  11  14
ENDBRANCH  10  11
ENDBRANCH   9  10
ENDBRANCH   7   9
ENDBRANCH   1   7
BRANCH   4  20
ATOM     20  O   UNL     1       0.735  10.168  19.767  0.00  0.00    +0.000 OA
BRANCH  20  21
ATOM     21  C   UNL     1       0.337  11.004  18.673  0.00  0.00    +0.000 C 
BRANCH  21  22
ATOM     22  C   UNL     1      -1.146  10.918  18.401  0.00  0.00    +0.000 A 
ATOM     23  C   UNL     1      -2.066  11.782  19.003  0.00  0.00    +0.000 A 
ATOM     24  C   UNL     1      -3.425  11.692  18.694  0.00  0.00    +0.000 A 
ATOM     25  C   UNL     1      -3.875  10.745  17.774  0.00  0.00    +0.000 A 
ATOM     26  C   UNL     1      -2.967   9.889  17.157  0.00  0.00    +0.000 A 
ATOM     27  C   UNL     1      -1.610   9.979  17.462  0.00  0.00    +0.000 A 
ENDBRANCH  21  22
ENDBRANCH  20  21
ENDBRANCH   4  20
TORSDOF 11
ENDMDL
MODEL 7
REMARK VINA RESULT:      -7.0      4.468      7.755
REMARK  Name = 
REMARK  13 active torsions:
REMARK  status: ('A' for Active; 'I' for Inactive)
REMARK    1  A    between atoms: C_1  and  C_2
REMARK    2  A    between atoms: C_2  and  C_3
REMARK    3  A    between atoms: C_2  and  N_4
REMARK    4  A    between atoms: N_4  and  C_5
REMARK    5  A    between atoms: C_5  and  C_6
REMARK    6  A    between atoms: C_6  and  O_7
REMARK    7  A    between atoms: C_6  and  C_8
REMARK    8  A    between atoms: C_8  and  O_9
REMARK    9  A    between atoms: O_9  and  C_10
REMARK   10  A    between atoms: C_10  and  C_12
REMARK   11  A    between atoms: C_15  and  O_16
REMARK   12  A    between atoms: O_16  and  C_17
REMARK   13  A    between atoms: C_17  and  C_18
REMARK                            x       y       z     vdW  Elec       q    Type
REMARK                         _______ _______ _______ _____ _____    ______ ____
ROOT
ATOM      1  C   UNL     1       2.119   6.306  19.879  0.00  0.00    +0.000 A 
ATOM      2  C   UNL     1       2.483   6.652  18.573  0.00  0.00    +0.000 A 
ATOM      3  C   UNL     1       2.258   7.945  18.097  0.00  0.00    +0.000 A 
ATOM      4  C   UNL     1       1.640   8.895  18.912  0.00  0.00    +0.000 A 
ATOM      5  C   UNL     1       1.343   8.575  20.238  0.00  0.00    +0.000 A 
ATOM      6  C   UNL     1       1.577   7.284  20.723  0.00  0.00    +0.000 A 
ENDROOT
BRANCH   1   7
ATOM      7  C   UNL     1       2.238   4.876  20.267  0.00  0.00    +0.000 C 
ATOM      8  O   UNL     1       1.327   4.244  20.774  0.00  0.00    +0.000 OA
BRANCH   7   9
ATOM      9  O   UNL     1       3.505   4.432  20.082  0.00  0.00    +0.000 OA
BRANCH   9  10
ATOM     10  C   UNL     1       3.611   3.128  19.493  0.00  0.00    +0.000 C 
BRANCH  10  11
ATOM     11  C   UNL     1       3.147   3.044  18.032  0.00  0.00    +0.000 C 
BRANCH  11  12
ATOM     12  O   UNL     1       2.677   1.711  17.760  0.00  0.00    +0.000 OA
ATOM     13  H   UNL     1       1.837   1.783  17.277  0.00  0.00    +0.000 HD
ENDBRANCH  11  12
BRANCH  11  14
ATOM     14  C   UNL     1       4.288   3.407  17.061  0.00  0.00    +0.000 C 
BRANCH  14  15
ATOM     15  N   UNL     1       5.459   3.900  17.796  0.00  0.00    +0.000 NA
ATOM     16  H   UNL     1       5.312   3.738  18.796  0.00  0.00    +0.000 HD
BRANCH  15  18
ATOM     17  C   UNL     1       7.301   5.458  17.514  0.00  0.00    +0.000 C 
ATOM     18  C   UNL     1       5.778   5.304  17.532  0.00  0.00    +0.000 C 
ATOM     19  C   UNL     1       5.204   5.782  16.195  0.00  0.00    +0.000 C 
ENDBRANCH  15  18
ENDBRANCH  14  15
ENDBRANCH  11  14
ENDBRANCH  10  11
ENDBRANCH   9  10
ENDBRANCH   7   9
ENDBRANCH   1   7
BRANCH   4  20
ATOM     20  O   UNL     1       1.268  10.149  18.501  0.00  0.00    +0.000 OA
BRANCH  20  21
ATOM     21  C   UNL     1       0.229  10.744  19.290  0.00  0.00    +0.000 C 
BRANCH  21  22
ATOM     22  C   UNL     1      -1.101  10.743  18.574  0.00  0.00    +0.000 A 
ATOM     23  C   UNL     1      -1.374   9.877  17.509  0.00  0.00    +0.000 A 
ATOM     24  C   UNL     1      -2.630   9.883  16.901  0.00  0.00    +0.000 A 
ATOM     25  C   UNL     1      -3.628  10.746  17.355  0.00  0.00    +0.000 A 
ATOM     26  C   UNL     1      -3.373  11.602  18.423  0.00  0.00    +0.000 A 
ATOM     27  C   UNL     1      -2.120  11.596  19.033  0.00  0.00    +0.000 A 
ENDBRANCH  21  22
ENDBRANCH  20  21
ENDBRANCH   4  20
TORSDOF 11
ENDMDL
MODEL 8
REMARK VINA RESULT:      -7.0      5.017      7.980
REMARK  Name = 
REMARK  13 active torsions:
REMARK  status: ('A' for Active; 'I' for Inactive)
REMARK    1  A    between atoms: C_1  and  C_2
REMARK    2  A    between atoms: C_2  and  C_3
REMARK    3  A    between atoms: C_2  and  N_4
REMARK    4  A    between atoms: N_4  and  C_5
REMARK    5  A    between atoms: C_5  and  C_6
REMARK    6  A    between atoms: C_6  and  O_7
REMARK    7  A    between atoms: C_6  and  C_8
REMARK    8  A    between atoms: C_8  and  O_9
REMARK    9  A    between atoms: O_9  and  C_10
REMARK   10  A    between atoms: C_10  and  C_12
REMARK   11  A    between atoms: C_15  and  O_16
REMARK   12  A    between atoms: O_16  and  C_17
REMARK   13  A    between atoms: C_17  and  C_18
REMARK                            x       y       z     vdW  Elec       q    Type
REMARK                         _______ _______ _______ _____ _____    ______ ____
ROOT
ATOM      1  C   UNL     1       2.581   7.663  18.596  0.00  0.00    +0.000 A 
ATOM      2  C   UNL     1       2.198   8.655  17.687  0.00  0.00    +0.000 A 
ATOM      3  C   UNL     1       1.261   9.622  18.053  0.00  0.00    +0.000 A 
ATOM      4  C   UNL     1       0.676   9.589  19.320  0.00  0.00    +0.000 A 
ATOM      5  C   UNL     1       1.110   8.646  20.254  0.00  0.00    +0.000 A 
ATOM      6  C   UNL     1       2.058   7.681  19.895  0.00  0.00    +0.000 A 
ENDROOT
BRANCH   1   7
ATOM      7  C   UNL     1       3.458   6.574  18.091  0.00  0.00    +0.000 C 
ATOM      8  O   UNL     1       4.150   6.683  17.094  0.00  0.00    +0.000 OA
BRANCH   7   9
ATOM      9  O   UNL     1       3.289   5.443  18.820  0.00  0.00    +0.000 OA
BRANCH   9  10
ATOM     10  C   UNL     1       4.476   4.950  19.457  0.00  0.00    +0.000 C 
BRANCH  10  11
ATOM     11  C   UNL     1       4.950   3.578  18.957  0.00  0.00    +0.000 C 
BRANCH  11  12
ATOM     12  O   UNL     1       4.967   3.578  17.518  0.00  0.00    +0.000 OA
ATOM     13  H   UNL     1       5.770   3.114  17.228  0.00  0.00    +0.000 HD
ENDBRANCH  11  12
BRANCH  11  14
ATOM     14  C   UNL     1       4.036   2.448  19.472  0.00  0.00    +0.000 C 
BRANCH  14  15
ATOM     15  N   UNL     1       3.103   2.955  20.484  0.00  0.00    +0.000 NA
ATOM     16  H   UNL     1       3.389   2.604  21.401  0.00  0.00    +0.000 HD
BRANCH  15  18
ATOM     17  C   UNL     1       0.861   3.890  20.462  0.00  0.00    +0.000 C 
ATOM     18  C   UNL     1       1.700   2.635  20.213  0.00  0.00    +0.000 C 
ATOM     19  C   UNL     1       1.488   2.160  18.773  0.00  0.00    +0.000 C 
ENDBRANCH  15  18
ENDBRANCH  14  15
ENDBRANCH  11  14
ENDBRANCH  10  11
ENDBRANCH   9  10
ENDBRANCH   7   9
ENDBRANCH   1   7
BRANCH   4  20
ATOM     20  O   UNL     1      -0.337  10.417  19.733  0.00  0.00    +0.000 OA
BRANCH  20  21
ATOM     21  C   UNL     1      -0.627  11.491  18.830  0.00  0.00    +0.000 C 
BRANCH  21  22
ATOM     22  C   UNL     1      -1.999  11.361  18.212  0.00  0.00    +0.000 A 
ATOM     23  C   UNL     1      -2.206  10.720  16.986  0.00  0.00    +0.000 A 
ATOM     24  C   UNL     1      -3.496  10.588  16.469  0.00  0.00    +0.000 A 
ATOM     25  C   UNL     1      -4.592  11.087  17.175  0.00  0.00    +0.000 A 
ATOM     26  C   UNL     1      -4.399  11.713  18.404  0.00  0.00    +0.000 A 
ATOM     27  C   UNL     1      -3.112  11.844  18.922  0.00  0.00    +0.000 A 
ENDBRANCH  21  22
ENDBRANCH  20  21
ENDBRANCH   4  20
TORSDOF 11
ENDMDL
MODEL 9
REMARK VINA RESULT:      -7.0      3.992      7.423
REMARK  Name = 
REMARK  13 active torsions:
REMARK  status: ('A' for Active; 'I' for Inactive)
REMARK    1  A    between atoms: C_1  and  C_2
REMARK    2  A    between atoms: C_2  and  C_3
REMARK    3  A    between atoms: C_2  and  N_4
REMARK    4  A    between atoms: N_4  and  C_5
REMARK    5  A    between atoms: C_5  and  C_6
REMARK    6  A    between atoms: C_6  and  O_7
REMARK    7  A    between atoms: C_6  and  C_8
REMARK    8  A    between atoms: C_8  and  O_9
REMARK    9  A    between atoms: O_9  and  C_10
REMARK   10  A    between atoms: C_10  and  C_12
REMARK   11  A    between atoms: C_15  and  O_16
REMARK   12  A    between atoms: O_16  and  C_17
REMARK   13  A    between atoms: C_17  and  C_18
REMARK                            x       y       z     vdW  Elec       q    Type
REMARK                         _______ _______ _______ _____ _____    ______ ____
ROOT
ATOM      1  C   UNL     1       3.354   5.131  18.901  0.00  0.00    +0.000 A 
ATOM      2  C   UNL     1       2.674   5.112  20.124  0.00  0.00    +0.000 A 
ATOM      3  C   UNL     1       1.949   6.227  20.545  0.00  0.00    +0.000 A 
ATOM      4  C   UNL     1       1.920   7.382  19.762  0.00  0.00    +0.000 A 
ATOM      5  C   UNL     1       2.536   7.379  18.509  0.00  0.00    +0.000 A 
ATOM      6  C   UNL     1       3.255   6.259  18.077  0.00  0.00    +0.000 A 
ENDROOT
BRANCH   1   7
ATOM      7  C   UNL     1       4.235   3.974  18.590  0.00  0.00    +0.000 C 
ATOM      8  O   UNL     1       3.923   3.088  17.813  0.00  0.00    +0.000 OA
BRANCH   7   9
ATOM      9  O   UNL     1       5.350   3.998  19.359  0.00  0.00    +0.000 OA
BRANCH   9  10
ATOM     10  C   UNL     1       6.018   5.267  19.421  0.00  0.00    +0.000 C 
BRANCH  10  11
ATOM     11  C   UNL     1       7.362   5.322  18.681  0.00  0.00    +0.000 C 
BRANCH  11  12
ATOM     12  O   UNL     1       8.420   5.521  19.635  0.00  0.00    +0.000 OA
ATOM     13  H   UNL     1       9.266   5.450  19.162  0.00  0.00    +0.000 HD
ENDBRANCH  11  12
BRANCH  11  14
ATOM     14  C   UNL     1       7.378   6.454  17.634  0.00  0.00    +0.000 C 
BRANCH  14  15
ATOM     15  N   UNL     1       7.542   5.908  16.282  0.00  0.00    +0.000 NA
ATOM     16  H   UNL     1       7.799   6.669  15.648  0.00  0.00    +0.000 HD
BRANCH  15  18
ATOM     17  C   UNL     1       5.276   6.205  15.460  0.00  0.00    +0.000 C 
ATOM     18  C   UNL     1       6.369   5.185  15.787  0.00  0.00    +0.000 C 
ATOM     19  C   UNL     1       6.687   4.363  14.535  0.00  0.00    +0.000 C 
ENDBRANCH  15  18
ENDBRANCH  14  15
ENDBRANCH  11  14
ENDBRANCH  10  11
ENDBRANCH   9  10
ENDBRANCH   7   9
ENDBRANCH   1   7
BRANCH   4  20
ATOM     20  O   UNL     1       1.340   8.566  20.140  0.00  0.00    +0.000 OA
BRANCH  20  21
ATOM     21  C   UNL     1       1.233   8.745  21.558  0.00  0.00    +0.000 C 
BRANCH  21  22
ATOM     22  C   UNL     1       0.422   9.967  21.918  0.00  0.00    +0.000 A 
ATOM     23  C   UNL     1       0.582  11.189  21.258  0.00  0.00    +0.000 A 
ATOM     24  C   UNL     1      -0.216  12.284  21.598  0.00  0.00    +0.000 A 
ATOM     25  C   UNL     1      -1.187  12.164  22.592  0.00  0.00    +0.000 A 
ATOM     26  C   UNL     1      -1.366  10.948  23.246  0.00  0.00    +0.000 A 
ATOM     27  C   UNL     1      -0.572   9.854  22.907  0.00  0.00    +0.000 A 
ENDBRANCH  21  22
ENDBRANCH  20  21
ENDBRANCH   4  20
TORSDOF 11
ENDMDL
