MODEL 1
REMARK VINA RESULT:      -7.1      0.000      0.000
REMARK  Name = 
REMARK  8 active torsions:
REMARK  status: ('A' for Active; 'I' for Inactive)
REMARK    1  A    between atoms: C_1  and  C_2
REMARK    2  A    between atoms: C_2  and  C_3
REMARK    3  A    between atoms: C_8  and  C_9
REMARK    4  A    between atoms: C_12  and  S_13
REMARK    5  A    between atoms: S_13  and  C_14
REMARK    6  A    between atoms: C_18  and  C_19
REMARK    7  A    between atoms: C_22  and  S_23
REMARK    8  A    between atoms: S_23  and  C_24
REMARK                            x       y       z     vdW  Elec       q    Type
REMARK                         _______ _______ _______ _____ _____    ______ ____
ROOT
ATOM      1  C   UNL     1       2.835  14.403  18.328  0.00  0.00    +0.000 C 
ATOM      2  O   UNL     1       2.601  14.741  19.486  0.00  0.00    +0.000 OA
ATOM      3  N   UNL     1       2.415  13.216  17.758  0.00  0.00    +0.000 N 
ATOM      4  C   UNL     1       1.648  12.287  18.472  0.00  0.00    +0.000 A 
ATOM      5  C   UNL     1       0.594  12.699  19.257  0.00  0.00    +0.000 A 
ATOM      6  C   UNL     1      -0.096  11.723  19.943  0.00  0.00    +0.000 A 
ATOM      7  N   UNL     1       0.274  10.428  19.866  0.00  0.00    +0.000 NA
ATOM      8  C   UNL     1       1.319  10.118  19.073  0.00  0.00    +0.000 A 
ATOM      9  N   UNL     1       1.994  11.005  18.319  0.00  0.00    +0.000 NA
ATOM     10  H   UNL     1       2.990  12.808  17.034  0.00  0.00    +0.000 HD
ENDROOT
BRANCH   6  11
ATOM     11  C   UNL     1      -1.287  12.022  20.769  0.00  0.00    +0.000 A 
ATOM     12  C   UNL     1      -2.461  12.536  20.191  0.00  0.00    +0.000 A 
ATOM     13  C   UNL     1      -3.578  12.869  20.971  0.00  0.00    +0.000 A 
ATOM     14  C   UNL     1      -3.564  12.689  22.356  0.00  0.00    +0.000 A 
ATOM     15  C   UNL     1      -2.407  12.179  22.945  0.00  0.00    +0.000 A 
ATOM     16  C   UNL     1      -1.294  11.842  22.163  0.00  0.00    +0.000 A 
BRANCH  14  17
ATOM     17  S   UNL     1      -5.007  13.180  23.286  0.00  0.00    +0.000 S 
ATOM     18  C   UNL     1      -4.757  12.315  24.862  0.00  0.00    +0.000 C 
ENDBRANCH  14  17
ENDBRANCH   6  11
BRANCH   8  19
ATOM     19  C   UNL     1       1.778   8.715  19.062  0.00  0.00    +0.000 A 
ATOM     20  C   UNL     1       1.650   7.888  20.191  0.00  0.00    +0.000 A 
ATOM     21  C   UNL     1       2.087   6.556  20.184  0.00  0.00    +0.000 A 
ATOM     22  C   UNL     1       2.667   6.000  19.037  0.00  0.00    +0.000 A 
ATOM     23  C   UNL     1       2.833   6.814  17.921  0.00  0.00    +0.000 A 
ATOM     24  C   UNL     1       2.393   8.144  17.929  0.00  0.00    +0.000 A 
BRANCH  22  25
ATOM     25  S   UNL     1       3.218   4.303  19.125  0.00  0.00    +0.000 S 
ATOM     26  C   UNL     1       1.853   3.420  18.321  0.00  0.00    +0.000 C 
ENDBRANCH  22  25
ENDBRANCH   8  19
BRANCH   1  28
ATOM     27  C   UNL     1       3.001  16.666  17.255  0.00  0.00    +0.000 C 
ATOM     28  C   UNL     1       3.613  15.279  17.367  0.00  0.00    +0.000 C 
ENDBRANCH   1  28
TORSDOF 5
ENDMDL
MODEL 2
REMARK VINA RESULT:      -7.0      1.643      2.394
REMARK  Name = 
REMARK  8 active torsions:
REMARK  status: ('A' for Active; 'I' for Inactive)
REMARK    1  A    between atoms: C_1  and  C_2
REMARK    2  A    between atoms: C_2  and  C_3
REMARK    3  A    between atoms: C_8  and  C_9
REMARK    4  A    between atoms: C_12  and  S_13
REMARK    5  A    between atoms: S_13  and  C_14
REMARK    6  A    between atoms: C_18  and  C_19
REMARK    7  A    between atoms: C_22  and  S_23
REMARK    8  A    between atoms: S_23  and  C_24
REMARK                            x       y       z     vdW  Elec       q    Type
REMARK                         _______ _______ _______ _____ _____    ______ ____
ROOT
ATOM      1  C   UNL     1       2.713  14.641  18.519  0.00  0.00    +0.000 C 
ATOM      2  O   UNL     1       1.999  14.944  19.471  0.00  0.00    +0.000 OA
ATOM      3  N   UNL     1       2.651  13.436  17.845  0.00  0.00    +0.000 N 
ATOM      4  C   UNL     1       1.725  12.445  18.193  0.00  0.00    +0.000 A 
ATOM      5  C   UNL     1       0.415  12.770  18.465  0.00  0.00    +0.000 A 
ATOM      6  C   UNL     1      -0.426  11.737  18.820  0.00  0.00    +0.000 A 
ATOM      7  N   UNL     1       0.033  10.473  18.923  0.00  0.00    +0.000 NA
ATOM      8  C   UNL     1       1.331  10.250  18.638  0.00  0.00    +0.000 A 
ATOM      9  N   UNL     1       2.193  11.193  18.216  0.00  0.00    +0.000 NA
ATOM     10  H   UNL     1       3.501  13.081  17.429  0.00  0.00    +0.000 HD
ENDROOT
BRANCH   6  11
ATOM     11  C   UNL     1      -1.870  11.939  19.075  0.00  0.00    +0.000 A 
ATOM     12  C   UNL     1      -2.840  11.473  18.170  0.00  0.00    +0.000 A 
ATOM     13  C   UNL     1      -4.208  11.703  18.378  0.00  0.00    +0.000 A 
ATOM     14  C   UNL     1      -4.654  12.396  19.505  0.00  0.00    +0.000 A 
ATOM     15  C   UNL     1      -3.705  12.864  20.414  0.00  0.00    +0.000 A 
ATOM     16  C   UNL     1      -2.339  12.629  20.207  0.00  0.00    +0.000 A 
BRANCH  14  17
ATOM     17  S   UNL     1      -6.408  12.689  19.676  0.00  0.00    +0.000 S 
ATOM     18  C   UNL     1      -7.091  11.710  18.310  0.00  0.00    +0.000 C 
ENDBRANCH  14  17
ENDBRANCH   6  11
BRANCH   8  19
ATOM     19  C   UNL     1       1.851   8.883  18.839  0.00  0.00    +0.000 A 
ATOM     20  C   UNL     1       2.586   8.219  17.842  0.00  0.00    +0.000 A 
ATOM     21  C   UNL     1       3.079   6.920  18.030  0.00  0.00    +0.000 A 
ATOM     22  C   UNL     1       2.854   6.236  19.232  0.00  0.00    +0.000 A 
ATOM     23  C   UNL     1       2.099   6.865  20.217  0.00  0.00    +0.000 A 
ATOM     24  C   UNL     1       1.611   8.165  20.028  0.00  0.00    +0.000 A 
BRANCH  22  25
ATOM     25  S   UNL     1       3.496   4.576  19.375  0.00  0.00    +0.000 S 
ATOM     26  C   UNL     1       5.273   4.833  19.115  0.00  0.00    +0.000 C 
ENDBRANCH  22  25
ENDBRANCH   8  19
BRANCH   1  28
ATOM     27  C   UNL     1       5.116  14.913  17.843  0.00  0.00    +0.000 C 
ATOM     28  C   UNL     1       3.755  15.584  17.952  0.00  0.00    +0.000 C 
ENDBRANCH   1  28
TORSDOF 5
ENDMDL
MODEL 3
REMARK VINA RESULT:      -6.9      0.631      1.127
REMARK  Name = 
REMARK  8 active torsions:
REMARK  status: ('A' for Active; 'I' for Inactive)
REMARK    1  A    between atoms: C_1  and  C_2
REMARK    2  A    between atoms: C_2  and  C_3
REMARK    3  A    between atoms: C_8  and  C_9
REMARK    4  A    between atoms: C_12  and  S_13
REMARK    5  A    between atoms: S_13  and  C_14
REMARK    6  A    between atoms: C_18  and  C_19
REMARK    7  A    between atoms: C_22  and  S_23
REMARK    8  A    between atoms: S_23  and  C_24
REMARK                            x       y       z     vdW  Elec       q    Type
REMARK                         _______ _______ _______ _____ _____    ______ ____
ROOT
ATOM      1  C   UNL     1       2.701  14.416  18.376  0.00  0.00    +0.000 C 
ATOM      2  O   UNL     1       2.494  14.759  19.537  0.00  0.00    +0.000 OA
ATOM      3  N   UNL     1       2.275  13.223  17.823  0.00  0.00    +0.000 N 
ATOM      4  C   UNL     1       1.532  12.293  18.561  0.00  0.00    +0.000 A 
ATOM      5  C   UNL     1       0.495  12.703  19.369  0.00  0.00    +0.000 A 
ATOM      6  C   UNL     1      -0.172  11.727  20.077  0.00  0.00    +0.000 A 
ATOM      7  N   UNL     1       0.205  10.434  19.999  0.00  0.00    +0.000 NA
ATOM      8  C   UNL     1       1.232  10.126  19.182  0.00  0.00    +0.000 A 
ATOM      9  N   UNL     1       1.882  11.013  18.407  0.00  0.00    +0.000 NA
ATOM     10  H   UNL     1       2.835  12.815  17.087  0.00  0.00    +0.000 HD
ENDROOT
BRANCH   6  11
ATOM     11  C   UNL     1      -1.345  12.024  20.930  0.00  0.00    +0.000 A 
ATOM     12  C   UNL     1      -2.499  12.623  20.396  0.00  0.00    +0.000 A 
ATOM     13  C   UNL     1      -3.596  12.953  21.204  0.00  0.00    +0.000 A 
ATOM     14  C   UNL     1      -3.582  12.685  22.575  0.00  0.00    +0.000 A 
ATOM     15  C   UNL     1      -2.445  12.088  23.121  0.00  0.00    +0.000 A 
ATOM     16  C   UNL     1      -1.352  11.755  22.310  0.00  0.00    +0.000 A 
BRANCH  14  17
ATOM     17  S   UNL     1      -4.997  13.177  23.546  0.00  0.00    +0.000 S 
ATOM     18  C   UNL     1      -4.868  14.986  23.517  0.00  0.00    +0.000 C 
ENDBRANCH  14  17
ENDBRANCH   6  11
BRANCH   8  19
ATOM     19  C   UNL     1       1.699   8.726  19.168  0.00  0.00    +0.000 A 
ATOM     20  C   UNL     1       2.215   8.132  18.004  0.00  0.00    +0.000 A 
ATOM     21  C   UNL     1       2.657   6.802  17.987  0.00  0.00    +0.000 A 
ATOM     22  C   UNL     1       2.601   6.015  19.145  0.00  0.00    +0.000 A 
ATOM     23  C   UNL     1       2.062   6.575  20.298  0.00  0.00    +0.000 A 
ATOM     24  C   UNL     1       1.623   7.907  20.313  0.00  0.00    +0.000 A 
BRANCH  22  25
ATOM     25  S   UNL     1       3.162   4.324  19.026  0.00  0.00    +0.000 S 
ATOM     26  C   UNL     1       1.717   3.403  19.623  0.00  0.00    +0.000 C 
ENDBRANCH  22  25
ENDBRANCH   8  19
BRANCH   1  28
ATOM     27  C   UNL     1       2.926  16.718  17.401  0.00  0.00    +0.000 C 
ATOM     28  C   UNL     1       3.450  15.291  17.391  0.00  0.00    +0.000 C 
ENDBRANCH   1  28
TORSDOF 5
ENDMDL
MODEL 4
REMARK VINA RESULT:      -6.9      2.214      2.706
REMARK  Name = 
REMARK  8 active torsions:
REMARK  status: ('A' for Active; 'I' for Inactive)
REMARK    1  A    between atoms: C_1  and  C_2
REMARK    2  A    between atoms: C_2  and  C_3
REMARK    3  A    between atoms: C_8  and  C_9
REMARK    4  A    between atoms: C_12  and  S_13
REMARK    5  A    between atoms: S_13  and  C_14
REMARK    6  A    between atoms: C_18  and  C_19
REMARK    7  A    between atoms: C_22  and  S_23
REMARK    8  A    between atoms: S_23  and  C_24
REMARK                            x       y       z     vdW  Elec       q    Type
REMARK                         _______ _______ _______ _____ _____    ______ ____
ROOT
ATOM      1  C   UNL     1       1.807  14.978  19.384  0.00  0.00    +0.000 C 
ATOM      2  O   UNL     1       0.866  15.094  20.166  0.00  0.00    +0.000 OA
ATOM      3  N   UNL     1       2.033  13.870  18.589  0.00  0.00    +0.000 N 
ATOM      4  C   UNL     1       1.167  12.770  18.596  0.00  0.00    +0.000 A 
ATOM      5  C   UNL     1      -0.199  12.948  18.581  0.00  0.00    +0.000 A 
ATOM      6  C   UNL     1      -0.979  11.813  18.610  0.00  0.00    +0.000 A 
ATOM      7  N   UNL     1      -0.419  10.588  18.682  0.00  0.00    +0.000 NA
ATOM      8  C   UNL     1       0.926  10.511  18.693  0.00  0.00    +0.000 A 
ATOM      9  N   UNL     1       1.752  11.568  18.594  0.00  0.00    +0.000 NA
ATOM     10  H   UNL     1       2.989  13.644  18.352  0.00  0.00    +0.000 HD
ENDROOT
BRANCH   6  11
ATOM     11  C   UNL     1      -2.457  11.861  18.533  0.00  0.00    +0.000 A 
ATOM     12  C   UNL     1      -3.223  12.356  19.603  0.00  0.00    +0.000 A 
ATOM     13  C   UNL     1      -4.625  12.361  19.561  0.00  0.00    +0.000 A 
ATOM     14  C   UNL     1      -5.309  11.881  18.441  0.00  0.00    +0.000 A 
ATOM     15  C   UNL     1      -4.563  11.387  17.370  0.00  0.00    +0.000 A 
ATOM     16  C   UNL     1      -3.163  11.389  17.413  0.00  0.00    +0.000 A 
BRANCH  14  17
ATOM     17  S   UNL     1      -7.095  11.877  18.481  0.00  0.00    +0.000 S 
ATOM     18  C   UNL     1      -7.436  11.255  20.151  0.00  0.00    +0.000 C 
ENDBRANCH  14  17
ENDBRANCH   6  11
BRANCH   8  19
ATOM     19  C   UNL     1       1.534   9.176  18.863  0.00  0.00    +0.000 A 
ATOM     20  C   UNL     1       1.435   8.469  20.073  0.00  0.00    +0.000 A 
ATOM     21  C   UNL     1       2.014   7.203  20.238  0.00  0.00    +0.000 A 
ATOM     22  C   UNL     1       2.713   6.593  19.188  0.00  0.00    +0.000 A 
ATOM     23  C   UNL     1       2.850   7.293  17.994  0.00  0.00    +0.000 A 
ATOM     24  C   UNL     1       2.268   8.558  17.830  0.00  0.00    +0.000 A 
BRANCH  22  25
ATOM     25  S   UNL     1       3.438   4.991  19.494  0.00  0.00    +0.000 S 
ATOM     26  C   UNL     1       5.198   5.305  19.184  0.00  0.00    +0.000 C 
ENDBRANCH  22  25
ENDBRANCH   8  19
BRANCH   1  28
ATOM     27  C   UNL     1       2.594  17.245  20.120  0.00  0.00    +0.000 C 
ATOM     28  C   UNL     1       2.841  16.069  19.188  0.00  0.00    +0.000 C 
ENDBRANCH   1  28
TORSDOF 5
ENDMDL
MODEL 5
REMARK VINA RESULT:      -6.9      0.834      1.007
REMARK  Name = 
REMARK  8 active torsions:
REMARK  status: ('A' for Active; 'I' for Inactive)
REMARK    1  A    between atoms: C_1  and  C_2
REMARK    2  A    between atoms: C_2  and  C_3
REMARK    3  A    between atoms: C_8  and  C_9
REMARK    4  A    between atoms: C_12  and  S_13
REMARK    5  A    between atoms: S_13  and  C_14
REMARK    6  A    between atoms: C_18  and  C_19
REMARK    7  A    between atoms: C_22  and  S_23
REMARK    8  A    between atoms: S_23  and  C_24
REMARK                            x       y       z     vdW  Elec       q    Type
REMARK                         _______ _______ _______ _____ _____    ______ ____
ROOT
ATOM      1  C   UNL     1       2.945  14.339  18.511  0.00  0.00    +0.000 C 
ATOM      2  O   UNL     1       2.633  14.680  19.649  0.00  0.00    +0.000 OA
ATOM      3  N   UNL     1       2.545  13.161  17.909  0.00  0.00    +0.000 N 
ATOM      4  C   UNL     1       1.709  12.247  18.561  0.00  0.00    +0.000 A 
ATOM      5  C   UNL     1       0.608  12.679  19.266  0.00  0.00    +0.000 A 
ATOM      6  C   UNL     1      -0.151  11.717  19.896  0.00  0.00    +0.000 A 
ATOM      7  N   UNL     1       0.198  10.415  19.844  0.00  0.00    +0.000 NA
ATOM      8  C   UNL     1       1.293  10.085  19.131  0.00  0.00    +0.000 A 
ATOM      9  N   UNL     1       2.039  10.959  18.431  0.00  0.00    +0.000 NA
ATOM     10  H   UNL     1       3.164  12.742  17.228  0.00  0.00    +0.000 HD
ENDROOT
BRANCH   6  11
ATOM     11  C   UNL     1      -1.394  12.039  20.632  0.00  0.00    +0.000 A 
ATOM     12  C   UNL     1      -2.537  12.505  19.959  0.00  0.00    +0.000 A 
ATOM     13  C   UNL     1      -3.703  12.860  20.651  0.00  0.00    +0.000 A 
ATOM     14  C   UNL     1      -3.771  12.751  22.042  0.00  0.00    +0.000 A 
ATOM     15  C   UNL     1      -2.646  12.289  22.726  0.00  0.00    +0.000 A 
ATOM     16  C   UNL     1      -1.484  11.930  22.031  0.00  0.00    +0.000 A 
BRANCH  14  17
ATOM     17  S   UNL     1      -5.275  13.266  22.856  0.00  0.00    +0.000 S 
ATOM     18  C   UNL     1      -4.717  14.706  23.809  0.00  0.00    +0.000 C 
ENDBRANCH  14  17
ENDBRANCH   6  11
BRANCH   8  19
ATOM     19  C   UNL     1       1.723   8.673  19.150  0.00  0.00    +0.000 A 
ATOM     20  C   UNL     1       1.604   7.882  20.306  0.00  0.00    +0.000 A 
ATOM     21  C   UNL     1       2.014   6.541  20.327  0.00  0.00    +0.000 A 
ATOM     22  C   UNL     1       2.557   5.940  19.184  0.00  0.00    +0.000 A 
ATOM     23  C   UNL     1       2.713   6.718  18.042  0.00  0.00    +0.000 A 
ATOM     24  C   UNL     1       2.300   8.057  18.021  0.00  0.00    +0.000 A 
BRANCH  22  25
ATOM     25  S   UNL     1       3.075   4.236  19.309  0.00  0.00    +0.000 S 
ATOM     26  C   UNL     1       4.872   4.370  19.103  0.00  0.00    +0.000 C 
ENDBRANCH  22  25
ENDBRANCH   8  19
BRANCH   1  28
ATOM     27  C   UNL     1       5.289  14.910  17.817  0.00  0.00    +0.000 C 
ATOM     28  C   UNL     1       3.811  15.200  17.613  0.00  0.00    +0.000 C 
ENDBRANCH   1  28
TORSDOF 5
ENDMDL
MODEL 6
REMARK VINA RESULT:      -6.8      0.878      1.405
REMARK  Name = 
REMARK  8 active torsions:
REMARK  status: ('A' for Active; 'I' for Inactive)
REMARK    1  A    between atoms: C_1  and  C_2
REMARK    2  A    between atoms: C_2  and  C_3
REMARK    3  A    between atoms: C_8  and  C_9
REMARK    4  A    between atoms: C_12  and  S_13
REMARK    5  A    between atoms: S_13  and  C_14
REMARK    6  A    between atoms: C_18  and  C_19
REMARK    7  A    between atoms: C_22  and  S_23
REMARK    8  A    between atoms: S_23  and  C_24
REMARK                            x       y       z     vdW  Elec       q    Type
REMARK                         _______ _______ _______ _____ _____    ______ ____
ROOT
ATOM      1  C   UNL     1       3.113  14.157  18.472  0.00  0.00    +0.000 C 
ATOM      2  O   UNL     1       2.897  14.489  19.635  0.00  0.00    +0.000 OA
ATOM      3  N   UNL     1       2.646  12.994  17.889  0.00  0.00    +0.000 N 
ATOM      4  C   UNL     1       1.847  12.086  18.595  0.00  0.00    +0.000 A 
ATOM      5  C   UNL     1       0.813  12.528  19.389  0.00  0.00    +0.000 A 
ATOM      6  C   UNL     1       0.089  11.569  20.065  0.00  0.00    +0.000 A 
ATOM      7  N   UNL     1       0.410  10.263  19.970  0.00  0.00    +0.000 NA
ATOM      8  C   UNL     1       1.439   9.924  19.169  0.00  0.00    +0.000 A 
ATOM      9  N   UNL     1       2.144  10.794  18.423  0.00  0.00    +0.000 NA
ATOM     10  H   UNL     1       3.202  12.575  17.157  0.00  0.00    +0.000 HD
ENDROOT
BRANCH   6  11
ATOM     11  C   UNL     1      -1.087  11.903  20.901  0.00  0.00    +0.000 A 
ATOM     12  C   UNL     1      -2.168  12.631  20.375  0.00  0.00    +0.000 A 
ATOM     13  C   UNL     1      -3.264  12.995  21.170  0.00  0.00    +0.000 A 
ATOM     14  C   UNL     1      -3.322  12.632  22.518  0.00  0.00    +0.000 A 
ATOM     15  C   UNL     1      -2.258  11.908  23.055  0.00  0.00    +0.000 A 
ATOM     16  C   UNL     1      -1.166  11.542  22.257  0.00  0.00    +0.000 A 
BRANCH  14  17
ATOM     17  S   UNL     1      -4.729  13.172  23.477  0.00  0.00    +0.000 S 
ATOM     18  C   UNL     1      -6.097  12.938  22.309  0.00  0.00    +0.000 C 
ENDBRANCH  14  17
ENDBRANCH   6  11
BRANCH   8  19
ATOM     19  C   UNL     1       1.844   8.505  19.138  0.00  0.00    +0.000 A 
ATOM     20  C   UNL     1       2.350   7.908  17.971  0.00  0.00    +0.000 A 
ATOM     21  C   UNL     1       2.733   6.559  17.938  0.00  0.00    +0.000 A 
ATOM     22  C   UNL     1       2.625   5.757  19.082  0.00  0.00    +0.000 A 
ATOM     23  C   UNL     1       2.094   6.322  20.236  0.00  0.00    +0.000 A 
ATOM     24  C   UNL     1       1.715   7.671  20.268  0.00  0.00    +0.000 A 
BRANCH  22  25
ATOM     25  S   UNL     1       3.113   4.044  18.943  0.00  0.00    +0.000 S 
ATOM     26  C   UNL     1       4.920   4.171  18.855  0.00  0.00    +0.000 C 
ENDBRANCH  22  25
ENDBRANCH   8  19
BRANCH   1  28
ATOM     27  C   UNL     1       5.406  14.960  17.838  0.00  0.00    +0.000 C 
ATOM     28  C   UNL     1       3.920  15.016  17.518  0.00  0.00    +0.000 C 
ENDBRANCH   1  28
TORSDOF 5
ENDMDL
MODEL 7
REMARK VINA RESULT:      -6.8      2.179      2.792
REMARK  Name = 
REMARK  8 active torsions:
REMARK  status: ('A' for Active; 'I' for Inactive)
REMARK    1  A    between atoms: C_1  and  C_2
REMARK    2  A    between atoms: C_2  and  C_3
REMARK    3  A    between atoms: C_8  and  C_9
REMARK    4  A    between atoms: C_12  and  S_13
REMARK    5  A    between atoms: S_13  and  C_14
REMARK    6  A    between atoms: C_18  and  C_19
REMARK    7  A    between atoms: C_22  and  S_23
REMARK    8  A    between atoms: S_23  and  C_24
REMARK                            x       y       z     vdW  Elec       q    Type
REMARK                         _______ _______ _______ _____ _____    ______ ____
ROOT
ATOM      1  C   UNL     1       2.035  14.762  19.029  0.00  0.00    +0.000 C 
ATOM      2  O   UNL     1       1.102  14.947  19.807  0.00  0.00    +0.000 OA
ATOM      3  N   UNL     1       2.233  13.602  18.304  0.00  0.00    +0.000 N 
ATOM      4  C   UNL     1       1.344  12.522  18.385  0.00  0.00    +0.000 A 
ATOM      5  C   UNL     1      -0.017  12.728  18.366  0.00  0.00    +0.000 A 
ATOM      6  C   UNL     1      -0.821  11.613  18.471  0.00  0.00    +0.000 A 
ATOM      7  N   UNL     1      -0.286  10.384  18.618  0.00  0.00    +0.000 NA
ATOM      8  C   UNL     1       1.058  10.279  18.626  0.00  0.00    +0.000 A 
ATOM      9  N   UNL     1       1.905  11.311  18.456  0.00  0.00    +0.000 NA
ATOM     10  H   UNL     1       3.182  13.340  18.077  0.00  0.00    +0.000 HD
ENDROOT
BRANCH   6  11
ATOM     11  C   UNL     1      -2.298  11.688  18.399  0.00  0.00    +0.000 A 
ATOM     12  C   UNL     1      -3.048  12.251  19.446  0.00  0.00    +0.000 A 
ATOM     13  C   UNL     1      -4.450  12.282  19.410  0.00  0.00    +0.000 A 
ATOM     14  C   UNL     1      -5.150  11.761  18.319  0.00  0.00    +0.000 A 
ATOM     15  C   UNL     1      -4.420  11.200  17.271  0.00  0.00    +0.000 A 
ATOM     16  C   UNL     1      -3.020  11.175  17.307  0.00  0.00    +0.000 A 
BRANCH  14  17
ATOM     17  S   UNL     1      -6.935  11.795  18.368  0.00  0.00    +0.000 S 
ATOM     18  C   UNL     1      -7.273  11.505  20.127  0.00  0.00    +0.000 C 
ENDBRANCH  14  17
ENDBRANCH   6  11
BRANCH   8  19
ATOM     19  C   UNL     1       1.639   8.946  18.877  0.00  0.00    +0.000 A 
ATOM     20  C   UNL     1       2.360   8.257  17.887  0.00  0.00    +0.000 A 
ATOM     21  C   UNL     1       2.910   6.989  18.122  0.00  0.00    +0.000 A 
ATOM     22  C   UNL     1       2.761   6.364  19.367  0.00  0.00    +0.000 A 
ATOM     23  C   UNL     1       2.021   7.016  20.348  0.00  0.00    +0.000 A 
ATOM     24  C   UNL     1       1.474   8.284  20.112  0.00  0.00    +0.000 A 
BRANCH  22  25
ATOM     25  S   UNL     1       3.473   4.739  19.570  0.00  0.00    +0.000 S 
ATOM     26  C   UNL     1       4.897   4.807  18.448  0.00  0.00    +0.000 C 
ENDBRANCH  22  25
ENDBRANCH   8  19
BRANCH   1  28
ATOM     27  C   UNL     1       4.459  15.376  19.253  0.00  0.00    +0.000 C 
ATOM     28  C   UNL     1       3.090  15.816  18.759  0.00  0.00    +0.000 C 
ENDBRANCH   1  28
TORSDOF 5
ENDMDL
MODEL 8
REMARK VINA RESULT:      -6.7      2.254      2.641
REMARK  Name = 
REMARK  8 active torsions:
REMARK  status: ('A' for Active; 'I' for Inactive)
REMARK    1  A    between atoms: C_1  and  C_2
REMARK    2  A    between atoms: C_2  and  C_3
REMARK    3  A    between atoms: C_8  and  C_9
REMARK    4  A    between atoms: C_12  and  S_13
REMARK    5  A    between atoms: S_13  and  C_14
REMARK    6  A    between atoms: C_18  and  C_19
REMARK    7  A    between atoms: C_22  and  S_23
REMARK    8  A    between atoms: S_23  and  C_24
REMARK                            x       y       z     vdW  Elec       q    Type
REMARK                         _______ _______ _______ _____ _____    ______ ____
ROOT
ATOM      1  C   UNL     1       2.662  14.042  18.881  0.00  0.00    +0.000 C 
ATOM      2  O   UNL     1       1.753  14.188  19.695  0.00  0.00    +0.000 OA
ATOM      3  N   UNL     1       2.842  12.915  18.102  0.00  0.00    +0.000 N 
ATOM      4  C   UNL     1       1.964  11.826  18.167  0.00  0.00    +0.000 A 
ATOM      5  C   UNL     1       0.602  12.022  18.201  0.00  0.00    +0.000 A 
ATOM      6  C   UNL     1      -0.191  10.897  18.286  0.00  0.00    +0.000 A 
ATOM      7  N   UNL     1       0.357   9.667  18.364  0.00  0.00    +0.000 NA
ATOM      8  C   UNL     1       1.701   9.573  18.325  0.00  0.00    +0.000 A 
ATOM      9  N   UNL     1       2.535  10.617  18.170  0.00  0.00    +0.000 NA
ATOM     10  H   UNL     1       3.786  12.671  17.834  0.00  0.00    +0.000 HD
ENDROOT
BRANCH   6  11
ATOM     11  C   UNL     1      -1.670  10.963  18.266  0.00  0.00    +0.000 A 
ATOM     12  C   UNL     1      -2.363  11.935  19.007  0.00  0.00    +0.000 A 
ATOM     13  C   UNL     1      -3.765  11.976  19.034  0.00  0.00    +0.000 A 
ATOM     14  C   UNL     1      -4.522  11.051  18.310  0.00  0.00    +0.000 A 
ATOM     15  C   UNL     1      -3.849  10.081  17.568  0.00  0.00    +0.000 A 
ATOM     16  C   UNL     1      -2.448  10.046  17.539  0.00  0.00    +0.000 A 
BRANCH  14  17
ATOM     17  S   UNL     1      -6.302  11.138  18.432  0.00  0.00    +0.000 S 
ATOM     18  C   UNL     1      -6.536  12.504  19.603  0.00  0.00    +0.000 C 
ENDBRANCH  14  17
ENDBRANCH   6  11
BRANCH   8  19
ATOM     19  C   UNL     1       2.298   8.235  18.501  0.00  0.00    +0.000 A 
ATOM     20  C   UNL     1       2.008   7.439  19.623  0.00  0.00    +0.000 A 
ATOM     21  C   UNL     1       2.576   6.169  19.794  0.00  0.00    +0.000 A 
ATOM     22  C   UNL     1       3.459   5.645  18.840  0.00  0.00    +0.000 A 
ATOM     23  C   UNL     1       3.784   6.433  17.740  0.00  0.00    +0.000 A 
ATOM     24  C   UNL     1       3.213   7.701  17.570  0.00  0.00    +0.000 A 
BRANCH  22  25
ATOM     25  S   UNL     1       4.155   4.030  19.151  0.00  0.00    +0.000 S 
ATOM     26  C   UNL     1       2.938   3.306  20.285  0.00  0.00    +0.000 C 
ENDBRANCH  22  25
ENDBRANCH   8  19
BRANCH   1  28
ATOM     27  C   UNL     1       4.932  14.546  17.935  0.00  0.00    +0.000 C 
ATOM     28  C   UNL     1       3.700  15.116  18.620  0.00  0.00    +0.000 C 
ENDBRANCH   1  28
TORSDOF 5
ENDMDL
MODEL 9
REMARK VINA RESULT:      -6.7      1.444      2.259
REMARK  Name = 
REMARK  8 active torsions:
REMARK  status: ('A' for Active; 'I' for Inactive)
REMARK    1  A    between atoms: C_1  and  C_2
REMARK    2  A    between atoms: C_2  and  C_3
REMARK    3  A    between atoms: C_8  and  C_9
REMARK    4  A    between atoms: C_12  and  S_13
REMARK    5  A    between atoms: S_13  and  C_14
REMARK    6  A    between atoms: C_18  and  C_19
REMARK    7  A    between atoms: C_22  and  S_23
REMARK    8  A    between atoms: S_23  and  C_24
REMARK                            x       y       z     vdW  Elec       q    Type
REMARK                         _______ _______ _______ _____ _____    ______ ____
ROOT
ATOM      1  C   UNL     1       2.789  14.440  18.402  0.00  0.00    +0.000 C 
ATOM      2  O   UNL     1       2.112  14.817  19.355  0.00  0.00    +0.000 OA
ATOM      3  N   UNL     1       2.655  13.212  17.782  0.00  0.00    +0.000 N 
ATOM      4  C   UNL     1       1.691  12.282  18.191  0.00  0.00    +0.000 A 
ATOM      5  C   UNL     1       0.405  12.681  18.476  0.00  0.00    +0.000 A 
ATOM      6  C   UNL     1      -0.476  11.705  18.892  0.00  0.00    +0.000 A 
ATOM      7  N   UNL     1      -0.075  10.426  19.040  0.00  0.00    +0.000 NA
ATOM      8  C   UNL     1       1.205  10.129  18.737  0.00  0.00    +0.000 A 
ATOM      9  N   UNL     1       2.100  11.011  18.257  0.00  0.00    +0.000 NA
ATOM     10  H   UNL     1       3.478  12.800  17.364  0.00  0.00    +0.000 HD
ENDROOT
BRANCH   6  11
ATOM     11  C   UNL     1      -1.902  11.987  19.169  0.00  0.00    +0.000 A 
ATOM     12  C   UNL     1      -2.291  12.716  20.306  0.00  0.00    +0.000 A 
ATOM     13  C   UNL     1      -3.642  12.946  20.604  0.00  0.00    +0.000 A 
ATOM     14  C   UNL     1      -4.652  12.465  19.767  0.00  0.00    +0.000 A 
ATOM     15  C   UNL     1      -4.283  11.741  18.633  0.00  0.00    +0.000 A 
ATOM     16  C   UNL     1      -2.933  11.516  18.336  0.00  0.00    +0.000 A 
BRANCH  14  17
ATOM     17  S   UNL     1      -6.350  12.759  20.238  0.00  0.00    +0.000 S 
ATOM     18  C   UNL     1      -7.149  13.027  18.631  0.00  0.00    +0.000 C 
ENDBRANCH  14  17
ENDBRANCH   6  11
BRANCH   8  19
ATOM     19  C   UNL     1       1.664   8.748  18.986  0.00  0.00    +0.000 A 
ATOM     20  C   UNL     1       2.232   7.965  17.966  0.00  0.00    +0.000 A 
ATOM     21  C   UNL     1       2.667   6.653  18.199  0.00  0.00    +0.000 A 
ATOM     22  C   UNL     1       2.550   6.075  19.470  0.00  0.00    +0.000 A 
ATOM     23  C   UNL     1       1.959   6.823  20.483  0.00  0.00    +0.000 A 
ATOM     24  C   UNL     1       1.528   8.136  20.249  0.00  0.00    +0.000 A 
BRANCH  22  25
ATOM     25  S   UNL     1       3.106   4.390  19.670  0.00  0.00    +0.000 S 
ATOM     26  C   UNL     1       1.745   3.451  18.925  0.00  0.00    +0.000 C 
ENDBRANCH  22  25
ENDBRANCH   8  19
BRANCH   1  28
ATOM     27  C   UNL     1       4.153  16.537  18.620  0.00  0.00    +0.000 C 
ATOM     28  C   UNL     1       3.861  15.308  17.774  0.00  0.00    +0.000 C 
ENDBRANCH   1  28
TORSDOF 5
ENDMDL
