MODEL 1
REMARK VINA RESULT:      -9.1      0.000      0.000
REMARK  Name = 
REMARK  4 active torsions:
REMARK  status: ('A' for Active; 'I' for Inactive)
REMARK    1  A    between atoms: C_15  and  S_16
REMARK    2  A    between atoms: S_16  and  C_17
REMARK    3  A    between atoms: C_17  and  C_18
REMARK    4  A    between atoms: C_22  and  N_23
REMARK                            x       y       z     vdW  Elec       q    Type
REMARK                         _______ _______ _______ _____ _____    ______ ____
ROOT
ATOM      1  O   UNL     1       0.314  12.304  18.590  0.00  0.00    +0.000 OA
ATOM      2  C   UNL     1       0.152  11.846  19.714  0.00  0.00    +0.000 C 
ATOM      3  C   UNL     1      -0.470  12.683  20.791  0.00  0.00    +0.000 A 
ATOM      4  C   UNL     1      -0.865  14.012  20.575  0.00  0.00    +0.000 A 
ATOM      5  C   UNL     1      -1.432  14.771  21.617  0.00  0.00    +0.000 A 
ATOM      6  C   UNL     1      -1.614  14.215  22.881  0.00  0.00    +0.000 A 
ATOM      7  C   UNL     1      -1.236  12.900  23.101  0.00  0.00    +0.000 A 
ATOM      8  C   UNL     1      -0.671  12.147  22.061  0.00  0.00    +0.000 A 
ATOM      9  C   UNL     1      -0.293  10.767  22.345  0.00  0.00    +0.000 C 
ATOM     10  O   UNL     1      -0.515  10.294  23.448  0.00  0.00    +0.000 OA
ATOM     11  C   UNL     1       0.356   9.956  21.314  0.00  0.00    +0.000 A 
ATOM     12  C   UNL     1       0.731   8.668  21.702  0.00  0.00    +0.000 A 
ATOM     13  C   UNL     1       1.360   7.905  20.743  0.00  0.00    +0.000 A 
ATOM     14  O   UNL     1       1.795   6.642  20.927  0.00  0.00    +0.000 OA
ATOM     15  C   UNL     1       2.314   6.263  19.722  0.00  0.00    +0.000 A 
ATOM     16  N   UNL     1       2.262   7.222  18.800  0.00  0.00    +0.000 NA
ATOM     17  C   UNL     1       1.632   8.292  19.446  0.00  0.00    +0.000 A 
ATOM     18  C   UNL     1       1.231   9.603  19.060  0.00  0.00    +0.000 A 
ATOM     19  C   UNL     1       0.589  10.443  20.024  0.00  0.00    +0.000 A 
ENDROOT
BRANCH  15  20
ATOM     20  S   UNL     1       2.771   4.592  19.534  0.00  0.00    +0.000 S 
BRANCH  20  21
ATOM     21  C   UNL     1       3.088   4.344  17.777  0.00  0.00    +0.000 C 
BRANCH  21  22
ATOM     22  C   UNL     1       4.568   4.559  17.467  0.00  0.00    +0.000 A 
ATOM     23  C   UNL     1       5.129   4.088  16.266  0.00  0.00    +0.000 A 
ATOM     24  C   UNL     1       6.498   4.226  15.997  0.00  0.00    +0.000 A 
ATOM     25  C   UNL     1       7.342   4.826  16.931  0.00  0.00    +0.000 A 
ATOM     26  C   UNL     1       6.801   5.292  18.133  0.00  0.00    +0.000 A 
ATOM     27  C   UNL     1       5.424   5.171  18.402  0.00  0.00    +0.000 A 
BRANCH  26  28
ATOM     28  N   UNL     1       7.691   5.897  19.134  0.00  0.00    +0.000 N 
ATOM     29  O   UNL     1       8.286   6.941  18.827  0.00  0.00    +0.000 OA
ATOM     30  O   UNL     1       7.795   5.327  20.229  0.00  0.00    +0.000 OA
ENDBRANCH  26  28
ENDBRANCH  21  22
ENDBRANCH  20  21
ENDBRANCH  15  20
TORSDOF 4
ENDMDL
MODEL 2
REMARK VINA RESULT:      -9.1      2.373      3.760
REMARK  Name = 
REMARK  4 active torsions:
REMARK  status: ('A' for Active; 'I' for Inactive)
REMARK    1  A    between atoms: C_15  and  S_16
REMARK    2  A    between atoms: S_16  and  C_17
REMARK    3  A    between atoms: C_17  and  C_18
REMARK    4  A    between atoms: C_22  and  N_23
REMARK                            x       y       z     vdW  Elec       q    Type
REMARK                         _______ _______ _______ _____ _____    ______ ____
ROOT
ATOM      1  O   UNL     1      -0.082   9.272  23.163  0.00  0.00    +0.000 OA
ATOM      2  C   UNL     1      -0.164   9.824  22.074  0.00  0.00    +0.000 C 
ATOM      3  C   UNL     1      -1.058  11.015  21.894  0.00  0.00    +0.000 A 
ATOM      4  C   UNL     1      -1.844  11.527  22.937  0.00  0.00    +0.000 A 
ATOM      5  C   UNL     1      -2.683  12.638  22.725  0.00  0.00    +0.000 A 
ATOM      6  C   UNL     1      -2.744  13.252  21.475  0.00  0.00    +0.000 A 
ATOM      7  C   UNL     1      -1.964  12.758  20.441  0.00  0.00    +0.000 A 
ATOM      8  C   UNL     1      -1.131  11.651  20.657  0.00  0.00    +0.000 A 
ATOM      9  C   UNL     1      -0.328  11.173  19.537  0.00  0.00    +0.000 C 
ATOM     10  O   UNL     1      -0.365  11.764  18.470  0.00  0.00    +0.000 OA
ATOM     11  C   UNL     1       0.513   9.985  19.688  0.00  0.00    +0.000 A 
ATOM     12  C   UNL     1       1.196   9.574  18.542  0.00  0.00    +0.000 A 
ATOM     13  C   UNL     1       1.974   8.444  18.672  0.00  0.00    +0.000 A 
ATOM     14  O   UNL     1       2.706   7.895  17.682  0.00  0.00    +0.000 OA
ATOM     15  C   UNL     1       3.339   6.829  18.254  0.00  0.00    +0.000 A 
ATOM     16  N   UNL     1       3.024   6.654  19.535  0.00  0.00    +0.000 NA
ATOM     17  C   UNL     1       2.147   7.705  19.825  0.00  0.00    +0.000 A 
ATOM     18  C   UNL     1       1.455   8.144  20.990  0.00  0.00    +0.000 A 
ATOM     19  C   UNL     1       0.619   9.301  20.904  0.00  0.00    +0.000 A 
ENDROOT
BRANCH  15  20
ATOM     20  S   UNL     1       4.553   6.013  17.307  0.00  0.00    +0.000 S 
BRANCH  20  21
ATOM     21  C   UNL     1       3.772   4.531  16.640  0.00  0.00    +0.000 C 
BRANCH  21  22
ATOM     22  C   UNL     1       3.012   3.791  17.737  0.00  0.00    +0.000 A 
ATOM     23  C   UNL     1       1.615   3.640  17.671  0.00  0.00    +0.000 A 
ATOM     24  C   UNL     1       0.899   3.014  18.701  0.00  0.00    +0.000 A 
ATOM     25  C   UNL     1       1.562   2.539  19.831  0.00  0.00    +0.000 A 
ATOM     26  C   UNL     1       2.950   2.688  19.917  0.00  0.00    +0.000 A 
ATOM     27  C   UNL     1       3.677   3.301  18.878  0.00  0.00    +0.000 A 
BRANCH  26  28
ATOM     28  N   UNL     1       3.650   2.217  21.119  0.00  0.00    +0.000 N 
ATOM     29  O   UNL     1       3.006   2.146  22.177  0.00  0.00    +0.000 OA
ATOM     30  O   UNL     1       4.847   1.918  21.007  0.00  0.00    +0.000 OA
ENDBRANCH  26  28
ENDBRANCH  21  22
ENDBRANCH  20  21
ENDBRANCH  15  20
TORSDOF 4
ENDMDL
MODEL 3
REMARK VINA RESULT:      -9.1      1.781      2.077
REMARK  Name = 
REMARK  4 active torsions:
REMARK  status: ('A' for Active; 'I' for Inactive)
REMARK    1  A    between atoms: C_15  and  S_16
REMARK    2  A    between atoms: S_16  and  C_17
REMARK    3  A    between atoms: C_17  and  C_18
REMARK    4  A    between atoms: C_22  and  N_23
REMARK                            x       y       z     vdW  Elec       q    Type
REMARK                         _______ _______ _______ _____ _____    ______ ____
ROOT
ATOM      1  O   UNL     1       0.180  12.054  18.452  0.00  0.00    +0.000 OA
ATOM      2  C   UNL     1       0.075  11.625  19.594  0.00  0.00    +0.000 C 
ATOM      3  C   UNL     1      -0.541  12.472  20.668  0.00  0.00    +0.000 A 
ATOM      4  C   UNL     1      -0.994  13.777  20.426  0.00  0.00    +0.000 A 
ATOM      5  C   UNL     1      -1.554  14.546  21.465  0.00  0.00    +0.000 A 
ATOM      6  C   UNL     1      -1.670  14.023  22.751  0.00  0.00    +0.000 A 
ATOM      7  C   UNL     1      -1.234  12.731  22.996  0.00  0.00    +0.000 A 
ATOM      8  C   UNL     1      -0.676  11.968  21.959  0.00  0.00    +0.000 A 
ATOM      9  C   UNL     1      -0.236  10.613  22.270  0.00  0.00    +0.000 C 
ATOM     10  O   UNL     1      -0.400  10.166  23.394  0.00  0.00    +0.000 OA
ATOM     11  C   UNL     1       0.408   9.795  21.241  0.00  0.00    +0.000 A 
ATOM     12  C   UNL     1       0.847   8.535  21.654  0.00  0.00    +0.000 A 
ATOM     13  C   UNL     1       1.471   7.767  20.696  0.00  0.00    +0.000 A 
ATOM     14  O   UNL     1       1.961   6.528  20.902  0.00  0.00    +0.000 OA
ATOM     15  C   UNL     1       2.452   6.132  19.690  0.00  0.00    +0.000 A 
ATOM     16  N   UNL     1       2.330   7.059  18.743  0.00  0.00    +0.000 NA
ATOM     17  C   UNL     1       1.682   8.124  19.379  0.00  0.00    +0.000 A 
ATOM     18  C   UNL     1       1.217   9.406  18.969  0.00  0.00    +0.000 A 
ATOM     19  C   UNL     1       0.578  10.250  19.930  0.00  0.00    +0.000 A 
ENDROOT
BRANCH  15  20
ATOM     20  S   UNL     1       2.967   4.474  19.535  0.00  0.00    +0.000 S 
BRANCH  20  21
ATOM     21  C   UNL     1       3.199   4.173  17.773  0.00  0.00    +0.000 C 
BRANCH  21  22
ATOM     22  C   UNL     1       4.669   4.333  17.394  0.00  0.00    +0.000 A 
ATOM     23  C   UNL     1       5.654   4.507  18.384  0.00  0.00    +0.000 A 
ATOM     24  C   UNL     1       6.998   4.715  18.046  0.00  0.00    +0.000 A 
ATOM     25  C   UNL     1       7.388   4.771  16.709  0.00  0.00    +0.000 A 
ATOM     26  C   UNL     1       6.420   4.609  15.713  0.00  0.00    +0.000 A 
ATOM     27  C   UNL     1       5.070   4.383  16.046  0.00  0.00    +0.000 A 
BRANCH  26  28
ATOM     28  N   UNL     1       6.819   4.698  14.301  0.00  0.00    +0.000 N 
ATOM     29  O   UNL     1       6.232   3.972  13.485  0.00  0.00    +0.000 OA
ATOM     30  O   UNL     1       7.722   5.494  14.009  0.00  0.00    +0.000 OA
ENDBRANCH  26  28
ENDBRANCH  21  22
ENDBRANCH  20  21
ENDBRANCH  15  20
TORSDOF 4
ENDMDL
MODEL 4
REMARK VINA RESULT:      -9.1      2.271      3.503
REMARK  Name = 
REMARK  4 active torsions:
REMARK  status: ('A' for Active; 'I' for Inactive)
REMARK    1  A    between atoms: C_15  and  S_16
REMARK    2  A    between atoms: S_16  and  C_17
REMARK    3  A    between atoms: C_17  and  C_18
REMARK    4  A    between atoms: C_22  and  N_23
REMARK                            x       y       z     vdW  Elec       q    Type
REMARK                         _______ _______ _______ _____ _____    ______ ____
ROOT
ATOM      1  O   UNL     1      -0.018   9.009  22.948  0.00  0.00    +0.000 OA
ATOM      2  C   UNL     1      -0.074   9.742  21.969  0.00  0.00    +0.000 C 
ATOM      3  C   UNL     1      -0.916  10.984  22.001  0.00  0.00    +0.000 A 
ATOM      4  C   UNL     1      -1.681  11.342  23.120  0.00  0.00    +0.000 A 
ATOM      5  C   UNL     1      -2.471  12.509  23.105  0.00  0.00    +0.000 A 
ATOM      6  C   UNL     1      -2.503  13.329  21.980  0.00  0.00    +0.000 A 
ATOM      7  C   UNL     1      -1.743  12.987  20.872  0.00  0.00    +0.000 A 
ATOM      8  C   UNL     1      -0.958  11.824  20.891  0.00  0.00    +0.000 A 
ATOM      9  C   UNL     1      -0.174  11.512  19.701  0.00  0.00    +0.000 C 
ATOM     10  O   UNL     1      -0.183  12.278  18.752  0.00  0.00    +0.000 OA
ATOM     11  C   UNL     1       0.615  10.280  19.643  0.00  0.00    +0.000 A 
ATOM     12  C   UNL     1       1.282  10.044  18.440  0.00  0.00    +0.000 A 
ATOM     13  C   UNL     1       2.012   8.876  18.371  0.00  0.00    +0.000 A 
ATOM     14  O   UNL     1       2.722   8.474  17.297  0.00  0.00    +0.000 OA
ATOM     15  C   UNL     1       3.307   7.299  17.675  0.00  0.00    +0.000 A 
ATOM     16  N   UNL     1       2.982   6.922  18.909  0.00  0.00    +0.000 NA
ATOM     17  C   UNL     1       2.150   7.944  19.380  0.00  0.00    +0.000 A 
ATOM     18  C   UNL     1       1.474   8.205  20.606  0.00  0.00    +0.000 A 
ATOM     19  C   UNL     1       0.689   9.395  20.724  0.00  0.00    +0.000 A 
ENDROOT
BRANCH  15  20
ATOM     20  S   UNL     1       4.487   6.607  16.597  0.00  0.00    +0.000 S 
BRANCH  20  21
ATOM     21  C   UNL     1       5.493   5.489  17.590  0.00  0.00    +0.000 C 
BRANCH  21  22
ATOM     22  C   UNL     1       4.678   4.267  18.006  0.00  0.00    +0.000 A 
ATOM     23  C   UNL     1       3.734   3.698  17.132  0.00  0.00    +0.000 A 
ATOM     24  C   UNL     1       2.937   2.613  17.524  0.00  0.00    +0.000 A 
ATOM     25  C   UNL     1       3.054   2.082  18.807  0.00  0.00    +0.000 A 
ATOM     26  C   UNL     1       3.982   2.641  19.691  0.00  0.00    +0.000 A 
ATOM     27  C   UNL     1       4.797   3.720  19.297  0.00  0.00    +0.000 A 
BRANCH  26  28
ATOM     28  N   UNL     1       4.088   2.104  21.055  0.00  0.00    +0.000 N 
ATOM     29  O   UNL     1       3.127   2.270  21.821  0.00  0.00    +0.000 OA
ATOM     30  O   UNL     1       5.135   1.518  21.362  0.00  0.00    +0.000 OA
ENDBRANCH  26  28
ENDBRANCH  21  22
ENDBRANCH  20  21
ENDBRANCH  15  20
TORSDOF 4
ENDMDL
MODEL 5
REMARK VINA RESULT:      -8.9      2.423      3.393
REMARK  Name = 
REMARK  4 active torsions:
REMARK  status: ('A' for Active; 'I' for Inactive)
REMARK    1  A    between atoms: C_15  and  S_16
REMARK    2  A    between atoms: S_16  and  C_17
REMARK    3  A    between atoms: C_17  and  C_18
REMARK    4  A    between atoms: C_22  and  N_23
REMARK                            x       y       z     vdW  Elec       q    Type
REMARK                         _______ _______ _______ _____ _____    ______ ____
ROOT
ATOM      1  O   UNL     1      -0.586  11.539  18.163  0.00  0.00    +0.000 OA
ATOM      2  C   UNL     1      -0.294  10.904  19.168  0.00  0.00    +0.000 C 
ATOM      3  C   UNL     1      -0.922  11.243  20.488  0.00  0.00    +0.000 A 
ATOM      4  C   UNL     1      -1.836  12.297  20.634  0.00  0.00    +0.000 A 
ATOM      5  C   UNL     1      -2.393  12.594  21.894  0.00  0.00    +0.000 A 
ATOM      6  C   UNL     1      -2.049  11.843  23.016  0.00  0.00    +0.000 A 
ATOM      7  C   UNL     1      -1.154  10.794  22.878  0.00  0.00    +0.000 A 
ATOM      8  C   UNL     1      -0.601  10.502  21.623  0.00  0.00    +0.000 A 
ATOM      9  C   UNL     1       0.334   9.386  21.532  0.00  0.00    +0.000 C 
ATOM     10  O   UNL     1       0.574   8.715  22.523  0.00  0.00    +0.000 OA
ATOM     11  C   UNL     1       0.987   9.075  20.259  0.00  0.00    +0.000 A 
ATOM     12  C   UNL     1       1.908   8.027  20.290  0.00  0.00    +0.000 A 
ATOM     13  C   UNL     1       2.541   7.741  19.100  0.00  0.00    +0.000 A 
ATOM     14  O   UNL     1       3.459   6.767  18.930  0.00  0.00    +0.000 OA
ATOM     15  C   UNL     1       3.788   6.814  17.605  0.00  0.00    +0.000 A 
ATOM     16  N   UNL     1       3.158   7.778  16.939  0.00  0.00    +0.000 NA
ATOM     17  C   UNL     1       2.333   8.382  17.895  0.00  0.00    +0.000 A 
ATOM     18  C   UNL     1       1.382   9.441  17.876  0.00  0.00    +0.000 A 
ATOM     19  C   UNL     1       0.709   9.789  19.089  0.00  0.00    +0.000 A 
ENDROOT
BRANCH  15  20
ATOM     20  S   UNL     1       4.796   5.536  16.983  0.00  0.00    +0.000 S 
BRANCH  20  21
ATOM     21  C   UNL     1       3.690   4.184  16.538  0.00  0.00    +0.000 C 
BRANCH  21  22
ATOM     22  C   UNL     1       2.907   3.711  17.760  0.00  0.00    +0.000 A 
ATOM     23  C   UNL     1       1.512   3.879  17.832  0.00  0.00    +0.000 A 
ATOM     24  C   UNL     1       0.790   3.504  18.974  0.00  0.00    +0.000 A 
ATOM     25  C   UNL     1       1.450   2.967  20.078  0.00  0.00    +0.000 A 
ATOM     26  C   UNL     1       2.837   2.801  20.026  0.00  0.00    +0.000 A 
ATOM     27  C   UNL     1       3.566   3.161  18.876  0.00  0.00    +0.000 A 
BRANCH  26  28
ATOM     28  N   UNL     1       3.541   2.264  21.199  0.00  0.00    +0.000 N 
ATOM     29  O   UNL     1       2.912   2.176  22.264  0.00  0.00    +0.000 OA
ATOM     30  O   UNL     1       4.726   1.932  21.056  0.00  0.00    +0.000 OA
ENDBRANCH  26  28
ENDBRANCH  21  22
ENDBRANCH  20  21
ENDBRANCH  15  20
TORSDOF 4
ENDMDL
MODEL 6
REMARK VINA RESULT:      -8.9      0.811      1.047
REMARK  Name = 
REMARK  4 active torsions:
REMARK  status: ('A' for Active; 'I' for Inactive)
REMARK    1  A    between atoms: C_15  and  S_16
REMARK    2  A    between atoms: S_16  and  C_17
REMARK    3  A    between atoms: C_17  and  C_18
REMARK    4  A    between atoms: C_22  and  N_23
REMARK                            x       y       z     vdW  Elec       q    Type
REMARK                         _______ _______ _______ _____ _____    ______ ____
ROOT
ATOM      1  O   UNL     1      -0.446  12.059  18.379  0.00  0.00    +0.000 OA
ATOM      2  C   UNL     1      -0.380  11.665  19.536  0.00  0.00    +0.000 C 
ATOM      3  C   UNL     1      -0.974  12.480  20.648  0.00  0.00    +0.000 A 
ATOM      4  C   UNL     1      -1.595  13.717  20.422  0.00  0.00    +0.000 A 
ATOM      5  C   UNL     1      -2.127  14.459  21.494  0.00  0.00    +0.000 A 
ATOM      6  C   UNL     1      -2.047  13.977  22.799  0.00  0.00    +0.000 A 
ATOM      7  C   UNL     1      -1.443  12.751  23.030  0.00  0.00    +0.000 A 
ATOM      8  C   UNL     1      -0.914  12.015  21.959  0.00  0.00    +0.000 A 
ATOM      9  C   UNL     1      -0.291  10.730  22.257  0.00  0.00    +0.000 C 
ATOM     10  O   UNL     1      -0.284  10.312  23.403  0.00  0.00    +0.000 OA
ATOM     11  C   UNL     1       0.330   9.949  21.186  0.00  0.00    +0.000 A 
ATOM     12  C   UNL     1       0.951   8.763  21.583  0.00  0.00    +0.000 A 
ATOM     13  C   UNL     1       1.555   8.031  20.583  0.00  0.00    +0.000 A 
ATOM     14  O   UNL     1       2.203   6.863  20.768  0.00  0.00    +0.000 OA
ATOM     15  C   UNL     1       2.606   6.477  19.521  0.00  0.00    +0.000 A 
ATOM     16  N   UNL     1       2.280   7.347  18.568  0.00  0.00    +0.000 NA
ATOM     17  C   UNL     1       1.584   8.358  19.242  0.00  0.00    +0.000 A 
ATOM     18  C   UNL     1       0.936   9.564  18.851  0.00  0.00    +0.000 A 
ATOM     19  C   UNL     1       0.308  10.369  19.852  0.00  0.00    +0.000 A 
ENDROOT
BRANCH  15  20
ATOM     20  S   UNL     1       3.287   4.882  19.355  0.00  0.00    +0.000 S 
BRANCH  20  21
ATOM     21  C   UNL     1       3.261   4.494  17.595  0.00  0.00    +0.000 C 
BRANCH  21  22
ATOM     22  C   UNL     1       4.583   4.892  16.943  0.00  0.00    +0.000 A 
ATOM     23  C   UNL     1       5.016   4.274  15.756  0.00  0.00    +0.000 A 
ATOM     24  C   UNL     1       6.255   4.587  15.180  0.00  0.00    +0.000 A 
ATOM     25  C   UNL     1       7.098   5.516  15.787  0.00  0.00    +0.000 A 
ATOM     26  C   UNL     1       6.687   6.134  16.973  0.00  0.00    +0.000 A 
ATOM     27  C   UNL     1       5.436   5.835  17.547  0.00  0.00    +0.000 A 
BRANCH  26  28
ATOM     28  N   UNL     1       7.585   7.090  17.634  0.00  0.00    +0.000 N 
ATOM     29  O   UNL     1       8.143   6.734  18.683  0.00  0.00    +0.000 OA
ATOM     30  O   UNL     1       7.732   8.200  17.104  0.00  0.00    +0.000 OA
ENDBRANCH  26  28
ENDBRANCH  21  22
ENDBRANCH  20  21
ENDBRANCH  15  20
TORSDOF 4
ENDMDL
MODEL 7
REMARK VINA RESULT:      -8.9      1.620      2.837
REMARK  Name = 
REMARK  4 active torsions:
REMARK  status: ('A' for Active; 'I' for Inactive)
REMARK    1  A    between atoms: C_15  and  S_16
REMARK    2  A    between atoms: S_16  and  C_17
REMARK    3  A    between atoms: C_17  and  C_18
REMARK    4  A    between atoms: C_22  and  N_23
REMARK                            x       y       z     vdW  Elec       q    Type
REMARK                         _______ _______ _______ _____ _____    ______ ____
ROOT
ATOM      1  O   UNL     1       0.480  10.161  22.522  0.00  0.00    +0.000 OA
ATOM      2  C   UNL     1       0.807  10.205  21.343  0.00  0.00    +0.000 C 
ATOM      3  C   UNL     1       0.762  11.503  20.593  0.00  0.00    +0.000 A 
ATOM      4  C   UNL     1       0.328  12.698  21.187  0.00  0.00    +0.000 A 
ATOM      5  C   UNL     1       0.286  13.894  20.444  0.00  0.00    +0.000 A 
ATOM      6  C   UNL     1       0.677  13.912  19.107  0.00  0.00    +0.000 A 
ATOM      7  C   UNL     1       1.115  12.738  18.515  0.00  0.00    +0.000 A 
ATOM      8  C   UNL     1       1.155  11.549  19.258  0.00  0.00    +0.000 A 
ATOM      9  C   UNL     1       1.627  10.342  18.588  0.00  0.00    +0.000 C 
ATOM     10  O   UNL     1       2.012  10.403  17.431  0.00  0.00    +0.000 OA
ATOM     11  C   UNL     1       1.633   9.062  19.297  0.00  0.00    +0.000 A 
ATOM     12  C   UNL     1       2.046   7.957  18.551  0.00  0.00    +0.000 A 
ATOM     13  C   UNL     1       2.035   6.745  19.206  0.00  0.00    +0.000 A 
ATOM     14  O   UNL     1       2.399   5.569  18.657  0.00  0.00    +0.000 OA
ATOM     15  C   UNL     1       2.271   4.650  19.659  0.00  0.00    +0.000 A 
ATOM     16  N   UNL     1       1.818   5.171  20.797  0.00  0.00    +0.000 NA
ATOM     17  C   UNL     1       1.672   6.536  20.522  0.00  0.00    +0.000 A 
ATOM     18  C   UNL     1       1.265   7.674  21.274  0.00  0.00    +0.000 A 
ATOM     19  C   UNL     1       1.241   8.954  20.636  0.00  0.00    +0.000 A 
ENDROOT
BRANCH  15  20
ATOM     20  S   UNL     1       2.876   3.044  19.359  0.00  0.00    +0.000 S 
BRANCH  20  21
ATOM     21  C   UNL     1       4.675   3.164  19.372  0.00  0.00    +0.000 C 
BRANCH  21  22
ATOM     22  C   UNL     1       5.154   4.101  18.266  0.00  0.00    +0.000 A 
ATOM     23  C   UNL     1       4.765   3.897  16.930  0.00  0.00    +0.000 A 
ATOM     24  C   UNL     1       5.246   4.714  15.897  0.00  0.00    +0.000 A 
ATOM     25  C   UNL     1       6.141   5.745  16.174  0.00  0.00    +0.000 A 
ATOM     26  C   UNL     1       6.545   5.956  17.496  0.00  0.00    +0.000 A 
ATOM     27  C   UNL     1       6.053   5.149  18.541  0.00  0.00    +0.000 A 
BRANCH  26  28
ATOM     28  N   UNL     1       7.513   7.022  17.790  0.00  0.00    +0.000 N 
ATOM     29  O   UNL     1       7.549   8.000  17.028  0.00  0.00    +0.000 OA
ATOM     30  O   UNL     1       8.239   6.880  18.784  0.00  0.00    +0.000 OA
ENDBRANCH  26  28
ENDBRANCH  21  22
ENDBRANCH  20  21
ENDBRANCH  15  20
TORSDOF 4
ENDMDL
MODEL 8
REMARK VINA RESULT:      -8.7      1.474      2.814
REMARK  Name = 
REMARK  4 active torsions:
REMARK  status: ('A' for Active; 'I' for Inactive)
REMARK    1  A    between atoms: C_15  and  S_16
REMARK    2  A    between atoms: S_16  and  C_17
REMARK    3  A    between atoms: C_17  and  C_18
REMARK    4  A    between atoms: C_22  and  N_23
REMARK                            x       y       z     vdW  Elec       q    Type
REMARK                         _______ _______ _______ _____ _____    ______ ____
ROOT
ATOM      1  O   UNL     1       0.272   9.718  22.502  0.00  0.00    +0.000 OA
ATOM      2  C   UNL     1       0.636   9.820  21.338  0.00  0.00    +0.000 C 
ATOM      3  C   UNL     1       0.487  11.123  20.609  0.00  0.00    +0.000 A 
ATOM      4  C   UNL     1      -0.088  12.255  21.206  0.00  0.00    +0.000 A 
ATOM      5  C   UNL     1      -0.224  13.456  20.483  0.00  0.00    +0.000 A 
ATOM      6  C   UNL     1       0.212  13.542  19.163  0.00  0.00    +0.000 A 
ATOM      7  C   UNL     1       0.789  12.431  18.568  0.00  0.00    +0.000 A 
ATOM      8  C   UNL     1       0.922  11.237  19.291  0.00  0.00    +0.000 A 
ATOM      9  C   UNL     1       1.540  10.099  18.619  0.00  0.00    +0.000 C 
ATOM     10  O   UNL     1       1.959  10.223  17.480  0.00  0.00    +0.000 OA
ATOM     11  C   UNL     1       1.649   8.811  19.306  0.00  0.00    +0.000 A 
ATOM     12  C   UNL     1       2.201   7.769  18.557  0.00  0.00    +0.000 A 
ATOM     13  C   UNL     1       2.290   6.548  19.190  0.00  0.00    +0.000 A 
ATOM     14  O   UNL     1       2.792   5.427  18.635  0.00  0.00    +0.000 OA
ATOM     15  C   UNL     1       2.721   4.479  19.616  0.00  0.00    +0.000 A 
ATOM     16  N   UNL     1       2.175   4.928  20.744  0.00  0.00    +0.000 NA
ATOM     17  C   UNL     1       1.901   6.276  20.487  0.00  0.00    +0.000 A 
ATOM     18  C   UNL     1       1.352   7.351  21.242  0.00  0.00    +0.000 A 
ATOM     19  C   UNL     1       1.222   8.635  20.626  0.00  0.00    +0.000 A 
ENDROOT
BRANCH  15  20
ATOM     20  S   UNL     1       3.497   2.950  19.311  0.00  0.00    +0.000 S 
BRANCH  20  21
ATOM     21  C   UNL     1       3.920   2.930  17.559  0.00  0.00    +0.000 C 
BRANCH  21  22
ATOM     22  C   UNL     1       4.984   3.983  17.256  0.00  0.00    +0.000 A 
ATOM     23  C   UNL     1       5.244   4.385  15.934  0.00  0.00    +0.000 A 
ATOM     24  C   UNL     1       6.259   5.306  15.638  0.00  0.00    +0.000 A 
ATOM     25  C   UNL     1       7.049   5.834  16.657  0.00  0.00    +0.000 A 
ATOM     26  C   UNL     1       6.809   5.438  17.977  0.00  0.00    +0.000 A 
ATOM     27  C   UNL     1       5.780   4.526  18.282  0.00  0.00    +0.000 A 
BRANCH  26  28
ATOM     28  N   UNL     1       7.658   5.969  19.052  0.00  0.00    +0.000 N 
ATOM     29  O   UNL     1       7.651   5.378  20.143  0.00  0.00    +0.000 OA
ATOM     30  O   UNL     1       8.333   6.978  18.806  0.00  0.00    +0.000 OA
ENDBRANCH  26  28
ENDBRANCH  21  22
ENDBRANCH  20  21
ENDBRANCH  15  20
TORSDOF 4
ENDMDL
MODEL 9
REMARK VINA RESULT:      -8.7      2.147      3.294
REMARK  Name = 
REMARK  4 active torsions:
REMARK  status: ('A' for Active; 'I' for Inactive)
REMARK    1  A    between atoms: C_15  and  S_16
REMARK    2  A    between atoms: S_16  and  C_17
REMARK    3  A    between atoms: C_17  and  C_18
REMARK    4  A    between atoms: C_22  and  N_23
REMARK                            x       y       z     vdW  Elec       q    Type
REMARK                         _______ _______ _______ _____ _____    ______ ____
ROOT
ATOM      1  O   UNL     1       0.447  10.107  22.419  0.00  0.00    +0.000 OA
ATOM      2  C   UNL     1       0.787  10.277  21.255  0.00  0.00    +0.000 C 
ATOM      3  C   UNL     1       0.698  11.639  20.633  0.00  0.00    +0.000 A 
ATOM      4  C   UNL     1       0.208  12.753  21.331  0.00  0.00    +0.000 A 
ATOM      5  C   UNL     1       0.126  14.012  20.706  0.00  0.00    +0.000 A 
ATOM      6  C   UNL     1       0.534  14.175  19.383  0.00  0.00    +0.000 A 
ATOM      7  C   UNL     1       1.028  13.082  18.689  0.00  0.00    +0.000 A 
ATOM      8  C   UNL     1       1.107  11.830  19.315  0.00  0.00    +0.000 A 
ATOM      9  C   UNL     1       1.637  10.713  18.541  0.00  0.00    +0.000 C 
ATOM     10  O   UNL     1       2.034  10.900  17.402  0.00  0.00    +0.000 OA
ATOM     11  C   UNL     1       1.686   9.371  19.124  0.00  0.00    +0.000 A 
ATOM     12  C   UNL     1       2.155   8.361  18.282  0.00  0.00    +0.000 A 
ATOM     13  C   UNL     1       2.186   7.091  18.818  0.00  0.00    +0.000 A 
ATOM     14  O   UNL     1       2.605   5.989  18.164  0.00  0.00    +0.000 OA
ATOM     15  C   UNL     1       2.502   4.974  19.072  0.00  0.00    +0.000 A 
ATOM     16  N   UNL     1       2.012   5.364  20.246  0.00  0.00    +0.000 NA
ATOM     17  C   UNL     1       1.814   6.742  20.101  0.00  0.00    +0.000 A 
ATOM     18  C   UNL     1       1.350   7.785  20.952  0.00  0.00    +0.000 A 
ATOM     19  C   UNL     1       1.282   9.119  20.439  0.00  0.00    +0.000 A 
ENDROOT
BRANCH  15  20
ATOM     20  S   UNL     1       3.177   3.430  18.629  0.00  0.00    +0.000 S 
BRANCH  20  21
ATOM     21  C   UNL     1       4.857   3.400  19.281  0.00  0.00    +0.000 C 
BRANCH  21  22
ATOM     22  C   UNL     1       5.757   4.334  18.475  0.00  0.00    +0.000 A 
ATOM     23  C   UNL     1       6.394   5.428  19.088  0.00  0.00    +0.000 A 
ATOM     24  C   UNL     1       7.174   6.327  18.348  0.00  0.00    +0.000 A 
ATOM     25  C   UNL     1       7.323   6.162  16.972  0.00  0.00    +0.000 A 
ATOM     26  C   UNL     1       6.689   5.084  16.345  0.00  0.00    +0.000 A 
ATOM     27  C   UNL     1       5.917   4.168  17.087  0.00  0.00    +0.000 A 
BRANCH  26  28
ATOM     28  N   UNL     1       6.817   4.922  14.890  0.00  0.00    +0.000 N 
ATOM     29  O   UNL     1       7.757   5.499  14.322  0.00  0.00    +0.000 OA
ATOM     30  O   UNL     1       5.975   4.220  14.314  0.00  0.00    +0.000 OA
ENDBRANCH  26  28
ENDBRANCH  21  22
ENDBRANCH  20  21
ENDBRANCH  15  20
TORSDOF 4
ENDMDL
