MODEL 1
REMARK VINA RESULT:      -7.9      0.000      0.000
REMARK  Name = 
REMARK  9 active torsions:
REMARK  status: ('A' for Active; 'I' for Inactive)
REMARK    1  A    between atoms: C_2  and  C_3
REMARK    2  A    between atoms: C_3  and  O_4
REMARK    3  A    between atoms: O_4  and  C_5
REMARK    4  A    between atoms: C_10  and  C_11
REMARK    5  A    between atoms: N_16  and  C_17
REMARK    6  A    between atoms: C_17  and  C_18
REMARK    7  A    between atoms: C_18  and  O_19
REMARK    8  A    between atoms: C_18  and  C_20
REMARK    9  A    between atoms: C_20  and  N_21
REMARK                            x       y       z     vdW  Elec       q    Type
REMARK                         _______ _______ _______ _____ _____    ______ ____
ROOT
ATOM      1  O   UNL     1       5.501   3.900  19.424  0.00  0.00    +0.000 OA
ATOM      2  C   UNL     1       4.548   3.272  18.960  0.00  0.00    +0.000 C 
ATOM      3  N   UNL     1       3.691   2.658  19.822  0.00  0.00    +0.000 N 
ATOM      4  H   UNL     1       3.869   2.886  20.796  0.00  0.00    +0.000 HD
ENDROOT
BRANCH   2   5
ATOM      5  C   UNL     1       4.325   3.150  17.457  0.00  0.00    +0.000 C 
BRANCH   5   6
ATOM      6  O   UNL     1       4.569   4.400  16.823  0.00  0.00    +0.000 OA
BRANCH   6   7
ATOM      7  C   UNL     1       5.349   4.395  15.689  0.00  0.00    +0.000 A 
ATOM      8  C   UNL     1       4.885   3.958  14.436  0.00  0.00    +0.000 A 
ATOM      9  C   UNL     1       5.715   3.976  13.309  0.00  0.00    +0.000 A 
ATOM     10  C   UNL     1       7.021   4.439  13.414  0.00  0.00    +0.000 A 
ATOM     11  C   UNL     1       7.498   4.866  14.649  0.00  0.00    +0.000 A 
ATOM     12  C   UNL     1       6.683   4.848  15.802  0.00  0.00    +0.000 A 
BRANCH  12  13
ATOM     13  C   UNL     1       7.278   5.310  17.064  0.00  0.00    +0.000 A 
ATOM     14  C   UNL     1       7.272   6.614  17.630  0.00  0.00    +0.000 A 
ATOM     15  C   UNL     1       7.931   6.504  18.831  0.00  0.00    +0.000 A 
ATOM     16  N   UNL     1       8.280   5.195  18.940  0.00  0.00    +0.000 N 
ATOM     17  N   UNL     1       7.902   4.450  17.893  0.00  0.00    +0.000 NA
ATOM     18  H   UNL     1       8.766   4.735  19.702  0.00  0.00    +0.000 HD
ENDBRANCH  12  13
ENDBRANCH   6   7
ENDBRANCH   5   6
ENDBRANCH   2   5
BRANCH   3  19
ATOM     19  C   UNL     1       2.427   2.000  19.522  0.00  0.00    +0.000 C 
BRANCH  19  20
ATOM     20  C   UNL     1       1.279   2.805  20.126  0.00  0.00    +0.000 C 
BRANCH  20  21
ATOM     21  O   UNL     1       1.536   2.962  21.544  0.00  0.00    +0.000 OA
ATOM     22  H   UNL     1       2.327   2.435  21.762  0.00  0.00    +0.000 HD
ENDBRANCH  20  21
BRANCH  20  23
ATOM     23  C   UNL     1       1.100   4.211  19.531  0.00  0.00    +0.000 C 
BRANCH  23  24
ATOM     24  N   UNL     1       2.000   5.321  19.912  0.00  0.00    +0.000 NA
ATOM     25  C   UNL     1       1.273   6.064  20.970  0.00  0.00    +0.000 C 
ATOM     26  C   UNL     1       1.801   7.451  21.238  0.00  0.00    +0.000 C 
ATOM     27  C   UNL     1       1.629   8.217  19.968  0.00  0.00    +0.000 A 
ATOM     28  C   UNL     1       0.941   9.427  19.901  0.00  0.00    +0.000 A 
ATOM     29  C   UNL     1       1.056  10.212  18.760  0.00  0.00    +0.000 A 
ATOM     30  C   UNL     1       1.912   9.807  17.736  0.00  0.00    +0.000 A 
ATOM     31  C   UNL     1       2.471   8.522  17.754  0.00  0.00    +0.000 A 
ATOM     32  C   UNL     1       2.216   7.664  18.829  0.00  0.00    +0.000 A 
ATOM     33  C   UNL     1       2.488   6.163  18.773  0.00  0.00    +0.000 C 
ENDBRANCH  23  24
ENDBRANCH  20  23
ENDBRANCH  19  20
ENDBRANCH   3  19
TORSDOF 9
ENDMDL
MODEL 2
REMARK VINA RESULT:      -7.6      3.502      5.562
REMARK  Name = 
REMARK  9 active torsions:
REMARK  status: ('A' for Active; 'I' for Inactive)
REMARK    1  A    between atoms: C_2  and  C_3
REMARK    2  A    between atoms: C_3  and  O_4
REMARK    3  A    between atoms: O_4  and  C_5
REMARK    4  A    between atoms: C_10  and  C_11
REMARK    5  A    between atoms: N_16  and  C_17
REMARK    6  A    between atoms: C_17  and  C_18
REMARK    7  A    between atoms: C_18  and  O_19
REMARK    8  A    between atoms: C_18  and  C_20
REMARK    9  A    between atoms: C_20  and  N_21
REMARK                            x       y       z     vdW  Elec       q    Type
REMARK                         _______ _______ _______ _____ _____    ______ ____
ROOT
ATOM      1  O   UNL     1       2.008   8.288  17.681  0.00  0.00    +0.000 OA
ATOM      2  C   UNL     1       2.088   7.941  18.861  0.00  0.00    +0.000 C 
ATOM      3  N   UNL     1       1.534   8.740  19.813  0.00  0.00    +0.000 N 
ATOM      4  H   UNL     1       0.993   9.508  19.428  0.00  0.00    +0.000 HD
ENDROOT
BRANCH   2   5
ATOM      5  C   UNL     1       2.810   6.663  19.273  0.00  0.00    +0.000 C 
BRANCH   5   6
ATOM      6  O   UNL     1       3.115   5.881  18.123  0.00  0.00    +0.000 OA
BRANCH   6   7
ATOM      7  C   UNL     1       2.774   4.548  18.152  0.00  0.00    +0.000 A 
ATOM      8  C   UNL     1       1.467   4.092  18.398  0.00  0.00    +0.000 A 
ATOM      9  C   UNL     1       1.168   2.725  18.413  0.00  0.00    +0.000 A 
ATOM     10  C   UNL     1       2.168   1.790  18.177  0.00  0.00    +0.000 A 
ATOM     11  C   UNL     1       3.469   2.225  17.942  0.00  0.00    +0.000 A 
ATOM     12  C   UNL     1       3.797   3.599  17.931  0.00  0.00    +0.000 A 
BRANCH  12  13
ATOM     13  C   UNL     1       5.200   3.962  17.684  0.00  0.00    +0.000 A 
ATOM     14  C   UNL     1       5.852   4.216  16.446  0.00  0.00    +0.000 A 
ATOM     15  C   UNL     1       7.146   4.549  16.766  0.00  0.00    +0.000 A 
ATOM     16  N   UNL     1       7.215   4.494  18.123  0.00  0.00    +0.000 N 
ATOM     17  N   UNL     1       6.060   4.143  18.705  0.00  0.00    +0.000 NA
ATOM     18  H   UNL     1       8.009   4.692  18.721  0.00  0.00    +0.000 HD
ENDBRANCH  12  13
ENDBRANCH   6   7
ENDBRANCH   5   6
ENDBRANCH   2   5
BRANCH   3  19
ATOM     19  C   UNL     1       1.367   8.468  21.234  0.00  0.00    +0.000 C 
BRANCH  19  20
ATOM     20  C   UNL     1       0.696   9.663  21.906  0.00  0.00    +0.000 C 
BRANCH  20  21
ATOM     21  O   UNL     1       1.535  10.827  21.697  0.00  0.00    +0.000 OA
ATOM     22  H   UNL     1       1.510  11.362  22.513  0.00  0.00    +0.000 HD
ENDBRANCH  20  21
BRANCH  20  23
ATOM     23  C   UNL     1      -0.702  10.000  21.366  0.00  0.00    +0.000 C 
BRANCH  23  24
ATOM     24  N   UNL     1      -0.904  11.104  20.403  0.00  0.00    +0.000 NA
ATOM     25  C   UNL     1      -2.092  11.840  20.900  0.00  0.00    +0.000 C 
ATOM     26  C   UNL     1      -2.729  12.757  19.887  0.00  0.00    +0.000 C 
ATOM     27  C   UNL     1      -3.190  11.887  18.764  0.00  0.00    +0.000 A 
ATOM     28  C   UNL     1      -4.505  11.878  18.303  0.00  0.00    +0.000 A 
ATOM     29  C   UNL     1      -4.797  11.259  17.094  0.00  0.00    +0.000 A 
ATOM     30  C   UNL     1      -3.759  10.722  16.333  0.00  0.00    +0.000 A 
ATOM     31  C   UNL     1      -2.475  10.605  16.881  0.00  0.00    +0.000 A 
ATOM     32  C   UNL     1      -2.220  11.077  18.173  0.00  0.00    +0.000 A 
ATOM     33  C   UNL     1      -0.974  10.690  18.966  0.00  0.00    +0.000 C 
ENDBRANCH  23  24
ENDBRANCH  20  23
ENDBRANCH  19  20
ENDBRANCH   3  19
TORSDOF 9
ENDMDL
MODEL 3
REMARK VINA RESULT:      -7.5      3.120      8.034
REMARK  Name = 
REMARK  9 active torsions:
REMARK  status: ('A' for Active; 'I' for Inactive)
REMARK    1  A    between atoms: C_2  and  C_3
REMARK    2  A    between atoms: C_3  and  O_4
REMARK    3  A    between atoms: O_4  and  C_5
REMARK    4  A    between atoms: C_10  and  C_11
REMARK    5  A    between atoms: N_16  and  C_17
REMARK    6  A    between atoms: C_17  and  C_18
REMARK    7  A    between atoms: C_18  and  O_19
REMARK    8  A    between atoms: C_18  and  C_20
REMARK    9  A    between atoms: C_20  and  N_21
REMARK                            x       y       z     vdW  Elec       q    Type
REMARK                         _______ _______ _______ _____ _____    ______ ____
ROOT
ATOM      1  O   UNL     1       1.882   6.339  20.564  0.00  0.00    +0.000 OA
ATOM      2  C   UNL     1       2.254   7.056  19.634  0.00  0.00    +0.000 C 
ATOM      3  N   UNL     1       3.325   6.659  18.893  0.00  0.00    +0.000 N 
ATOM      4  H   UNL     1       3.645   5.723  19.122  0.00  0.00    +0.000 HD
ENDROOT
BRANCH   2   5
ATOM      5  C   UNL     1       1.563   8.378  19.315  0.00  0.00    +0.000 C 
BRANCH   5   6
ATOM      6  O   UNL     1       1.946   9.371  20.258  0.00  0.00    +0.000 OA
BRANCH   6   7
ATOM      7  C   UNL     1       0.999   9.784  21.166  0.00  0.00    +0.000 A 
ATOM      8  C   UNL     1       0.495   8.957  22.185  0.00  0.00    +0.000 A 
ATOM      9  C   UNL     1      -0.466   9.424  23.089  0.00  0.00    +0.000 A 
ATOM     10  C   UNL     1      -0.936  10.728  22.995  0.00  0.00    +0.000 A 
ATOM     11  C   UNL     1      -0.454  11.557  21.985  0.00  0.00    +0.000 A 
ATOM     12  C   UNL     1       0.509  11.105  21.056  0.00  0.00    +0.000 A 
BRANCH  12  13
ATOM     13  C   UNL     1       0.950  12.049  20.020  0.00  0.00    +0.000 A 
ATOM     14  C   UNL     1       2.018  12.987  20.062  0.00  0.00    +0.000 A 
ATOM     15  C   UNL     1       2.032  13.595  18.830  0.00  0.00    +0.000 A 
ATOM     16  N   UNL     1       1.023  13.018  18.124  0.00  0.00    +0.000 N 
ATOM     17  N   UNL     1       0.353  12.084  18.812  0.00  0.00    +0.000 NA
ATOM     18  H   UNL     1       0.740  13.200  17.168  0.00  0.00    +0.000 HD
ENDBRANCH  12  13
ENDBRANCH   6   7
ENDBRANCH   5   6
ENDBRANCH   2   5
BRANCH   3  19
ATOM     19  C   UNL     1       3.844   7.250  17.668  0.00  0.00    +0.000 C 
BRANCH  19  20
ATOM     20  C   UNL     1       4.541   6.174  16.839  0.00  0.00    +0.000 C 
BRANCH  20  21
ATOM     21  O   UNL     1       5.456   6.831  15.926  0.00  0.00    +0.000 OA
ATOM     22  H   UNL     1       5.263   6.506  15.027  0.00  0.00    +0.000 HD
ENDBRANCH  20  21
BRANCH  20  23
ATOM     23  C   UNL     1       5.356   5.161  17.659  0.00  0.00    +0.000 C 
BRANCH  23  24
ATOM     24  N   UNL     1       4.840   3.801  17.924  0.00  0.00    +0.000 NA
ATOM     25  C   UNL     1       3.606   3.689  17.107  0.00  0.00    +0.000 C 
ATOM     26  C   UNL     1       2.694   2.556  17.505  0.00  0.00    +0.000 C 
ATOM     27  C   UNL     1       2.266   2.835  18.908  0.00  0.00    +0.000 A 
ATOM     28  C   UNL     1       0.929   2.903  19.294  0.00  0.00    +0.000 A 
ATOM     29  C   UNL     1       0.610   2.890  20.646  0.00  0.00    +0.000 A 
ATOM     30  C   UNL     1       1.628   2.738  21.586  0.00  0.00    +0.000 A 
ATOM     31  C   UNL     1       2.970   2.825  21.191  0.00  0.00    +0.000 A 
ATOM     32  C   UNL     1       3.289   3.010  19.841  0.00  0.00    +0.000 A 
ATOM     33  C   UNL     1       4.672   3.455  19.371  0.00  0.00    +0.000 C 
ENDBRANCH  23  24
ENDBRANCH  20  23
ENDBRANCH  19  20
ENDBRANCH   3  19
TORSDOF 9
ENDMDL
MODEL 4
REMARK VINA RESULT:      -7.5      3.455      5.550
REMARK  Name = 
REMARK  9 active torsions:
REMARK  status: ('A' for Active; 'I' for Inactive)
REMARK    1  A    between atoms: C_2  and  C_3
REMARK    2  A    between atoms: C_3  and  O_4
REMARK    3  A    between atoms: O_4  and  C_5
REMARK    4  A    between atoms: C_10  and  C_11
REMARK    5  A    between atoms: N_16  and  C_17
REMARK    6  A    between atoms: C_17  and  C_18
REMARK    7  A    between atoms: C_18  and  O_19
REMARK    8  A    between atoms: C_18  and  C_20
REMARK    9  A    between atoms: C_20  and  N_21
REMARK                            x       y       z     vdW  Elec       q    Type
REMARK                         _______ _______ _______ _____ _____    ______ ____
ROOT
ATOM      1  O   UNL     1       2.296   8.607  17.312  0.00  0.00    +0.000 OA
ATOM      2  C   UNL     1       2.225   8.188  18.469  0.00  0.00    +0.000 C 
ATOM      3  N   UNL     1       1.529   8.917  19.384  0.00  0.00    +0.000 N 
ATOM      4  H   UNL     1       1.026   9.699  18.975  0.00  0.00    +0.000 HD
ENDROOT
BRANCH   2   5
ATOM      5  C   UNL     1       2.915   6.897  18.897  0.00  0.00    +0.000 C 
BRANCH   5   6
ATOM      6  O   UNL     1       3.066   6.029  17.780  0.00  0.00    +0.000 OA
BRANCH   6   7
ATOM      7  C   UNL     1       2.752   4.702  17.960  0.00  0.00    +0.000 A 
ATOM      8  C   UNL     1       1.459   4.253  18.279  0.00  0.00    +0.000 A 
ATOM      9  C   UNL     1       1.186   2.890  18.448  0.00  0.00    +0.000 A 
ATOM     10  C   UNL     1       2.199   1.953  18.293  0.00  0.00    +0.000 A 
ATOM     11  C   UNL     1       3.487   2.382  17.987  0.00  0.00    +0.000 A 
ATOM     12  C   UNL     1       3.789   3.752  17.821  0.00  0.00    +0.000 A 
BRANCH  12  13
ATOM     13  C   UNL     1       5.179   4.109  17.508  0.00  0.00    +0.000 A 
ATOM     14  C   UNL     1       6.178   4.645  18.366  0.00  0.00    +0.000 A 
ATOM     15  C   UNL     1       7.311   4.762  17.596  0.00  0.00    +0.000 A 
ATOM     16  N   UNL     1       6.966   4.302  16.364  0.00  0.00    +0.000 N 
ATOM     17  N   UNL     1       5.690   3.902  16.278  0.00  0.00    +0.000 NA
ATOM     18  H   UNL     1       7.548   4.220  15.538  0.00  0.00    +0.000 HD
ENDBRANCH  12  13
ENDBRANCH   6   7
ENDBRANCH   5   6
ENDBRANCH   2   5
BRANCH   3  19
ATOM     19  C   UNL     1       1.179   8.553  20.750  0.00  0.00    +0.000 C 
BRANCH  19  20
ATOM     20  C   UNL     1      -0.182   9.148  21.103  0.00  0.00    +0.000 C 
BRANCH  20  21
ATOM     21  O   UNL     1      -0.769   8.338  22.152  0.00  0.00    +0.000 OA
ATOM     22  H   UNL     1      -0.627   7.401  21.918  0.00  0.00    +0.000 HD
ENDBRANCH  20  21
BRANCH  20  23
ATOM     23  C   UNL     1      -0.135  10.597  21.611  0.00  0.00    +0.000 C 
BRANCH  23  24
ATOM     24  N   UNL     1      -0.602  11.718  20.768  0.00  0.00    +0.000 NA
ATOM     25  C   UNL     1      -1.842  12.205  21.421  0.00  0.00    +0.000 C 
ATOM     26  C   UNL     1      -2.711  13.073  20.546  0.00  0.00    +0.000 C 
ATOM     27  C   UNL     1      -3.128  12.222  19.393  0.00  0.00    +0.000 A 
ATOM     28  C   UNL     1      -4.462  12.025  19.040  0.00  0.00    +0.000 A 
ATOM     29  C   UNL     1      -4.762  11.456  17.809  0.00  0.00    +0.000 A 
ATOM     30  C   UNL     1      -3.727  11.158  16.923  0.00  0.00    +0.000 A 
ATOM     31  C   UNL     1      -2.395  11.219  17.353  0.00  0.00    +0.000 A 
ATOM     32  C   UNL     1      -2.100  11.633  18.657  0.00  0.00    +0.000 A 
ATOM     33  C   UNL     1      -0.739  11.404  19.310  0.00  0.00    +0.000 C 
ENDBRANCH  23  24
ENDBRANCH  20  23
ENDBRANCH  19  20
ENDBRANCH   3  19
TORSDOF 9
ENDMDL
MODEL 5
REMARK VINA RESULT:      -7.5      3.996      6.482
REMARK  Name = 
REMARK  9 active torsions:
REMARK  status: ('A' for Active; 'I' for Inactive)
REMARK    1  A    between atoms: C_2  and  C_3
REMARK    2  A    between atoms: C_3  and  O_4
REMARK    3  A    between atoms: O_4  and  C_5
REMARK    4  A    between atoms: C_10  and  C_11
REMARK    5  A    between atoms: N_16  and  C_17
REMARK    6  A    between atoms: C_17  and  C_18
REMARK    7  A    between atoms: C_18  and  O_19
REMARK    8  A    between atoms: C_18  and  C_20
REMARK    9  A    between atoms: C_20  and  N_21
REMARK                            x       y       z     vdW  Elec       q    Type
REMARK                         _______ _______ _______ _____ _____    ______ ____
ROOT
ATOM      1  O   UNL     1       3.639   7.357  17.396  0.00  0.00    +0.000 OA
ATOM      2  C   UNL     1       2.717   7.797  18.086  0.00  0.00    +0.000 C 
ATOM      3  N   UNL     1       1.995   8.850  17.613  0.00  0.00    +0.000 N 
ATOM      4  H   UNL     1       2.226   9.097  16.656  0.00  0.00    +0.000 HD
ENDROOT
BRANCH   2   5
ATOM      5  C   UNL     1       2.391   7.210  19.455  0.00  0.00    +0.000 C 
BRANCH   5   6
ATOM      6  O   UNL     1       3.259   6.119  19.739  0.00  0.00    +0.000 OA
BRANCH   6   7
ATOM      7  C   UNL     1       2.713   4.857  19.747  0.00  0.00    +0.000 A 
ATOM      8  C   UNL     1       1.504   4.543  20.392  0.00  0.00    +0.000 A 
ATOM      9  C   UNL     1       0.985   3.244  20.368  0.00  0.00    +0.000 A 
ATOM     10  C   UNL     1       1.662   2.236  19.693  0.00  0.00    +0.000 A 
ATOM     11  C   UNL     1       2.865   2.528  19.057  0.00  0.00    +0.000 A 
ATOM     12  C   UNL     1       3.414   3.829  19.075  0.00  0.00    +0.000 A 
BRANCH  12  13
ATOM     13  C   UNL     1       4.694   4.038  18.385  0.00  0.00    +0.000 A 
ATOM     14  C   UNL     1       4.943   4.194  16.993  0.00  0.00    +0.000 A 
ATOM     15  C   UNL     1       6.297   4.397  16.875  0.00  0.00    +0.000 A 
ATOM     16  N   UNL     1       6.784   4.369  18.144  0.00  0.00    +0.000 N 
ATOM     17  N   UNL     1       5.845   4.154  19.075  0.00  0.00    +0.000 NA
ATOM     18  H   UNL     1       7.741   4.498  18.454  0.00  0.00    +0.000 HD
ENDBRANCH  12  13
ENDBRANCH   6   7
ENDBRANCH   5   6
ENDBRANCH   2   5
BRANCH   3  19
ATOM     19  C   UNL     1       0.782   9.433  18.168  0.00  0.00    +0.000 C 
BRANCH  19  20
ATOM     20  C   UNL     1       1.138  10.680  18.974  0.00  0.00    +0.000 C 
BRANCH  20  21
ATOM     21  O   UNL     1       1.388  11.762  18.042  0.00  0.00    +0.000 OA
ATOM     22  H   UNL     1       0.542  11.981  17.608  0.00  0.00    +0.000 HD
ENDBRANCH  20  21
BRANCH  20  23
ATOM     23  C   UNL     1       0.043  11.150  19.944  0.00  0.00    +0.000 C 
BRANCH  23  24
ATOM     24  N   UNL     1      -0.884  12.242  19.578  0.00  0.00    +0.000 NA
ATOM     25  C   UNL     1      -1.328  12.822  20.869  0.00  0.00    +0.000 C 
ATOM     26  C   UNL     1      -2.566  13.680  20.777  0.00  0.00    +0.000 C 
ATOM     27  C   UNL     1      -3.661  12.785  20.299  0.00  0.00    +0.000 A 
ATOM     28  C   UNL     1      -4.866  12.631  20.982  0.00  0.00    +0.000 A 
ATOM     29  C   UNL     1      -5.933  12.008  20.347  0.00  0.00    +0.000 A 
ATOM     30  C   UNL     1      -5.799  11.612  19.017  0.00  0.00    +0.000 A 
ATOM     31  C   UNL     1      -4.541  11.635  18.400  0.00  0.00    +0.000 A 
ATOM     32  C   UNL     1      -3.427  12.107  19.102  0.00  0.00    +0.000 A 
ATOM     33  C   UNL     1      -1.992  11.852  18.648  0.00  0.00    +0.000 C 
ENDBRANCH  23  24
ENDBRANCH  20  23
ENDBRANCH  19  20
ENDBRANCH   3  19
TORSDOF 9
ENDMDL
MODEL 6
REMARK VINA RESULT:      -7.5      3.232      8.269
REMARK  Name = 
REMARK  9 active torsions:
REMARK  status: ('A' for Active; 'I' for Inactive)
REMARK    1  A    between atoms: C_2  and  C_3
REMARK    2  A    between atoms: C_3  and  O_4
REMARK    3  A    between atoms: O_4  and  C_5
REMARK    4  A    between atoms: C_10  and  C_11
REMARK    5  A    between atoms: N_16  and  C_17
REMARK    6  A    between atoms: C_17  and  C_18
REMARK    7  A    between atoms: C_18  and  O_19
REMARK    8  A    between atoms: C_18  and  C_20
REMARK    9  A    between atoms: C_20  and  N_21
REMARK                            x       y       z     vdW  Elec       q    Type
REMARK                         _______ _______ _______ _____ _____    ______ ____
ROOT
ATOM      1  O   UNL     1       2.345   9.028  17.164  0.00  0.00    +0.000 OA
ATOM      2  C   UNL     1       2.541   8.205  18.061  0.00  0.00    +0.000 C 
ATOM      3  N   UNL     1       3.442   7.208  17.844  0.00  0.00    +0.000 N 
ATOM      4  H   UNL     1       3.961   7.317  16.978  0.00  0.00    +0.000 HD
ENDROOT
BRANCH   2   5
ATOM      5  C   UNL     1       1.784   8.266  19.384  0.00  0.00    +0.000 C 
BRANCH   5   6
ATOM      6  O   UNL     1       1.024   9.467  19.457  0.00  0.00    +0.000 OA
BRANCH   6   7
ATOM      7  C   UNL     1       0.423   9.766  20.658  0.00  0.00    +0.000 A 
ATOM      8  C   UNL     1       0.507   8.937  21.790  0.00  0.00    +0.000 A 
ATOM      9  C   UNL     1      -0.118   9.287  22.992  0.00  0.00    +0.000 A 
ATOM     10  C   UNL     1      -0.831  10.475  23.087  0.00  0.00    +0.000 A 
ATOM     11  C   UNL     1      -0.932  11.302  21.972  0.00  0.00    +0.000 A 
ATOM     12  C   UNL     1      -0.318  10.966  20.745  0.00  0.00    +0.000 A 
BRANCH  12  13
ATOM     13  C   UNL     1      -0.488  11.898  19.622  0.00  0.00    +0.000 A 
ATOM     14  C   UNL     1       0.196  13.117  19.361  0.00  0.00    +0.000 A 
ATOM     15  C   UNL     1      -0.307  13.582  18.169  0.00  0.00    +0.000 A 
ATOM     16  N   UNL     1      -1.223  12.659  17.773  0.00  0.00    +0.000 N 
ATOM     17  N   UNL     1      -1.356  11.634  18.625  0.00  0.00    +0.000 NA
ATOM     18  H   UNL     1      -1.788  12.654  16.931  0.00  0.00    +0.000 HD
ENDBRANCH  12  13
ENDBRANCH   6   7
ENDBRANCH   5   6
ENDBRANCH   2   5
BRANCH   3  19
ATOM     19  C   UNL     1       3.949   6.228  18.794  0.00  0.00    +0.000 C 
BRANCH  19  20
ATOM     20  C   UNL     1       5.376   5.841  18.415  0.00  0.00    +0.000 C 
BRANCH  20  21
ATOM     21  O   UNL     1       6.084   5.484  19.629  0.00  0.00    +0.000 OA
ATOM     22  H   UNL     1       5.420   5.208  20.289  0.00  0.00    +0.000 HD
ENDBRANCH  20  21
BRANCH  20  23
ATOM     23  C   UNL     1       5.483   4.649  17.451  0.00  0.00    +0.000 C 
BRANCH  23  24
ATOM     24  N   UNL     1       4.737   3.397  17.701  0.00  0.00    +0.000 NA
ATOM     25  C   UNL     1       3.411   3.603  17.066  0.00  0.00    +0.000 C 
ATOM     26  C   UNL     1       2.344   2.638  17.518  0.00  0.00    +0.000 C 
ATOM     27  C   UNL     1       2.169   2.864  18.984  0.00  0.00    +0.000 A 
ATOM     28  C   UNL     1       0.935   3.155  19.563  0.00  0.00    +0.000 A 
ATOM     29  C   UNL     1       0.798   3.080  20.943  0.00  0.00    +0.000 A 
ATOM     30  C   UNL     1       1.875   2.647  21.715  0.00  0.00    +0.000 A 
ATOM     31  C   UNL     1       3.144   2.507  21.135  0.00  0.00    +0.000 A 
ATOM     32  C   UNL     1       3.317   2.750  19.768  0.00  0.00    +0.000 A 
ATOM     33  C   UNL     1       4.689   2.958  19.132  0.00  0.00    +0.000 C 
ENDBRANCH  23  24
ENDBRANCH  20  23
ENDBRANCH  19  20
ENDBRANCH   3  19
TORSDOF 9
ENDMDL
MODEL 7
REMARK VINA RESULT:      -7.5      4.753      7.617
REMARK  Name = 
REMARK  9 active torsions:
REMARK  status: ('A' for Active; 'I' for Inactive)
REMARK    1  A    between atoms: C_2  and  C_3
REMARK    2  A    between atoms: C_3  and  O_4
REMARK    3  A    between atoms: O_4  and  C_5
REMARK    4  A    between atoms: C_10  and  C_11
REMARK    5  A    between atoms: N_16  and  C_17
REMARK    6  A    between atoms: C_17  and  C_18
REMARK    7  A    between atoms: C_18  and  O_19
REMARK    8  A    between atoms: C_18  and  C_20
REMARK    9  A    between atoms: C_20  and  N_21
REMARK                            x       y       z     vdW  Elec       q    Type
REMARK                         _______ _______ _______ _____ _____    ______ ____
ROOT
ATOM      1  O   UNL     1       8.425   5.207  20.112  0.00  0.00    +0.000 OA
ATOM      2  C   UNL     1       7.767   5.958  19.389  0.00  0.00    +0.000 C 
ATOM      3  N   UNL     1       8.364   7.082  18.904  0.00  0.00    +0.000 N 
ATOM      4  H   UNL     1       9.359   7.126  19.103  0.00  0.00    +0.000 HD
ENDROOT
BRANCH   2   5
ATOM      5  C   UNL     1       6.308   5.671  19.052  0.00  0.00    +0.000 C 
BRANCH   5   6
ATOM      6  O   UNL     1       6.109   4.271  18.897  0.00  0.00    +0.000 OA
BRANCH   6   7
ATOM      7  C   UNL     1       4.827   3.834  18.655  0.00  0.00    +0.000 A 
ATOM      8  C   UNL     1       3.984   3.323  19.657  0.00  0.00    +0.000 A 
ATOM      9  C   UNL     1       2.685   2.895  19.362  0.00  0.00    +0.000 A 
ATOM     10  C   UNL     1       2.202   2.977  18.063  0.00  0.00    +0.000 A 
ATOM     11  C   UNL     1       3.027   3.472  17.057  0.00  0.00    +0.000 A 
ATOM     12  C   UNL     1       4.345   3.901  17.328  0.00  0.00    +0.000 A 
BRANCH  12  13
ATOM     13  C   UNL     1       5.144   4.399  16.199  0.00  0.00    +0.000 A 
ATOM     14  C   UNL     1       5.968   3.670  15.298  0.00  0.00    +0.000 A 
ATOM     15  C   UNL     1       6.461   4.595  14.409  0.00  0.00    +0.000 A 
ATOM     16  N   UNL     1       5.928   5.787  14.787  0.00  0.00    +0.000 N 
ATOM     17  N   UNL     1       5.132   5.703  15.861  0.00  0.00    +0.000 NA
ATOM     18  H   UNL     1       6.052   6.696  14.356  0.00  0.00    +0.000 HD
ENDBRANCH  12  13
ENDBRANCH   6   7
ENDBRANCH   5   6
ENDBRANCH   2   5
BRANCH   3  19
ATOM     19  C   UNL     1       7.848   8.025  17.922  0.00  0.00    +0.000 C 
BRANCH  19  20
ATOM     20  C   UNL     1       8.587   9.354  18.055  0.00  0.00    +0.000 C 
BRANCH  20  21
ATOM     21  O   UNL     1       7.702  10.409  17.599  0.00  0.00    +0.000 OA
ATOM     22  H   UNL     1       8.212  10.987  17.001  0.00  0.00    +0.000 HD
ENDBRANCH  20  21
BRANCH  20  23
ATOM     23  C   UNL     1       9.023   9.705  19.486  0.00  0.00    +0.000 C 
BRANCH  23  24
ATOM     24  N   UNL     1      10.124  10.660  19.737  0.00  0.00    +0.000 NA
ATOM     25  C   UNL     1       9.546  11.688  20.637  0.00  0.00    +0.000 C 
ATOM     26  C   UNL     1      10.342  12.966  20.719  0.00  0.00    +0.000 C 
ATOM     27  C   UNL     1      10.348  13.544  19.342  0.00  0.00    +0.000 A 
ATOM     28  C   UNL     1       9.922  14.841  19.062  0.00  0.00    +0.000 A 
ATOM     29  C   UNL     1      10.211  15.399  17.824  0.00  0.00    +0.000 A 
ATOM     30  C   UNL     1      10.982  14.679  16.912  0.00  0.00    +0.000 A 
ATOM     31  C   UNL     1      11.268  13.327  17.149  0.00  0.00    +0.000 A 
ATOM     32  C   UNL     1      10.827  12.715  18.327  0.00  0.00    +0.000 A 
ATOM     33  C   UNL     1      10.790  11.200  18.509  0.00  0.00    +0.000 C 
ENDBRANCH  23  24
ENDBRANCH  20  23
ENDBRANCH  19  20
ENDBRANCH   3  19
TORSDOF 9
ENDMDL
MODEL 8
REMARK VINA RESULT:      -7.4      4.508      6.902
REMARK  Name = 
REMARK  9 active torsions:
REMARK  status: ('A' for Active; 'I' for Inactive)
REMARK    1  A    between atoms: C_2  and  C_3
REMARK    2  A    between atoms: C_3  and  O_4
REMARK    3  A    between atoms: O_4  and  C_5
REMARK    4  A    between atoms: C_10  and  C_11
REMARK    5  A    between atoms: N_16  and  C_17
REMARK    6  A    between atoms: C_17  and  C_18
REMARK    7  A    between atoms: C_18  and  O_19
REMARK    8  A    between atoms: C_18  and  C_20
REMARK    9  A    between atoms: C_20  and  N_21
REMARK                            x       y       z     vdW  Elec       q    Type
REMARK                         _______ _______ _______ _____ _____    ______ ____
ROOT
ATOM      1  O   UNL     1       2.574   7.631  17.646  0.00  0.00    +0.000 OA
ATOM      2  C   UNL     1       2.107   7.949  18.742  0.00  0.00    +0.000 C 
ATOM      3  N   UNL     1       1.476   9.150  18.857  0.00  0.00    +0.000 N 
ATOM      4  H   UNL     1       1.352   9.625  17.968  0.00  0.00    +0.000 HD
ENDROOT
BRANCH   2   5
ATOM      5  C   UNL     1       2.241   7.045  19.963  0.00  0.00    +0.000 C 
BRANCH   5   6
ATOM      6  O   UNL     1       3.142   5.979  19.685  0.00  0.00    +0.000 OA
BRANCH   6   7
ATOM      7  C   UNL     1       2.619   4.709  19.606  0.00  0.00    +0.000 A 
ATOM      8  C   UNL     1       1.384   4.348  20.170  0.00  0.00    +0.000 A 
ATOM      9  C   UNL     1       0.891   3.043  20.059  0.00  0.00    +0.000 A 
ATOM     10  C   UNL     1       1.621   2.078  19.377  0.00  0.00    +0.000 A 
ATOM     11  C   UNL     1       2.852   2.417  18.822  0.00  0.00    +0.000 A 
ATOM     12  C   UNL     1       3.374   3.725  18.928  0.00  0.00    +0.000 A 
BRANCH  12  13
ATOM     13  C   UNL     1       4.685   3.985  18.318  0.00  0.00    +0.000 A 
ATOM     14  C   UNL     1       4.994   4.307  16.968  0.00  0.00    +0.000 A 
ATOM     15  C   UNL     1       6.355   4.489  16.928  0.00  0.00    +0.000 A 
ATOM     16  N   UNL     1       6.790   4.290  18.201  0.00  0.00    +0.000 N 
ATOM     17  N   UNL     1       5.810   3.985  19.061  0.00  0.00    +0.000 NA
ATOM     18  H   UNL     1       7.736   4.355  18.560  0.00  0.00    +0.000 HD
ENDBRANCH  12  13
ENDBRANCH   6   7
ENDBRANCH   5   6
ENDBRANCH   2   5
BRANCH   3  19
ATOM     19  C   UNL     1       0.720   9.667  19.989  0.00  0.00    +0.000 C 
BRANCH  19  20
ATOM     20  C   UNL     1       0.301  11.108  19.706  0.00  0.00    +0.000 C 
BRANCH  20  21
ATOM     21  O   UNL     1       0.520  11.372  18.298  0.00  0.00    +0.000 OA
ATOM     22  H   UNL     1       0.043  12.194  18.072  0.00  0.00    +0.000 HD
ENDBRANCH  20  21
BRANCH  20  23
ATOM     23  C   UNL     1      -1.173  11.417  20.010  0.00  0.00    +0.000 C 
BRANCH  23  24
ATOM     24  N   UNL     1      -1.556  12.592  20.823  0.00  0.00    +0.000 NA
ATOM     25  C   UNL     1      -1.082  12.284  22.195  0.00  0.00    +0.000 C 
ATOM     26  C   UNL     1      -1.696  13.139  23.275  0.00  0.00    +0.000 C 
ATOM     27  C   UNL     1      -3.163  12.863  23.245  0.00  0.00    +0.000 A 
ATOM     28  C   UNL     1      -3.879  12.449  24.367  0.00  0.00    +0.000 A 
ATOM     29  C   UNL     1      -5.268  12.479  24.336  0.00  0.00    +0.000 A 
ATOM     30  C   UNL     1      -5.915  12.988  23.211  0.00  0.00    +0.000 A 
ATOM     31  C   UNL     1      -5.189  13.253  22.042  0.00  0.00    +0.000 A 
ATOM     32  C   UNL     1      -3.803  13.060  22.021  0.00  0.00    +0.000 A 
ATOM     33  C   UNL     1      -2.996  12.990  20.727  0.00  0.00    +0.000 C 
ENDBRANCH  23  24
ENDBRANCH  20  23
ENDBRANCH  19  20
ENDBRANCH   3  19
TORSDOF 9
ENDMDL
MODEL 9
REMARK VINA RESULT:      -7.4      4.588      6.999
REMARK  Name = 
REMARK  9 active torsions:
REMARK  status: ('A' for Active; 'I' for Inactive)
REMARK    1  A    between atoms: C_2  and  C_3
REMARK    2  A    between atoms: C_3  and  O_4
REMARK    3  A    between atoms: O_4  and  C_5
REMARK    4  A    between atoms: C_10  and  C_11
REMARK    5  A    between atoms: N_16  and  C_17
REMARK    6  A    between atoms: C_17  and  C_18
REMARK    7  A    between atoms: C_18  and  O_19
REMARK    8  A    between atoms: C_18  and  C_20
REMARK    9  A    between atoms: C_20  and  N_21
REMARK                            x       y       z     vdW  Elec       q    Type
REMARK                         _______ _______ _______ _____ _____    ______ ____
ROOT
ATOM      1  O   UNL     1       2.581   8.228  17.111  0.00  0.00    +0.000 OA
ATOM      2  C   UNL     1       2.213   8.445  18.267  0.00  0.00    +0.000 C 
ATOM      3  N   UNL     1       1.697   9.669  18.567  0.00  0.00    +0.000 N 
ATOM      4  H   UNL     1       1.558  10.257  17.751  0.00  0.00    +0.000 HD
ENDROOT
BRANCH   2   5
ATOM      5  C   UNL     1       2.346   7.391  19.361  0.00  0.00    +0.000 C 
BRANCH   5   6
ATOM      6  O   UNL     1       2.826   6.171  18.809  0.00  0.00    +0.000 OA
BRANCH   6   7
ATOM      7  C   UNL     1       2.625   5.022  19.538  0.00  0.00    +0.000 A 
ATOM      8  C   UNL     1       1.511   4.822  20.372  0.00  0.00    +0.000 A 
ATOM      9  C   UNL     1       1.348   3.633  21.091  0.00  0.00    +0.000 A 
ATOM     10  C   UNL     1       2.291   2.619  20.983  0.00  0.00    +0.000 A 
ATOM     11  C   UNL     1       3.405   2.804  20.169  0.00  0.00    +0.000 A 
ATOM     12  C   UNL     1       3.596   3.999  19.441  0.00  0.00    +0.000 A 
BRANCH  12  13
ATOM     13  C   UNL     1       4.808   4.107  18.617  0.00  0.00    +0.000 A 
ATOM     14  C   UNL     1       4.926   4.115  17.200  0.00  0.00    +0.000 A 
ATOM     15  C   UNL     1       6.265   4.274  16.936  0.00  0.00    +0.000 A 
ATOM     16  N   UNL     1       6.871   4.363  18.150  0.00  0.00    +0.000 N 
ATOM     17  N   UNL     1       6.021   4.266  19.181  0.00  0.00    +0.000 NA
ATOM     18  H   UNL     1       7.854   4.500  18.354  0.00  0.00    +0.000 HD
ENDBRANCH  12  13
ENDBRANCH   6   7
ENDBRANCH   5   6
ENDBRANCH   2   5
BRANCH   3  19
ATOM     19  C   UNL     1       1.062  10.101  19.804  0.00  0.00    +0.000 C 
BRANCH  19  20
ATOM     20  C   UNL     1       0.164  11.304  19.522  0.00  0.00    +0.000 C 
BRANCH  20  21
ATOM     21  O   UNL     1       0.717  12.023  18.391  0.00  0.00    +0.000 OA
ATOM     22  H   UNL     1       0.075  11.964  17.659  0.00  0.00    +0.000 HD
ENDBRANCH  20  21
BRANCH  20  23
ATOM     23  C   UNL     1      -1.291  10.950  19.175  0.00  0.00    +0.000 C 
BRANCH  23  24
ATOM     24  N   UNL     1      -2.304  12.006  18.964  0.00  0.00    +0.000 NA
ATOM     25  C   UNL     1      -2.645  12.492  20.324  0.00  0.00    +0.000 C 
ATOM     26  C   UNL     1      -3.928  13.282  20.402  0.00  0.00    +0.000 C 
ATOM     27  C   UNL     1      -5.019  12.353  19.983  0.00  0.00    +0.000 A 
ATOM     28  C   UNL     1      -6.140  12.096  20.770  0.00  0.00    +0.000 A 
ATOM     29  C   UNL     1      -7.231  11.447  20.207  0.00  0.00    +0.000 A 
ATOM     30  C   UNL     1      -7.212  11.130  18.850  0.00  0.00    +0.000 A 
ATOM     31  C   UNL     1      -6.025  11.255  18.116  0.00  0.00    +0.000 A 
ATOM     32  C   UNL     1      -4.871  11.753  18.732  0.00  0.00    +0.000 A 
ATOM     33  C   UNL     1      -3.478  11.603  18.126  0.00  0.00    +0.000 C 
ENDBRANCH  23  24
ENDBRANCH  20  23
ENDBRANCH  19  20
ENDBRANCH   3  19
TORSDOF 9
ENDMDL
