MODEL 1
REMARK VINA RESULT:      -9.7      0.000      0.000
REMARK  Name = 
REMARK  2 active torsions:
REMARK  status: ('A' for Active; 'I' for Inactive)
REMARK    1  A    between atoms: C_1  and  C_2
REMARK    2  A    between atoms: C_2  and  C_3
REMARK                            x       y       z     vdW  Elec       q    Type
REMARK                         _______ _______ _______ _____ _____    ______ ____
ROOT
ATOM      1  C   UNL     1       7.585   5.183  18.417  0.00  0.00    +0.000 C 
ATOM      2  C   UNL     1       6.532   5.808  17.491  0.00  0.00    +0.000 C 
ATOM      3  C   UNL     1       6.746   7.326  17.450  0.00  0.00    +0.000 C 
ATOM      4  C   UNL     1       6.666   5.158  16.102  0.00  0.00    +0.000 A 
ATOM      5  N   UNL     1       7.441   5.608  15.060  0.00  0.00    +0.000 N 
ATOM      6  C   UNL     1       7.145   4.902  13.909  0.00  0.00    +0.000 A 
ATOM      7  C   UNL     1       7.617   5.053  12.599  0.00  0.00    +0.000 A 
ATOM      8  C   UNL     1       7.083   4.207  11.616  0.00  0.00    +0.000 A 
ATOM      9  C   UNL     1       6.118   3.256  11.936  0.00  0.00    +0.000 A 
ATOM     10 CL   UNL     1       5.453   2.258  10.699  0.00  0.00    +0.000 Cl
ATOM     11  C   UNL     1       5.669   3.101  13.245  0.00  0.00    +0.000 A 
ATOM     12  C   UNL     1       6.199   3.934  14.248  0.00  0.00    +0.000 A 
ATOM     13  C   UNL     1       5.949   4.058  15.637  0.00  0.00    +0.000 A 
ATOM     14  C   UNL     1       4.973   3.242  16.434  0.00  0.00    +0.000 C 
ATOM     15  C   UNL     1       4.825   3.773  17.850  0.00  0.00    +0.000 C 
ATOM     16  N   UNL     1       3.613   4.260  18.157  0.00  0.00    +0.000 N 
ATOM     17  C   UNL     1       4.144   4.560  19.706  0.00  0.00    +0.000 C 
ATOM     18  O   UNL     1       5.248   4.442  20.230  0.00  0.00    +0.000 OA
ATOM     19  C   UNL     1       2.957   5.131  20.130  0.00  0.00    +0.000 C 
ATOM     20  C   UNL     1       1.526   5.191  19.541  0.00  0.00    +0.000 C 
ATOM     21  C   UNL     1       0.760   3.922  20.003  0.00  0.00    +0.000 C 
ATOM     22  C   UNL     1       1.754   2.800  20.326  0.00  0.00    +0.000 C 
ATOM     23  N   UNL     1       3.033   3.377  20.020  0.00  0.00    +0.000 N 
ATOM     24  C   UNL     1       3.974   2.580  18.906  0.00  0.00    +0.000 C 
ATOM     25  O   UNL     1       4.002   1.362  18.806  0.00  0.00    +0.000 OA
ATOM     26  C   UNL     1       4.011   6.283  19.132  0.00  0.00    +0.000 C 
ATOM     27  C   UNL     1       5.057   5.468  17.861  0.00  0.00    +0.000 C 
ATOM     28  H   UNL     1       8.077   6.392  15.096  0.00  0.00    +0.000 HD
ATOM     29  H   UNL     1       2.697   3.847  17.988  0.00  0.00    +0.000 HD
ENDROOT
TORSDOF 0
ENDMDL
MODEL 2
REMARK VINA RESULT:      -7.5     10.124     13.663
REMARK  Name = 
REMARK  2 active torsions:
REMARK  status: ('A' for Active; 'I' for Inactive)
REMARK    1  A    between atoms: C_1  and  C_2
REMARK    2  A    between atoms: C_2  and  C_3
REMARK                            x       y       z     vdW  Elec       q    Type
REMARK                         _______ _______ _______ _____ _____    ______ ____
ROOT
ATOM      1  C   UNL     1      11.487  11.750  20.266  0.00  0.00    +0.000 C 
ATOM      2  C   UNL     1      10.029  12.207  20.122  0.00  0.00    +0.000 C 
ATOM      3  C   UNL     1       9.258  11.160  19.309  0.00  0.00    +0.000 C 
ATOM      4  C   UNL     1       9.443  12.403  21.532  0.00  0.00    +0.000 A 
ATOM      5  N   UNL     1       8.778  11.460  22.280  0.00  0.00    +0.000 N 
ATOM      6  C   UNL     1       8.211  12.052  23.393  0.00  0.00    +0.000 A 
ATOM      7  C   UNL     1       7.389  11.515  24.392  0.00  0.00    +0.000 A 
ATOM      8  C   UNL     1       6.918  12.388  25.382  0.00  0.00    +0.000 A 
ATOM      9  C   UNL     1       7.256  13.739  25.367  0.00  0.00    +0.000 A 
ATOM     10 CL   UNL     1       6.629  14.795  26.575  0.00  0.00    +0.000 Cl
ATOM     11  C   UNL     1       8.090  14.259  24.380  0.00  0.00    +0.000 A 
ATOM     12  C   UNL     1       8.581  13.396  23.382  0.00  0.00    +0.000 A 
ATOM     13  C   UNL     1       9.405  13.598  22.247  0.00  0.00    +0.000 A 
ATOM     14  C   UNL     1      10.007  14.902  21.815  0.00  0.00    +0.000 C 
ATOM     15  C   UNL     1      10.671  14.788  20.452  0.00  0.00    +0.000 C 
ATOM     16  N   UNL     1      10.107  15.515  19.476  0.00  0.00    +0.000 N 
ATOM     17  C   UNL     1      11.283  14.984  18.423  0.00  0.00    +0.000 C 
ATOM     18  O   UNL     1      12.197  14.174  18.558  0.00  0.00    +0.000 OA
ATOM     19  C   UNL     1      10.768  15.647  17.325  0.00  0.00    +0.000 C 
ATOM     20  C   UNL     1       9.699  16.754  17.144  0.00  0.00    +0.000 C 
ATOM     21  C   UNL     1      10.400  18.131  17.301  0.00  0.00    +0.000 C 
ATOM     22  C   UNL     1      11.672  17.978  18.143  0.00  0.00    +0.000 C 
ATOM     23  N   UNL     1      11.682  16.586  18.498  0.00  0.00    +0.000 N 
ATOM     24  C   UNL     1      11.720  16.220  20.118  0.00  0.00    +0.000 C 
ATOM     25  O   UNL     1      12.329  16.891  20.940  0.00  0.00    +0.000 OA
ATOM     26  C   UNL     1       9.870  14.076  17.722  0.00  0.00    +0.000 C 
ATOM     27  C   UNL     1       9.849  13.627  19.503  0.00  0.00    +0.000 C 
ATOM     28  H   UNL     1       8.646  10.492  22.022  0.00  0.00    +0.000 HD
ATOM     29  H   UNL     1       9.820  16.492  19.491  0.00  0.00    +0.000 HD
ENDROOT
TORSDOF 0
ENDMDL
MODEL 3
REMARK VINA RESULT:      -7.1      3.683      7.135
REMARK  Name = 
REMARK  2 active torsions:
REMARK  status: ('A' for Active; 'I' for Inactive)
REMARK    1  A    between atoms: C_1  and  C_2
REMARK    2  A    between atoms: C_2  and  C_3
REMARK                            x       y       z     vdW  Elec       q    Type
REMARK                         _______ _______ _______ _____ _____    ______ ____
ROOT
ATOM      1  C   UNL     1       4.063   4.816  20.116  0.00  0.00    +0.000 C 
ATOM      2  C   UNL     1       3.054   5.108  18.998  0.00  0.00    +0.000 C 
ATOM      3  C   UNL     1       1.878   4.130  19.122  0.00  0.00    +0.000 C 
ATOM      4  C   UNL     1       2.610   6.578  19.120  0.00  0.00    +0.000 A 
ATOM      5  N   UNL     1       1.534   7.051  19.830  0.00  0.00    +0.000 N 
ATOM      6  C   UNL     1       1.319   8.384  19.535  0.00  0.00    +0.000 A 
ATOM      7  C   UNL     1       0.308   9.259  19.951  0.00  0.00    +0.000 A 
ATOM      8  C   UNL     1       0.325  10.562  19.433  0.00  0.00    +0.000 A 
ATOM      9  C   UNL     1       1.310  10.964  18.536  0.00  0.00    +0.000 A 
ATOM     10 CL   UNL     1       1.281  12.559  17.886  0.00  0.00    +0.000 Cl
ATOM     11  C   UNL     1       2.322  10.092  18.142  0.00  0.00    +0.000 A 
ATOM     12  C   UNL     1       2.328   8.782  18.658  0.00  0.00    +0.000 A 
ATOM     13  C   UNL     1       3.172   7.662  18.450  0.00  0.00    +0.000 A 
ATOM     14  C   UNL     1       4.372   7.618  17.551  0.00  0.00    +0.000 C 
ATOM     15  C   UNL     1       4.923   6.207  17.422  0.00  0.00    +0.000 C 
ATOM     16  N   UNL     1       4.842   5.668  16.196  0.00  0.00    +0.000 N 
ATOM     17  C   UNL     1       5.608   4.303  16.763  0.00  0.00    +0.000 C 
ATOM     18  O   UNL     1       5.970   3.976  17.890  0.00  0.00    +0.000 OA
ATOM     19  C   UNL     1       5.541   3.622  15.561  0.00  0.00    +0.000 C 
ATOM     20  C   UNL     1       5.200   4.039  14.110  0.00  0.00    +0.000 C 
ATOM     21  C   UNL     1       6.505   4.543  13.434  0.00  0.00    +0.000 C 
ATOM     22  C   UNL     1       7.491   5.033  14.501  0.00  0.00    +0.000 C 
ATOM     23  N   UNL     1       6.773   4.865  15.734  0.00  0.00    +0.000 N 
ATOM     24  C   UNL     1       6.569   6.217  16.678  0.00  0.00    +0.000 C 
ATOM     25  O   UNL     1       7.411   7.098  16.773  0.00  0.00    +0.000 OA
ATOM     26  C   UNL     1       3.951   3.593  16.512  0.00  0.00    +0.000 C 
ATOM     27  C   UNL     1       3.649   5.073  17.557  0.00  0.00    +0.000 C 
ATOM     28  H   UNL     1       0.930   6.496  20.421  0.00  0.00    +0.000 HD
ATOM     29  H   UNL     1       5.099   6.079  15.300  0.00  0.00    +0.000 HD
ENDROOT
TORSDOF 0
ENDMDL
MODEL 4
REMARK VINA RESULT:      -6.9      3.666      7.466
REMARK  Name = 
REMARK  2 active torsions:
REMARK  status: ('A' for Active; 'I' for Inactive)
REMARK    1  A    between atoms: C_1  and  C_2
REMARK    2  A    between atoms: C_2  and  C_3
REMARK                            x       y       z     vdW  Elec       q    Type
REMARK                         _______ _______ _______ _____ _____    ______ ____
ROOT
ATOM      1  C   UNL     1       3.250   3.905  20.942  0.00  0.00    +0.000 C 
ATOM      2  C   UNL     1       2.315   4.420  19.839  0.00  0.00    +0.000 C 
ATOM      3  C   UNL     1       1.110   3.478  19.730  0.00  0.00    +0.000 C 
ATOM      4  C   UNL     1       1.902   5.862  20.191  0.00  0.00    +0.000 A 
ATOM      5  N   UNL     1       0.798   6.243  20.915  0.00  0.00    +0.000 N 
ATOM      6  C   UNL     1       0.635   7.614  20.843  0.00  0.00    +0.000 A 
ATOM      7  C   UNL     1      -0.376   8.440  21.352  0.00  0.00    +0.000 A 
ATOM      8  C   UNL     1      -0.296   9.811  21.069  0.00  0.00    +0.000 A 
ATOM      9  C   UNL     1       0.750  10.326  20.308  0.00  0.00    +0.000 A 
ATOM     10 CL   UNL     1       0.799  12.009  19.944  0.00  0.00    +0.000 Cl
ATOM     11  C   UNL     1       1.761   9.500  19.823  0.00  0.00    +0.000 A 
ATOM     12  C   UNL     1       1.703   8.121  20.104  0.00  0.00    +0.000 A 
ATOM     13  C   UNL     1       2.529   7.025  19.750  0.00  0.00    +0.000 A 
ATOM     14  C   UNL     1       3.778   7.094  18.922  0.00  0.00    +0.000 C 
ATOM     15  C   UNL     1       4.299   5.708  18.580  0.00  0.00    +0.000 C 
ATOM     16  N   UNL     1       4.277   5.391  17.276  0.00  0.00    +0.000 N 
ATOM     17  C   UNL     1       4.974   3.923  17.638  0.00  0.00    +0.000 C 
ATOM     18  O   UNL     1       5.261   3.394  18.709  0.00  0.00    +0.000 OA
ATOM     19  C   UNL     1       4.959   3.460  16.335  0.00  0.00    +0.000 C 
ATOM     20  C   UNL     1       4.715   4.133  14.961  0.00  0.00    +0.000 C 
ATOM     21  C   UNL     1       6.069   4.699  14.453  0.00  0.00    +0.000 C 
ATOM     22  C   UNL     1       7.003   4.963  15.639  0.00  0.00    +0.000 C 
ATOM     23  N   UNL     1       6.210   4.612  16.785  0.00  0.00    +0.000 N 
ATOM     24  C   UNL     1       5.986   5.787  17.937  0.00  0.00    +0.000 C 
ATOM     25  O   UNL     1       6.843   6.610  18.228  0.00  0.00    +0.000 OA
ATOM     26  C   UNL     1       3.316   3.324  17.180  0.00  0.00    +0.000 C 
ATOM     27  C   UNL     1       2.992   4.613  18.449  0.00  0.00    +0.000 C 
ATOM     28  H   UNL     1       0.147   5.617  21.368  0.00  0.00    +0.000 HD
ATOM     29  H   UNL     1       4.596   5.940  16.480  0.00  0.00    +0.000 HD
ENDROOT
TORSDOF 0
ENDMDL
MODEL 5
REMARK VINA RESULT:      -6.9     10.226     12.501
REMARK  Name = 
REMARK  2 active torsions:
REMARK  status: ('A' for Active; 'I' for Inactive)
REMARK    1  A    between atoms: C_1  and  C_2
REMARK    2  A    between atoms: C_2  and  C_3
REMARK                            x       y       z     vdW  Elec       q    Type
REMARK                         _______ _______ _______ _____ _____    ______ ____
ROOT
ATOM      1  C   UNL     1       7.979  15.132  23.004  0.00  0.00    +0.000 C 
ATOM      2  C   UNL     1       7.202  14.131  22.138  0.00  0.00    +0.000 C 
ATOM      3  C   UNL     1       6.570  13.071  23.049  0.00  0.00    +0.000 C 
ATOM      4  C   UNL     1       6.151  14.909  21.326  0.00  0.00    +0.000 A 
ATOM      5  N   UNL     1       4.853  15.163  21.699  0.00  0.00    +0.000 N 
ATOM      6  C   UNL     1       4.148  15.694  20.635  0.00  0.00    +0.000 A 
ATOM      7  C   UNL     1       2.796  16.037  20.516  0.00  0.00    +0.000 A 
ATOM      8  C   UNL     1       2.354  16.513  19.274  0.00  0.00    +0.000 A 
ATOM      9  C   UNL     1       3.232  16.635  18.200  0.00  0.00    +0.000 A 
ATOM     10 CL   UNL     1       2.651  17.185  16.674  0.00  0.00    +0.000 Cl
ATOM     11  C   UNL     1       4.580  16.309  18.333  0.00  0.00    +0.000 A 
ATOM     12  C   UNL     1       5.044  15.839  19.576  0.00  0.00    +0.000 A 
ATOM     13  C   UNL     1       6.313  15.404  20.034  0.00  0.00    +0.000 A 
ATOM     14  C   UNL     1       7.573  15.349  19.221  0.00  0.00    +0.000 C 
ATOM     15  C   UNL     1       8.694  14.651  19.973  0.00  0.00    +0.000 C 
ATOM     16  N   UNL     1       9.115  13.496  19.436  0.00  0.00    +0.000 N 
ATOM     17  C   UNL     1      10.259  13.372  20.639  0.00  0.00    +0.000 C 
ATOM     18  O   UNL     1      10.482  14.060  21.631  0.00  0.00    +0.000 OA
ATOM     19  C   UNL     1      10.748  12.151  20.212  0.00  0.00    +0.000 C 
ATOM     20  C   UNL     1      10.573  11.319  18.917  0.00  0.00    +0.000 C 
ATOM     21  C   UNL     1      11.640  11.793  17.892  0.00  0.00    +0.000 C 
ATOM     22  C   UNL     1      12.067  13.231  18.209  0.00  0.00    +0.000 C 
ATOM     23  N   UNL     1      11.252  13.590  19.336  0.00  0.00    +0.000 N 
ATOM     24  C   UNL     1      10.288  14.934  19.173  0.00  0.00    +0.000 C 
ATOM     25  O   UNL     1      10.624  15.923  18.536  0.00  0.00    +0.000 OA
ATOM     26  C   UNL     1       9.168  12.015  21.170  0.00  0.00    +0.000 C 
ATOM     27  C   UNL     1       8.042  13.458  21.010  0.00  0.00    +0.000 C 
ATOM     28  H   UNL     1       4.440  14.925  22.590  0.00  0.00    +0.000 HD
ATOM     29  H   UNL     1       9.350  13.291  18.466  0.00  0.00    +0.000 HD
ENDROOT
TORSDOF 0
ENDMDL
MODEL 6
REMARK VINA RESULT:      -6.7     11.137     13.788
REMARK  Name = 
REMARK  2 active torsions:
REMARK  status: ('A' for Active; 'I' for Inactive)
REMARK    1  A    between atoms: C_1  and  C_2
REMARK    2  A    between atoms: C_2  and  C_3
REMARK                            x       y       z     vdW  Elec       q    Type
REMARK                         _______ _______ _______ _____ _____    ______ ____
ROOT
ATOM      1  C   UNL     1      -6.589  12.652  17.683  0.00  0.00    +0.000 C 
ATOM      2  C   UNL     1      -6.077  11.594  18.670  0.00  0.00    +0.000 C 
ATOM      3  C   UNL     1      -6.813  10.274  18.408  0.00  0.00    +0.000 C 
ATOM      4  C   UNL     1      -4.553  11.462  18.488  0.00  0.00    +0.000 A 
ATOM      5  N   UNL     1      -3.902  10.589  17.650  0.00  0.00    +0.000 N 
ATOM      6  C   UNL     1      -2.544  10.604  17.912  0.00  0.00    +0.000 A 
ATOM      7  C   UNL     1      -1.503   9.839  17.372  0.00  0.00    +0.000 A 
ATOM      8  C   UNL     1      -0.214  10.047  17.883  0.00  0.00    +0.000 A 
ATOM      9  C   UNL     1       0.016  10.980  18.890  0.00  0.00    +0.000 A 
ATOM     10 CL   UNL     1       1.605  11.185  19.525  0.00  0.00    +0.000 Cl
ATOM     11  C   UNL     1      -1.023  11.749  19.408  0.00  0.00    +0.000 A 
ATOM     12  C   UNL     1      -2.324  11.561  18.902  0.00  0.00    +0.000 A 
ATOM     13  C   UNL     1      -3.578  12.141  19.215  0.00  0.00    +0.000 A 
ATOM     14  C   UNL     1      -3.828  13.196  20.253  0.00  0.00    +0.000 C 
ATOM     15  C   UNL     1      -5.314  13.442  20.454  0.00  0.00    +0.000 C 
ATOM     16  N   UNL     1      -5.792  13.115  21.664  0.00  0.00    +0.000 N 
ATOM     17  C   UNL     1      -7.295  13.663  21.200  0.00  0.00    +0.000 C 
ATOM     18  O   UNL     1      -7.717  14.085  20.127  0.00  0.00    +0.000 OA
ATOM     19  C   UNL     1      -7.917  13.323  22.388  0.00  0.00    +0.000 C 
ATOM     20  C   UNL     1      -7.401  12.902  23.786  0.00  0.00    +0.000 C 
ATOM     21  C   UNL     1      -7.138  14.191  24.612  0.00  0.00    +0.000 C 
ATOM     22  C   UNL     1      -6.878  15.372  23.670  0.00  0.00    +0.000 C 
ATOM     23  N   UNL     1      -6.938  14.785  22.360  0.00  0.00    +0.000 N 
ATOM     24  C   UNL     1      -5.600  14.960  21.391  0.00  0.00    +0.000 C 
ATOM     25  O   UNL     1      -4.900  15.963  21.395  0.00  0.00    +0.000 OA
ATOM     26  C   UNL     1      -7.666  11.881  21.252  0.00  0.00    +0.000 C 
ATOM     27  C   UNL     1      -6.185  11.998  20.171  0.00  0.00    +0.000 C 
ATOM     28  H   UNL     1      -4.346   9.963  16.994  0.00  0.00    +0.000 HD
ATOM     29  H   UNL     1      -5.414  13.340  22.583  0.00  0.00    +0.000 HD
ENDROOT
TORSDOF 0
ENDMDL
