MODEL 1
REMARK VINA RESULT:      -8.3      0.000      0.000
REMARK  Name = 
REMARK  10 active torsions:
REMARK  status: ('A' for Active; 'I' for Inactive)
REMARK    1  A    between atoms: C_1  and  C_2
REMARK    2  A    between atoms: C_2  and  N_3
REMARK    3  A    between atoms: C_6  and  C_7
REMARK    4  A    between atoms: C_13  and  C_14
REMARK    5  A    between atoms: C_14  and  O_16
REMARK    6  A    between atoms: O_16  and  C_17
REMARK    7  A    between atoms: C_17  and  C_18
REMARK    8  A    between atoms: C_18  and  C_19
REMARK    9  A    between atoms: C_19  and  C_20
REMARK   10  A    between atoms: C_20  and  C_21
REMARK                            x       y       z     vdW  Elec       q    Type
REMARK                         _______ _______ _______ _____ _____    ______ ____
ROOT
ATOM      1  N   UNL     1       4.618   5.265  18.444  0.00  0.00    +0.000 NA
ATOM      2  C   UNL     1       4.455   3.939  17.826  0.00  0.00    +0.000 C 
ATOM      3  C   UNL     1       4.992   3.806  16.431  0.00  0.00    +0.000 C 
ATOM      4  C   UNL     1       5.510   4.827  15.727  0.00  0.00    +0.000 C 
ATOM      5  C   UNL     1       5.587   6.208  16.347  0.00  0.00    +0.000 C 
ATOM      6  C   UNL     1       4.521   6.354  17.459  0.00  0.00    +0.000 C 
ENDROOT
BRANCH   4   7
ATOM      7  C   UNL     1       5.983   4.583  14.350  0.00  0.00    +0.000 A 
ATOM      8  C   UNL     1       5.310   3.683  13.516  0.00  0.00    +0.000 A 
ATOM      9  C   UNL     1       5.842   3.320  12.274  0.00  0.00    +0.000 A 
ATOM     10  C   UNL     1       7.054   3.865  11.847  0.00  0.00    +0.000 A 
ATOM     11  C   UNL     1       7.714   4.788  12.651  0.00  0.00    +0.000 A 
ATOM     12  C   UNL     1       7.187   5.144  13.897  0.00  0.00    +0.000 A 
ENDBRANCH   4   7
BRANCH   1  14
ATOM     13  C   UNL     1       2.424   6.163  19.121  0.00  0.00    +0.000 C 
ATOM     14  C   UNL     1       3.695   5.450  19.573  0.00  0.00    +0.000 C 
ENDBRANCH   1  14
BRANCH   5  15
ATOM     15  C   UNL     1       6.964   6.446  16.950  0.00  0.00    +0.000 C 
ATOM     16  O   UNL     1       7.745   5.563  17.328  0.00  0.00    +0.000 OA
BRANCH  15  17
ATOM     17  O   UNL     1       7.277   7.776  16.980  0.00  0.00    +0.000 OA
BRANCH  17  18
ATOM     18  C   UNL     1       8.105   8.131  18.091  0.00  0.00    +0.000 C 
BRANCH  18  19
ATOM     19  C   UNL     1       8.489   9.607  18.011  0.00  0.00    +0.000 C 
BRANCH  19  20
ATOM     20  C   UNL     1       9.220  10.011  19.294  0.00  0.00    +0.000 C 
BRANCH  20  21
ATOM     21  C   UNL     1      10.231  11.136  19.081  0.00  0.00    +0.000 C 
BRANCH  21  22
ATOM     22  C   UNL     1      10.126  12.246  20.109  0.00  0.00    +0.000 A 
ATOM     23  C   UNL     1       9.366  12.035  21.264  0.00  0.00    +0.000 A 
ATOM     24  C   UNL     1       9.196  13.055  22.207  0.00  0.00    +0.000 A 
ATOM     25  C   UNL     1       9.792  14.297  22.008  0.00  0.00    +0.000 A 
ATOM     26  C   UNL     1      10.579  14.512  20.882  0.00  0.00    +0.000 A 
ATOM     27  C   UNL     1      10.752  13.492  19.936  0.00  0.00    +0.000 A 
ENDBRANCH  21  22
ENDBRANCH  20  21
ENDBRANCH  19  20
ENDBRANCH  18  19
ENDBRANCH  17  18
ENDBRANCH  15  17
ENDBRANCH   5  15
TORSDOF 9
ENDMDL
MODEL 2
REMARK VINA RESULT:      -8.2      1.300      1.822
REMARK  Name = 
REMARK  10 active torsions:
REMARK  status: ('A' for Active; 'I' for Inactive)
REMARK    1  A    between atoms: C_1  and  C_2
REMARK    2  A    between atoms: C_2  and  N_3
REMARK    3  A    between atoms: C_6  and  C_7
REMARK    4  A    between atoms: C_13  and  C_14
REMARK    5  A    between atoms: C_14  and  O_16
REMARK    6  A    between atoms: O_16  and  C_17
REMARK    7  A    between atoms: C_17  and  C_18
REMARK    8  A    between atoms: C_18  and  C_19
REMARK    9  A    between atoms: C_19  and  C_20
REMARK   10  A    between atoms: C_20  and  C_21
REMARK                            x       y       z     vdW  Elec       q    Type
REMARK                         _______ _______ _______ _____ _____    ______ ____
ROOT
ATOM      1  N   UNL     1       4.501   5.133  18.502  0.00  0.00    +0.000 NA
ATOM      2  C   UNL     1       4.466   3.805  17.868  0.00  0.00    +0.000 C 
ATOM      3  C   UNL     1       5.039   3.734  16.483  0.00  0.00    +0.000 C 
ATOM      4  C   UNL     1       5.481   4.804  15.800  0.00  0.00    +0.000 C 
ATOM      5  C   UNL     1       5.427   6.179  16.434  0.00  0.00    +0.000 C 
ATOM      6  C   UNL     1       4.330   6.221  17.524  0.00  0.00    +0.000 C 
ENDROOT
BRANCH   4   7
ATOM      7  C   UNL     1       6.000   4.616  14.430  0.00  0.00    +0.000 A 
ATOM      8  C   UNL     1       5.366   3.740  13.543  0.00  0.00    +0.000 A 
ATOM      9  C   UNL     1       5.941   3.429  12.306  0.00  0.00    +0.000 A 
ATOM     10  C   UNL     1       7.159   4.004  11.939  0.00  0.00    +0.000 A 
ATOM     11  C   UNL     1       7.781   4.904  12.796  0.00  0.00    +0.000 A 
ATOM     12  C   UNL     1       7.211   5.207  14.036  0.00  0.00    +0.000 A 
ENDBRANCH   4   7
BRANCH   1  14
ATOM     13  C   UNL     1       2.110   5.150  19.098  0.00  0.00    +0.000 C 
ATOM     14  C   UNL     1       3.544   5.226  19.613  0.00  0.00    +0.000 C 
ENDBRANCH   1  14
BRANCH   5  15
ATOM     15  C   UNL     1       6.766   6.527  17.067  0.00  0.00    +0.000 C 
ATOM     16  O   UNL     1       7.661   5.719  17.346  0.00  0.00    +0.000 OA
BRANCH  15  17
ATOM     17  O   UNL     1       6.899   7.874  17.251  0.00  0.00    +0.000 OA
BRANCH  17  18
ATOM     18  C   UNL     1       8.131   8.234  17.886  0.00  0.00    +0.000 C 
BRANCH  18  19
ATOM     19  C   UNL     1       8.287   9.752  17.910  0.00  0.00    +0.000 C 
BRANCH  19  20
ATOM     20  C   UNL     1       9.132  10.156  19.121  0.00  0.00    +0.000 C 
BRANCH  20  21
ATOM     21  C   UNL     1      10.482  10.762  18.739  0.00  0.00    +0.000 C 
BRANCH  21  22
ATOM     22  C   UNL     1      10.390  12.209  18.294  0.00  0.00    +0.000 A 
ATOM     23  C   UNL     1      11.281  12.683  17.326  0.00  0.00    +0.000 A 
ATOM     24  C   UNL     1      11.267  14.026  16.934  0.00  0.00    +0.000 A 
ATOM     25  C   UNL     1      10.354  14.909  17.501  0.00  0.00    +0.000 A 
ATOM     26  C   UNL     1       9.437  14.447  18.439  0.00  0.00    +0.000 A 
ATOM     27  C   UNL     1       9.449  13.102  18.834  0.00  0.00    +0.000 A 
ENDBRANCH  21  22
ENDBRANCH  20  21
ENDBRANCH  19  20
ENDBRANCH  18  19
ENDBRANCH  17  18
ENDBRANCH  15  17
ENDBRANCH   5  15
TORSDOF 9
ENDMDL
MODEL 3
REMARK VINA RESULT:      -8.1      1.438      2.176
REMARK  Name = 
REMARK  10 active torsions:
REMARK  status: ('A' for Active; 'I' for Inactive)
REMARK    1  A    between atoms: C_1  and  C_2
REMARK    2  A    between atoms: C_2  and  N_3
REMARK    3  A    between atoms: C_6  and  C_7
REMARK    4  A    between atoms: C_13  and  C_14
REMARK    5  A    between atoms: C_14  and  O_16
REMARK    6  A    between atoms: O_16  and  C_17
REMARK    7  A    between atoms: C_17  and  C_18
REMARK    8  A    between atoms: C_18  and  C_19
REMARK    9  A    between atoms: C_19  and  C_20
REMARK   10  A    between atoms: C_20  and  C_21
REMARK                            x       y       z     vdW  Elec       q    Type
REMARK                         _______ _______ _______ _____ _____    ______ ____
ROOT
ATOM      1  N   UNL     1       3.632   4.988  18.315  0.00  0.00    +0.000 NA
ATOM      2  C   UNL     1       3.179   3.977  17.346  0.00  0.00    +0.000 C 
ATOM      3  C   UNL     1       4.039   3.820  16.126  0.00  0.00    +0.000 C 
ATOM      4  C   UNL     1       5.106   4.593  15.858  0.00  0.00    +0.000 C 
ATOM      5  C   UNL     1       5.506   5.690  16.824  0.00  0.00    +0.000 C 
ATOM      6  C   UNL     1       4.283   6.134  17.661  0.00  0.00    +0.000 C 
ENDROOT
BRANCH   4   7
ATOM      7  C   UNL     1       5.863   4.364  14.611  0.00  0.00    +0.000 A 
ATOM      8  C   UNL     1       7.044   5.069  14.355  0.00  0.00    +0.000 A 
ATOM      9  C   UNL     1       7.676   4.984  13.110  0.00  0.00    +0.000 A 
ATOM     10  C   UNL     1       7.135   4.179  12.106  0.00  0.00    +0.000 A 
ATOM     11  C   UNL     1       5.982   3.446  12.360  0.00  0.00    +0.000 A 
ATOM     12  C   UNL     1       5.345   3.538  13.601  0.00  0.00    +0.000 A 
ENDBRANCH   4   7
BRANCH   1  14
ATOM     13  C   UNL     1       2.674   4.722  20.571  0.00  0.00    +0.000 C 
ATOM     14  C   UNL     1       2.543   5.401  19.211  0.00  0.00    +0.000 C 
ENDBRANCH   1  14
BRANCH   5  15
ATOM     15  C   UNL     1       6.596   5.199  17.766  0.00  0.00    +0.000 C 
ATOM     16  O   UNL     1       6.497   4.242  18.544  0.00  0.00    +0.000 OA
BRANCH  15  17
ATOM     17  O   UNL     1       7.749   5.917  17.616  0.00  0.00    +0.000 OA
BRANCH  17  18
ATOM     18  C   UNL     1       7.865   6.992  18.554  0.00  0.00    +0.000 C 
BRANCH  18  19
ATOM     19  C   UNL     1       7.905   8.330  17.820  0.00  0.00    +0.000 C 
BRANCH  19  20
ATOM     20  C   UNL     1       8.889   9.267  18.526  0.00  0.00    +0.000 C 
BRANCH  20  21
ATOM     21  C   UNL     1       8.836  10.701  18.001  0.00  0.00    +0.000 C 
BRANCH  21  22
ATOM     22  C   UNL     1      10.036  11.535  18.403  0.00  0.00    +0.000 A 
ATOM     23  C   UNL     1      10.605  12.406  17.467  0.00  0.00    +0.000 A 
ATOM     24  C   UNL     1      11.749  13.148  17.780  0.00  0.00    +0.000 A 
ATOM     25  C   UNL     1      12.333  13.033  19.037  0.00  0.00    +0.000 A 
ATOM     26  C   UNL     1      11.761  12.200  19.992  0.00  0.00    +0.000 A 
ATOM     27  C   UNL     1      10.614  11.455  19.681  0.00  0.00    +0.000 A 
ENDBRANCH  21  22
ENDBRANCH  20  21
ENDBRANCH  19  20
ENDBRANCH  18  19
ENDBRANCH  17  18
ENDBRANCH  15  17
ENDBRANCH   5  15
TORSDOF 9
ENDMDL
MODEL 4
REMARK VINA RESULT:      -8.0      1.196      1.723
REMARK  Name = 
REMARK  10 active torsions:
REMARK  status: ('A' for Active; 'I' for Inactive)
REMARK    1  A    between atoms: C_1  and  C_2
REMARK    2  A    between atoms: C_2  and  N_3
REMARK    3  A    between atoms: C_6  and  C_7
REMARK    4  A    between atoms: C_13  and  C_14
REMARK    5  A    between atoms: C_14  and  O_16
REMARK    6  A    between atoms: O_16  and  C_17
REMARK    7  A    between atoms: C_17  and  C_18
REMARK    8  A    between atoms: C_18  and  C_19
REMARK    9  A    between atoms: C_19  and  C_20
REMARK   10  A    between atoms: C_20  and  C_21
REMARK                            x       y       z     vdW  Elec       q    Type
REMARK                         _______ _______ _______ _____ _____    ______ ____
ROOT
ATOM      1  N   UNL     1       4.249   5.452  18.454  0.00  0.00    +0.000 NA
ATOM      2  C   UNL     1       4.134   4.123  17.834  0.00  0.00    +0.000 C 
ATOM      3  C   UNL     1       4.779   3.980  16.486  0.00  0.00    +0.000 C 
ATOM      4  C   UNL     1       5.352   4.997  15.819  0.00  0.00    +0.000 C 
ATOM      5  C   UNL     1       5.381   6.381  16.434  0.00  0.00    +0.000 C 
ATOM      6  C   UNL     1       4.231   6.535  17.457  0.00  0.00    +0.000 C 
ENDROOT
BRANCH   4   7
ATOM      7  C   UNL     1       5.931   4.744  14.484  0.00  0.00    +0.000 A 
ATOM      8  C   UNL     1       5.297   3.878  13.586  0.00  0.00    +0.000 A 
ATOM      9  C   UNL     1       5.918   3.502  12.390  0.00  0.00    +0.000 A 
ATOM     10  C   UNL     1       7.184   4.000  12.075  0.00  0.00    +0.000 A 
ATOM     11  C   UNL     1       7.808   4.889  12.942  0.00  0.00    +0.000 A 
ATOM     12  C   UNL     1       7.191   5.258  14.142  0.00  0.00    +0.000 A 
ENDBRANCH   4   7
BRANCH   1  14
ATOM     13  C   UNL     1       2.865   4.312  20.146  0.00  0.00    +0.000 C 
ATOM     14  C   UNL     1       3.240   5.645  19.506  0.00  0.00    +0.000 C 
ENDBRANCH   1  14
BRANCH   5  15
ATOM     15  C   UNL     1       6.707   6.622  17.141  0.00  0.00    +0.000 C 
ATOM     16  O   UNL     1       7.442   5.743  17.609  0.00  0.00    +0.000 OA
BRANCH  15  17
ATOM     17  O   UNL     1       7.033   7.949  17.159  0.00  0.00    +0.000 OA
BRANCH  17  18
ATOM     18  C   UNL     1       8.200   8.228  17.939  0.00  0.00    +0.000 C 
BRANCH  18  19
ATOM     19  C   UNL     1       8.504   9.724  17.914  0.00  0.00    +0.000 C 
BRANCH  19  20
ATOM     20  C   UNL     1       8.996  10.165  19.295  0.00  0.00    +0.000 C 
BRANCH  20  21
ATOM     21  C   UNL     1      10.409  10.747  19.273  0.00  0.00    +0.000 C 
BRANCH  21  22
ATOM     22  C   UNL     1      10.496  12.096  18.589  0.00  0.00    +0.000 A 
ATOM     23  C   UNL     1       9.750  13.167  19.095  0.00  0.00    +0.000 A 
ATOM     24  C   UNL     1       9.757  14.411  18.456  0.00  0.00    +0.000 A 
ATOM     25  C   UNL     1      10.517  14.602  17.307  0.00  0.00    +0.000 A 
ATOM     26  C   UNL     1      11.292  13.559  16.810  0.00  0.00    +0.000 A 
ATOM     27  C   UNL     1      11.287  12.311  17.448  0.00  0.00    +0.000 A 
ENDBRANCH  21  22
ENDBRANCH  20  21
ENDBRANCH  19  20
ENDBRANCH  18  19
ENDBRANCH  17  18
ENDBRANCH  15  17
ENDBRANCH   5  15
TORSDOF 9
ENDMDL
MODEL 5
REMARK VINA RESULT:      -7.9      0.785      1.087
REMARK  Name = 
REMARK  10 active torsions:
REMARK  status: ('A' for Active; 'I' for Inactive)
REMARK    1  A    between atoms: C_1  and  C_2
REMARK    2  A    between atoms: C_2  and  N_3
REMARK    3  A    between atoms: C_6  and  C_7
REMARK    4  A    between atoms: C_13  and  C_14
REMARK    5  A    between atoms: C_14  and  O_16
REMARK    6  A    between atoms: O_16  and  C_17
REMARK    7  A    between atoms: C_17  and  C_18
REMARK    8  A    between atoms: C_18  and  C_19
REMARK    9  A    between atoms: C_19  and  C_20
REMARK   10  A    between atoms: C_20  and  C_21
REMARK                            x       y       z     vdW  Elec       q    Type
REMARK                         _______ _______ _______ _____ _____    ______ ____
ROOT
ATOM      1  N   UNL     1       4.544   4.977  18.484  0.00  0.00    +0.000 NA
ATOM      2  C   UNL     1       4.258   3.731  17.754  0.00  0.00    +0.000 C 
ATOM      3  C   UNL     1       4.812   3.655  16.361  0.00  0.00    +0.000 C 
ATOM      4  C   UNL     1       5.454   4.669  15.754  0.00  0.00    +0.000 C 
ATOM      5  C   UNL     1       5.661   5.978  16.489  0.00  0.00    +0.000 C 
ATOM      6  C   UNL     1       4.589   6.147  17.591  0.00  0.00    +0.000 C 
ENDROOT
BRANCH   4   7
ATOM      7  C   UNL     1       5.933   4.489  14.370  0.00  0.00    +0.000 A 
ATOM      8  C   UNL     1       5.266   3.626  13.492  0.00  0.00    +0.000 A 
ATOM      9  C   UNL     1       5.803   3.321  12.237  0.00  0.00    +0.000 A 
ATOM     10  C   UNL     1       7.016   3.887  11.842  0.00  0.00    +0.000 A 
ATOM     11  C   UNL     1       7.670   4.773  12.689  0.00  0.00    +0.000 A 
ATOM     12  C   UNL     1       7.138   5.071  13.947  0.00  0.00    +0.000 A 
ENDBRANCH   4   7
BRANCH   1  14
ATOM     13  C   UNL     1       2.181   4.890  19.178  0.00  0.00    +0.000 C 
ATOM     14  C   UNL     1       3.618   5.167  19.608  0.00  0.00    +0.000 C 
ENDBRANCH   1  14
BRANCH   5  15
ATOM     15  C   UNL     1       7.040   6.015  17.132  0.00  0.00    +0.000 C 
ATOM     16  O   UNL     1       7.507   5.148  17.882  0.00  0.00    +0.000 OA
BRANCH  15  17
ATOM     17  O   UNL     1       7.748   7.116  16.739  0.00  0.00    +0.000 OA
BRANCH  17  18
ATOM     18  C   UNL     1       7.441   8.283  17.509  0.00  0.00    +0.000 C 
BRANCH  18  19
ATOM     19  C   UNL     1       8.543   8.544  18.533  0.00  0.00    +0.000 C 
BRANCH  19  20
ATOM     20  C   UNL     1       8.997  10.002  18.430  0.00  0.00    +0.000 C 
BRANCH  20  21
ATOM     21  C   UNL     1       9.400  10.603  19.775  0.00  0.00    +0.000 C 
BRANCH  21  22
ATOM     22  C   UNL     1       9.695  12.089  19.709  0.00  0.00    +0.000 A 
ATOM     23  C   UNL     1      10.437  12.683  20.735  0.00  0.00    +0.000 A 
ATOM     24  C   UNL     1      10.679  14.061  20.741  0.00  0.00    +0.000 A 
ATOM     25  C   UNL     1      10.187  14.860  19.714  0.00  0.00    +0.000 A 
ATOM     26  C   UNL     1       9.477  14.281  18.667  0.00  0.00    +0.000 A 
ATOM     27  C   UNL     1       9.234  12.900  18.659  0.00  0.00    +0.000 A 
ENDBRANCH  21  22
ENDBRANCH  20  21
ENDBRANCH  19  20
ENDBRANCH  18  19
ENDBRANCH  17  18
ENDBRANCH  15  17
ENDBRANCH   5  15
TORSDOF 9
ENDMDL
MODEL 6
REMARK VINA RESULT:      -7.9      5.369      7.884
REMARK  Name = 
REMARK  10 active torsions:
REMARK  status: ('A' for Active; 'I' for Inactive)
REMARK    1  A    between atoms: C_1  and  C_2
REMARK    2  A    between atoms: C_2  and  N_3
REMARK    3  A    between atoms: C_6  and  C_7
REMARK    4  A    between atoms: C_13  and  C_14
REMARK    5  A    between atoms: C_14  and  O_16
REMARK    6  A    between atoms: O_16  and  C_17
REMARK    7  A    between atoms: C_17  and  C_18
REMARK    8  A    between atoms: C_18  and  C_19
REMARK    9  A    between atoms: C_19  and  C_20
REMARK   10  A    between atoms: C_20  and  C_21
REMARK                            x       y       z     vdW  Elec       q    Type
REMARK                         _______ _______ _______ _____ _____    ______ ____
ROOT
ATOM      1  N   UNL     1       2.274   4.202  19.930  0.00  0.00    +0.000 NA
ATOM      2  C   UNL     1       3.483   3.368  20.025  0.00  0.00    +0.000 C 
ATOM      3  C   UNL     1       4.445   3.490  18.880  0.00  0.00    +0.000 C 
ATOM      4  C   UNL     1       4.213   4.230  17.782  0.00  0.00    +0.000 C 
ATOM      5  C   UNL     1       2.921   5.013  17.660  0.00  0.00    +0.000 C 
ATOM      6  C   UNL     1       1.822   4.369  18.539  0.00  0.00    +0.000 C 
ENDROOT
BRANCH   4   7
ATOM      7  C   UNL     1       5.222   4.253  16.705  0.00  0.00    +0.000 A 
ATOM      8  C   UNL     1       6.561   4.543  16.990  0.00  0.00    +0.000 A 
ATOM      9  C   UNL     1       7.490   4.730  15.961  0.00  0.00    +0.000 A 
ATOM     10  C   UNL     1       7.088   4.619  14.629  0.00  0.00    +0.000 A 
ATOM     11  C   UNL     1       5.769   4.297  14.334  0.00  0.00    +0.000 A 
ATOM     12  C   UNL     1       4.838   4.118  15.362  0.00  0.00    +0.000 A 
ENDBRANCH   4   7
BRANCH   1  14
ATOM     13  C   UNL     1       1.675   2.485  21.593  0.00  0.00    +0.000 C 
ATOM     14  C   UNL     1       1.206   3.705  20.808  0.00  0.00    +0.000 C 
ENDBRANCH   1  14
BRANCH   5  15
ATOM     15  C   UNL     1       3.127   6.454  18.103  0.00  0.00    +0.000 C 
ATOM     16  O   UNL     1       4.200   6.946  18.472  0.00  0.00    +0.000 OA
BRANCH  15  17
ATOM     17  O   UNL     1       1.975   7.181  17.997  0.00  0.00    +0.000 OA
BRANCH  17  18
ATOM     18  C   UNL     1       2.193   8.592  18.095  0.00  0.00    +0.000 C 
BRANCH  18  19
ATOM     19  C   UNL     1       1.284   9.193  19.164  0.00  0.00    +0.000 C 
BRANCH  19  20
ATOM     20  C   UNL     1       0.432  10.302  18.542  0.00  0.00    +0.000 C 
BRANCH  20  21
ATOM     21  C   UNL     1      -0.976  10.382  19.131  0.00  0.00    +0.000 C 
BRANCH  21  22
ATOM     22  C   UNL     1      -2.061  10.532  18.084  0.00  0.00    +0.000 A 
ATOM     23  C   UNL     1      -1.945   9.834  16.877  0.00  0.00    +0.000 A 
ATOM     24  C   UNL     1      -2.895   9.993  15.862  0.00  0.00    +0.000 A 
ATOM     25  C   UNL     1      -3.978  10.846  16.047  0.00  0.00    +0.000 A 
ATOM     26  C   UNL     1      -4.128  11.520  17.254  0.00  0.00    +0.000 A 
ATOM     27  C   UNL     1      -3.178  11.363  18.273  0.00  0.00    +0.000 A 
ENDBRANCH  21  22
ENDBRANCH  20  21
ENDBRANCH  19  20
ENDBRANCH  18  19
ENDBRANCH  17  18
ENDBRANCH  15  17
ENDBRANCH   5  15
TORSDOF 9
ENDMDL
MODEL 7
REMARK VINA RESULT:      -7.9      1.841      4.897
REMARK  Name = 
REMARK  10 active torsions:
REMARK  status: ('A' for Active; 'I' for Inactive)
REMARK    1  A    between atoms: C_1  and  C_2
REMARK    2  A    between atoms: C_2  and  N_3
REMARK    3  A    between atoms: C_6  and  C_7
REMARK    4  A    between atoms: C_13  and  C_14
REMARK    5  A    between atoms: C_14  and  O_16
REMARK    6  A    between atoms: O_16  and  C_17
REMARK    7  A    between atoms: C_17  and  C_18
REMARK    8  A    between atoms: C_18  and  C_19
REMARK    9  A    between atoms: C_19  and  C_20
REMARK   10  A    between atoms: C_20  and  C_21
REMARK                            x       y       z     vdW  Elec       q    Type
REMARK                         _______ _______ _______ _____ _____    ______ ____
ROOT
ATOM      1  N   UNL     1       6.382   5.483  16.056  0.00  0.00    +0.000 NA
ATOM      2  C   UNL     1       4.958   5.842  15.962  0.00  0.00    +0.000 C 
ATOM      3  C   UNL     1       4.126   5.505  17.165  0.00  0.00    +0.000 C 
ATOM      4  C   UNL     1       4.592   4.840  18.236  0.00  0.00    +0.000 C 
ATOM      5  C   UNL     1       6.041   4.397  18.277  0.00  0.00    +0.000 C 
ATOM      6  C   UNL     1       6.596   4.255  16.839  0.00  0.00    +0.000 C 
ENDROOT
BRANCH   4   7
ATOM      7  C   UNL     1       3.672   4.539  19.350  0.00  0.00    +0.000 A 
ATOM      8  C   UNL     1       3.693   3.286  19.972  0.00  0.00    +0.000 A 
ATOM      9  C   UNL     1       2.718   2.933  20.912  0.00  0.00    +0.000 A 
ATOM     10  C   UNL     1       1.713   3.841  21.249  0.00  0.00    +0.000 A 
ATOM     11  C   UNL     1       1.702   5.103  20.665  0.00  0.00    +0.000 A 
ATOM     12  C   UNL     1       2.671   5.451  19.718  0.00  0.00    +0.000 A 
ENDBRANCH   4   7
BRANCH   1  14
ATOM     13  C   UNL     1       6.544   4.172  13.975  0.00  0.00    +0.000 C 
ATOM     14  C   UNL     1       7.009   5.414  14.729  0.00  0.00    +0.000 C 
ENDBRANCH   1  14
BRANCH   5  15
ATOM     15  C   UNL     1       6.886   5.410  19.035  0.00  0.00    +0.000 C 
ATOM     16  O   UNL     1       7.562   5.171  20.043  0.00  0.00    +0.000 OA
BRANCH  15  17
ATOM     17  O   UNL     1       6.859   6.637  18.433  0.00  0.00    +0.000 OA
BRANCH  17  18
ATOM     18  C   UNL     1       8.137   7.281  18.419  0.00  0.00    +0.000 C 
BRANCH  18  19
ATOM     19  C   UNL     1       8.023   8.662  17.777  0.00  0.00    +0.000 C 
BRANCH  19  20
ATOM     20  C   UNL     1       8.758   9.687  18.645  0.00  0.00    +0.000 C 
BRANCH  20  21
ATOM     21  C   UNL     1       8.829  11.074  18.007  0.00  0.00    +0.000 C 
BRANCH  21  22
ATOM     22  C   UNL     1      10.039  11.877  18.443  0.00  0.00    +0.000 A 
ATOM     23  C   UNL     1      10.350  13.061  17.766  0.00  0.00    +0.000 A 
ATOM     24  C   UNL     1      11.492  13.799  18.099  0.00  0.00    +0.000 A 
ATOM     25  C   UNL     1      12.331  13.364  19.120  0.00  0.00    +0.000 A 
ATOM     26  C   UNL     1      12.017  12.208  19.827  0.00  0.00    +0.000 A 
ATOM     27  C   UNL     1      10.874  11.467  19.495  0.00  0.00    +0.000 A 
ENDBRANCH  21  22
ENDBRANCH  20  21
ENDBRANCH  19  20
ENDBRANCH  18  19
ENDBRANCH  17  18
ENDBRANCH  15  17
ENDBRANCH   5  15
TORSDOF 9
ENDMDL
MODEL 8
REMARK VINA RESULT:      -7.8      0.520      1.410
REMARK  Name = 
REMARK  10 active torsions:
REMARK  status: ('A' for Active; 'I' for Inactive)
REMARK    1  A    between atoms: C_1  and  C_2
REMARK    2  A    between atoms: C_2  and  N_3
REMARK    3  A    between atoms: C_6  and  C_7
REMARK    4  A    between atoms: C_13  and  C_14
REMARK    5  A    between atoms: C_14  and  O_16
REMARK    6  A    between atoms: O_16  and  C_17
REMARK    7  A    between atoms: C_17  and  C_18
REMARK    8  A    between atoms: C_18  and  C_19
REMARK    9  A    between atoms: C_19  and  C_20
REMARK   10  A    between atoms: C_20  and  C_21
REMARK                            x       y       z     vdW  Elec       q    Type
REMARK                         _______ _______ _______ _____ _____    ______ ____
ROOT
ATOM      1  N   UNL     1       4.361   5.497  18.325  0.00  0.00    +0.000 NA
ATOM      2  C   UNL     1       4.105   4.187  17.707  0.00  0.00    +0.000 C 
ATOM      3  C   UNL     1       4.795   3.944  16.396  0.00  0.00    +0.000 C 
ATOM      4  C   UNL     1       5.531   4.869  15.755  0.00  0.00    +0.000 C 
ATOM      5  C   UNL     1       5.709   6.245  16.363  0.00  0.00    +0.000 C 
ATOM      6  C   UNL     1       4.537   6.561  17.323  0.00  0.00    +0.000 C 
ENDROOT
BRANCH   4   7
ATOM      7  C   UNL     1       6.140   4.525  14.455  0.00  0.00    +0.000 A 
ATOM      8  C   UNL     1       7.265   5.217  13.992  0.00  0.00    +0.000 A 
ATOM      9  C   UNL     1       7.749   5.016  12.694  0.00  0.00    +0.000 A 
ATOM     10  C   UNL     1       7.114   4.106  11.847  0.00  0.00    +0.000 A 
ATOM     11  C   UNL     1       6.018   3.387  12.308  0.00  0.00    +0.000 A 
ATOM     12  C   UNL     1       5.529   3.595  13.601  0.00  0.00    +0.000 A 
ENDBRANCH   4   7
BRANCH   1  14
ATOM     13  C   UNL     1       2.403   4.648  19.559  0.00  0.00    +0.000 C 
ATOM     14  C   UNL     1       3.332   5.834  19.320  0.00  0.00    +0.000 C 
ENDBRANCH   1  14
BRANCH   5  15
ATOM     15  C   UNL     1       7.016   6.319  17.140  0.00  0.00    +0.000 C 
ATOM     16  O   UNL     1       7.428   5.466  17.935  0.00  0.00    +0.000 OA
BRANCH  15  17
ATOM     17  O   UNL     1       7.731   7.437  16.814  0.00  0.00    +0.000 OA
BRANCH  17  18
ATOM     18  C   UNL     1       7.416   8.564  17.638  0.00  0.00    +0.000 C 
BRANCH  18  19
ATOM     19  C   UNL     1       8.641   8.983  18.448  0.00  0.00    +0.000 C 
BRANCH  19  20
ATOM     20  C   UNL     1       8.782  10.506  18.403  0.00  0.00    +0.000 C 
BRANCH  20  21
ATOM     21  C   UNL     1      10.133  11.001  18.917  0.00  0.00    +0.000 C 
BRANCH  21  22
ATOM     22  C   UNL     1      10.019  12.109  19.945  0.00  0.00    +0.000 A 
ATOM     23  C   UNL     1      10.818  13.249  19.811  0.00  0.00    +0.000 A 
ATOM     24  C   UNL     1      10.786  14.266  20.771  0.00  0.00    +0.000 A 
ATOM     25  C   UNL     1       9.946  14.157  21.875  0.00  0.00    +0.000 A 
ATOM     26  C   UNL     1       9.119  13.047  22.007  0.00  0.00    +0.000 A 
ATOM     27  C   UNL     1       9.149  12.026  21.045  0.00  0.00    +0.000 A 
ENDBRANCH  21  22
ENDBRANCH  20  21
ENDBRANCH  19  20
ENDBRANCH  18  19
ENDBRANCH  17  18
ENDBRANCH  15  17
ENDBRANCH   5  15
TORSDOF 9
ENDMDL
MODEL 9
REMARK VINA RESULT:      -7.8      1.093      1.969
REMARK  Name = 
REMARK  10 active torsions:
REMARK  status: ('A' for Active; 'I' for Inactive)
REMARK    1  A    between atoms: C_1  and  C_2
REMARK    2  A    between atoms: C_2  and  N_3
REMARK    3  A    between atoms: C_6  and  C_7
REMARK    4  A    between atoms: C_13  and  C_14
REMARK    5  A    between atoms: C_14  and  O_16
REMARK    6  A    between atoms: O_16  and  C_17
REMARK    7  A    between atoms: C_17  and  C_18
REMARK    8  A    between atoms: C_18  and  C_19
REMARK    9  A    between atoms: C_19  and  C_20
REMARK   10  A    between atoms: C_20  and  C_21
REMARK                            x       y       z     vdW  Elec       q    Type
REMARK                         _______ _______ _______ _____ _____    ______ ____
ROOT
ATOM      1  N   UNL     1       3.879   5.519  18.442  0.00  0.00    +0.000 NA
ATOM      2  C   UNL     1       3.737   4.174  17.861  0.00  0.00    +0.000 C 
ATOM      3  C   UNL     1       4.501   3.934  16.592  0.00  0.00    +0.000 C 
ATOM      4  C   UNL     1       5.205   4.884  15.951  0.00  0.00    +0.000 C 
ATOM      5  C   UNL     1       5.266   6.289  16.516  0.00  0.00    +0.000 C 
ATOM      6  C   UNL     1       4.033   6.558  17.411  0.00  0.00    +0.000 C 
ENDROOT
BRANCH   4   7
ATOM      7  C   UNL     1       5.895   4.538  14.692  0.00  0.00    +0.000 A 
ATOM      8  C   UNL     1       7.111   5.144  14.358  0.00  0.00    +0.000 A 
ATOM      9  C   UNL     1       7.689   4.951  13.099  0.00  0.00    +0.000 A 
ATOM     10  C   UNL     1       7.055   4.137  12.159  0.00  0.00    +0.000 A 
ATOM     11  C   UNL     1       5.864   3.501  12.491  0.00  0.00    +0.000 A 
ATOM     12  C   UNL     1       5.283   3.701  13.747  0.00  0.00    +0.000 A 
ENDBRANCH   4   7
BRANCH   1  14
ATOM     13  C   UNL     1       2.462   7.310  19.370  0.00  0.00    +0.000 C 
ATOM     14  C   UNL     1       2.786   5.819  19.378  0.00  0.00    +0.000 C 
ENDBRANCH   1  14
BRANCH   5  15
ATOM     15  C   UNL     1       6.528   6.474  17.346  0.00  0.00    +0.000 C 
ATOM     16  O   UNL     1       6.961   5.674  18.184  0.00  0.00    +0.000 OA
BRANCH  15  17
ATOM     17  O   UNL     1       7.179   7.630  17.018  0.00  0.00    +0.000 OA
BRANCH  17  18
ATOM     18  C   UNL     1       8.084   8.071  18.035  0.00  0.00    +0.000 C 
BRANCH  18  19
ATOM     19  C   UNL     1       8.110   9.596  18.092  0.00  0.00    +0.000 C 
BRANCH  19  20
ATOM     20  C   UNL     1       9.430  10.058  18.717  0.00  0.00    +0.000 C 
BRANCH  20  21
ATOM     21  C   UNL     1       9.342  11.446  19.350  0.00  0.00    +0.000 C 
BRANCH  21  22
ATOM     22  C   UNL     1      10.410  12.403  18.858  0.00  0.00    +0.000 A 
ATOM     23  C   UNL     1      10.692  13.552  19.604  0.00  0.00    +0.000 A 
ATOM     24  C   UNL     1      11.627  14.489  19.153  0.00  0.00    +0.000 A 
ATOM     25  C   UNL     1      12.298  14.283  17.951  0.00  0.00    +0.000 A 
ATOM     26  C   UNL     1      12.056  13.129  17.214  0.00  0.00    +0.000 A 
ATOM     27  C   UNL     1      11.119  12.188  17.664  0.00  0.00    +0.000 A 
ENDBRANCH  21  22
ENDBRANCH  20  21
ENDBRANCH  19  20
ENDBRANCH  18  19
ENDBRANCH  17  18
ENDBRANCH  15  17
ENDBRANCH   5  15
TORSDOF 9
ENDMDL
