MODEL 1
REMARK VINA RESULT:      -8.0      0.000      0.000
REMARK  Name = 
REMARK  7 active torsions:
REMARK  status: ('A' for Active; 'I' for Inactive)
REMARK    1  A    between atoms: N_1  and  C_2
REMARK    2  A    between atoms: C_2  and  C_3
REMARK    3  A    between atoms: C_2  and  C_14
REMARK    4  A    between atoms: C_3  and  C_4
REMARK    5  A    between atoms: C_14  and  O_16
REMARK    6  A    between atoms: O_16  and  C_17
REMARK    7  A    between atoms: C_17  and  C_18
REMARK                            x       y       z     vdW  Elec       q    Type
REMARK                         _______ _______ _______ _____ _____    ______ ____
ROOT
ATOM      1  C   UNL     1       4.026   3.296  17.621  0.00  0.00    +0.000 C 
ENDROOT
BRANCH   1   2
ATOM      2  N   UNL     1       2.605   2.895  17.597  0.00  0.00    +0.000 NA
ATOM      3  H   UNL     1       2.259   2.715  18.534  0.00  0.00    +0.000 HD
ATOM      4  H   UNL     1       2.504   2.052  17.035  0.00  0.00    +0.000 HD
ENDBRANCH   1   2
BRANCH   1   5
ATOM      5  C   UNL     1       4.397   3.806  19.026  0.00  0.00    +0.000 C 
ATOM      6  O   UNL     1       4.893   3.081  19.882  0.00  0.00    +0.000 OA
BRANCH   5   7
ATOM      7  O   UNL     1       4.143   5.136  19.173  0.00  0.00    +0.000 OA
BRANCH   7   8
ATOM      8  C   UNL     1       2.985   5.433  19.961  0.00  0.00    +0.000 C 
BRANCH   8   9
ATOM      9  C   UNL     1       2.430   6.762  19.529  0.00  0.00    +0.000 A 
ATOM     10  C   UNL     1       2.611   7.224  18.219  0.00  0.00    +0.000 A 
ATOM     11  C   UNL     1       2.128   8.478  17.844  0.00  0.00    +0.000 A 
ATOM     12  C   UNL     1       1.462   9.278  18.772  0.00  0.00    +0.000 A 
ATOM     13  C   UNL     1       1.265   8.818  20.074  0.00  0.00    +0.000 A 
ATOM     14  C   UNL     1       1.748   7.566  20.451  0.00  0.00    +0.000 A 
ENDBRANCH   8   9
ENDBRANCH   7   8
ENDBRANCH   5   7
ENDBRANCH   1   5
BRANCH   1  15
ATOM     15  C   UNL     1       4.392   4.333  16.530  0.00  0.00    +0.000 C 
BRANCH  15  16
ATOM     16  C   UNL     1       5.816   4.169  15.982  0.00  0.00    +0.000 C 
ATOM     17  C   UNL     1       6.808   5.261  16.442  0.00  0.00    +0.000 C 
ATOM     18  O   UNL     1       6.964   5.704  17.571  0.00  0.00    +0.000 OA
ATOM     19  N   UNL     1       7.579   5.619  15.350  0.00  0.00    +0.000 N 
ATOM     20  C   UNL     1       7.164   4.970  14.209  0.00  0.00    +0.000 A 
ATOM     21  C   UNL     1       7.745   5.048  12.957  0.00  0.00    +0.000 A 
ATOM     22  C   UNL     1       7.171   4.287  11.942  0.00  0.00    +0.000 A 
ATOM     23  C   UNL     1       6.027   3.504  12.193  0.00  0.00    +0.000 A 
ATOM     24  C   UNL     1       5.455   3.441  13.473  0.00  0.00    +0.000 A 
ATOM     25  C   UNL     1       6.045   4.173  14.488  0.00  0.00    +0.000 A 
ATOM     26  H   UNL     1       8.343   6.273  15.414  0.00  0.00    +0.000 HD
ENDBRANCH  15  16
ENDBRANCH   1  15
TORSDOF 7
ENDMDL
MODEL 2
REMARK VINA RESULT:      -7.8      1.011      1.515
REMARK  Name = 
REMARK  7 active torsions:
REMARK  status: ('A' for Active; 'I' for Inactive)
REMARK    1  A    between atoms: N_1  and  C_2
REMARK    2  A    between atoms: C_2  and  C_3
REMARK    3  A    between atoms: C_2  and  C_14
REMARK    4  A    between atoms: C_3  and  C_4
REMARK    5  A    between atoms: C_14  and  O_16
REMARK    6  A    between atoms: O_16  and  C_17
REMARK    7  A    between atoms: C_17  and  C_18
REMARK                            x       y       z     vdW  Elec       q    Type
REMARK                         _______ _______ _______ _____ _____    ______ ____
ROOT
ATOM      1  C   UNL     1       3.898   3.403  17.747  0.00  0.00    +0.000 C 
ENDROOT
BRANCH   1   2
ATOM      2  N   UNL     1       4.055   1.935  17.727  0.00  0.00    +0.000 NA
ATOM      3  H   UNL     1       4.505   1.626  16.870  0.00  0.00    +0.000 HD
ATOM      4  H   UNL     1       3.138   1.498  17.799  0.00  0.00    +0.000 HD
ENDBRANCH   1   2
BRANCH   1   5
ATOM      5  C   UNL     1       2.496   3.767  18.269  0.00  0.00    +0.000 C 
ATOM      6  O   UNL     1       1.474   3.538  17.631  0.00  0.00    +0.000 OA
BRANCH   5   7
ATOM      7  O   UNL     1       2.540   4.324  19.511  0.00  0.00    +0.000 OA
BRANCH   7   8
ATOM      8  C   UNL     1       3.499   5.377  19.654  0.00  0.00    +0.000 C 
BRANCH   8   9
ATOM      9  C   UNL     1       2.839   6.685  19.318  0.00  0.00    +0.000 A 
ATOM     10  C   UNL     1       2.019   7.336  20.249  0.00  0.00    +0.000 A 
ATOM     11  C   UNL     1       1.379   8.528  19.908  0.00  0.00    +0.000 A 
ATOM     12  C   UNL     1       1.552   9.077  18.638  0.00  0.00    +0.000 A 
ATOM     13  C   UNL     1       2.378   8.443  17.711  0.00  0.00    +0.000 A 
ATOM     14  C   UNL     1       3.018   7.252  18.049  0.00  0.00    +0.000 A 
ENDBRANCH   8   9
ENDBRANCH   7   8
ENDBRANCH   5   7
ENDBRANCH   1   5
BRANCH   1  15
ATOM     15  C   UNL     1       4.182   4.072  16.379  0.00  0.00    +0.000 C 
BRANCH  15  16
ATOM     16  C   UNL     1       5.651   3.973  15.942  0.00  0.00    +0.000 C 
ATOM     17  C   UNL     1       6.577   5.041  16.567  0.00  0.00    +0.000 C 
ATOM     18  O   UNL     1       6.627   5.398  17.736  0.00  0.00    +0.000 OA
ATOM     19  N   UNL     1       7.428   5.495  15.575  0.00  0.00    +0.000 N 
ATOM     20  C   UNL     1       7.123   4.930  14.356  0.00  0.00    +0.000 A 
ATOM     21  C   UNL     1       7.805   5.114  13.168  0.00  0.00    +0.000 A 
ATOM     22  C   UNL     1       7.335   4.425  12.053  0.00  0.00    +0.000 A 
ATOM     23  C   UNL     1       6.192   3.606  12.146  0.00  0.00    +0.000 A 
ATOM     24  C   UNL     1       5.516   3.436  13.364  0.00  0.00    +0.000 A 
ATOM     25  C   UNL     1       6.003   4.096  14.478  0.00  0.00    +0.000 A 
ATOM     26  H   UNL     1       8.169   6.154  15.753  0.00  0.00    +0.000 HD
ENDBRANCH  15  16
ENDBRANCH   1  15
TORSDOF 7
ENDMDL
MODEL 3
REMARK VINA RESULT:      -7.7      1.005      1.137
REMARK  Name = 
REMARK  7 active torsions:
REMARK  status: ('A' for Active; 'I' for Inactive)
REMARK    1  A    between atoms: N_1  and  C_2
REMARK    2  A    between atoms: C_2  and  C_3
REMARK    3  A    between atoms: C_2  and  C_14
REMARK    4  A    between atoms: C_3  and  C_4
REMARK    5  A    between atoms: C_14  and  O_16
REMARK    6  A    between atoms: O_16  and  C_17
REMARK    7  A    between atoms: C_17  and  C_18
REMARK                            x       y       z     vdW  Elec       q    Type
REMARK                         _______ _______ _______ _____ _____    ______ ____
ROOT
ATOM      1  C   UNL     1       4.010   3.916  17.851  0.00  0.00    +0.000 C 
ENDROOT
BRANCH   1   2
ATOM      2  N   UNL     1       4.415   2.528  18.153  0.00  0.00    +0.000 NA
ATOM      3  H   UNL     1       5.140   2.211  17.516  0.00  0.00    +0.000 HD
ATOM      4  H   UNL     1       3.606   1.916  18.069  0.00  0.00    +0.000 HD
ENDBRANCH   1   2
BRANCH   1   5
ATOM      5  C   UNL     1       2.541   4.128  18.261  0.00  0.00    +0.000 C 
ATOM      6  O   UNL     1       1.601   3.747  17.571  0.00  0.00    +0.000 OA
BRANCH   5   7
ATOM      7  O   UNL     1       2.430   4.740  19.472  0.00  0.00    +0.000 OA
BRANCH   7   8
ATOM      8  C   UNL     1       3.297   5.865  19.648  0.00  0.00    +0.000 C 
BRANCH   8   9
ATOM      9  C   UNL     1       2.529   7.123  19.351  0.00  0.00    +0.000 A 
ATOM     10  C   UNL     1       2.608   7.733  18.093  0.00  0.00    +0.000 A 
ATOM     11  C   UNL     1       1.924   8.924  17.845  0.00  0.00    +0.000 A 
ATOM     12  C   UNL     1       1.158   9.512  18.850  0.00  0.00    +0.000 A 
ATOM     13  C   UNL     1       1.062   8.903  20.100  0.00  0.00    +0.000 A 
ATOM     14  C   UNL     1       1.745   7.714  20.351  0.00  0.00    +0.000 A 
ENDBRANCH   8   9
ENDBRANCH   7   8
ENDBRANCH   5   7
ENDBRANCH   1   5
BRANCH   1  15
ATOM     15  C   UNL     1       4.248   4.319  16.374  0.00  0.00    +0.000 C 
BRANCH  15  16
ATOM     16  C   UNL     1       5.712   4.186  15.932  0.00  0.00    +0.000 C 
ATOM     17  C   UNL     1       6.648   5.289  16.477  0.00  0.00    +0.000 C 
ATOM     18  O   UNL     1       6.711   5.720  17.619  0.00  0.00    +0.000 OA
ATOM     19  N   UNL     1       7.492   5.673  15.449  0.00  0.00    +0.000 N 
ATOM     20  C   UNL     1       7.173   5.032  14.273  0.00  0.00    +0.000 A 
ATOM     21  C   UNL     1       7.844   5.135  13.069  0.00  0.00    +0.000 A 
ATOM     22  C   UNL     1       7.360   4.377  12.006  0.00  0.00    +0.000 A 
ATOM     23  C   UNL     1       6.215   3.571  12.162  0.00  0.00    +0.000 A 
ATOM     24  C   UNL     1       5.551   3.483  13.395  0.00  0.00    +0.000 A 
ATOM     25  C   UNL     1       6.051   4.212  14.459  0.00  0.00    +0.000 A 
ATOM     26  H   UNL     1       8.236   6.339  15.578  0.00  0.00    +0.000 HD
ENDBRANCH  15  16
ENDBRANCH   1  15
TORSDOF 7
ENDMDL
MODEL 4
REMARK VINA RESULT:      -7.7      2.217      7.098
REMARK  Name = 
REMARK  7 active torsions:
REMARK  status: ('A' for Active; 'I' for Inactive)
REMARK    1  A    between atoms: N_1  and  C_2
REMARK    2  A    between atoms: C_2  and  C_3
REMARK    3  A    between atoms: C_2  and  C_14
REMARK    4  A    between atoms: C_3  and  C_4
REMARK    5  A    between atoms: C_14  and  O_16
REMARK    6  A    between atoms: O_16  and  C_17
REMARK    7  A    between atoms: C_17  and  C_18
REMARK                            x       y       z     vdW  Elec       q    Type
REMARK                         _______ _______ _______ _____ _____    ______ ____
ROOT
ATOM      1  C   UNL     1       6.653   4.913  17.689  0.00  0.00    +0.000 C 
ENDROOT
BRANCH   1   2
ATOM      2  N   UNL     1       7.942   4.300  18.067  0.00  0.00    +0.000 NA
ATOM      3  H   UNL     1       8.723   4.812  17.668  0.00  0.00    +0.000 HD
ATOM      4  H   UNL     1       7.968   3.338  17.734  0.00  0.00    +0.000 HD
ENDBRANCH   1   2
BRANCH   1   5
ATOM      5  C   UNL     1       6.907   6.156  16.815  0.00  0.00    +0.000 C 
ATOM      6  O   UNL     1       7.746   7.003  17.101  0.00  0.00    +0.000 OA
BRANCH   5   7
ATOM      7  O   UNL     1       6.127   6.166  15.699  0.00  0.00    +0.000 OA
BRANCH   7   8
ATOM      8  C   UNL     1       5.515   4.909  15.393  0.00  0.00    +0.000 C 
BRANCH   8   9
ATOM      9  C   UNL     1       6.011   4.440  14.054  0.00  0.00    +0.000 A 
ATOM     10  C   UNL     1       7.200   4.943  13.512  0.00  0.00    +0.000 A 
ATOM     11  C   UNL     1       7.626   4.530  12.249  0.00  0.00    +0.000 A 
ATOM     12  C   UNL     1       6.869   3.614  11.520  0.00  0.00    +0.000 A 
ATOM     13  C   UNL     1       5.693   3.096  12.059  0.00  0.00    +0.000 A 
ATOM     14  C   UNL     1       5.264   3.508  13.320  0.00  0.00    +0.000 A 
ENDBRANCH   8   9
ENDBRANCH   7   8
ENDBRANCH   5   7
ENDBRANCH   1   5
BRANCH   1  15
ATOM     15  C   UNL     1       5.751   5.249  18.902  0.00  0.00    +0.000 C 
BRANCH  15  16
ATOM     16  C   UNL     1       4.256   5.032  18.633  0.00  0.00    +0.000 C 
ATOM     17  C   UNL     1       3.440   6.334  18.467  0.00  0.00    +0.000 C 
ATOM     18  O   UNL     1       3.730   7.321  17.806  0.00  0.00    +0.000 OA
ATOM     19  N   UNL     1       2.245   6.174  19.147  0.00  0.00    +0.000 N 
ATOM     20  C   UNL     1       2.206   4.970  19.814  0.00  0.00    +0.000 A 
ATOM     21  C   UNL     1       1.145   4.463  20.541  0.00  0.00    +0.000 A 
ATOM     22  C   UNL     1       1.314   3.208  21.120  0.00  0.00    +0.000 A 
ATOM     23  C   UNL     1       2.534   2.516  20.987  0.00  0.00    +0.000 A 
ATOM     24  C   UNL     1       3.598   3.051  20.244  0.00  0.00    +0.000 A 
ATOM     25  C   UNL     1       3.417   4.284  19.643  0.00  0.00    +0.000 A 
ATOM     26  H   UNL     1       1.515   6.868  19.134  0.00  0.00    +0.000 HD
ENDBRANCH  15  16
ENDBRANCH   1  15
TORSDOF 7
ENDMDL
MODEL 5
REMARK VINA RESULT:      -7.7      4.318      6.913
REMARK  Name = 
REMARK  7 active torsions:
REMARK  status: ('A' for Active; 'I' for Inactive)
REMARK    1  A    between atoms: N_1  and  C_2
REMARK    2  A    between atoms: C_2  and  C_3
REMARK    3  A    between atoms: C_2  and  C_14
REMARK    4  A    between atoms: C_3  and  C_4
REMARK    5  A    between atoms: C_14  and  O_16
REMARK    6  A    between atoms: O_16  and  C_17
REMARK    7  A    between atoms: C_17  and  C_18
REMARK                            x       y       z     vdW  Elec       q    Type
REMARK                         _______ _______ _______ _____ _____    ______ ____
ROOT
ATOM      1  C   UNL     1       7.288   5.805  18.735  0.00  0.00    +0.000 C 
ENDROOT
BRANCH   1   2
ATOM      2  N   UNL     1       8.177   5.738  19.912  0.00  0.00    +0.000 NA
ATOM      3  H   UNL     1       7.903   4.986  20.537  0.00  0.00    +0.000 HD
ATOM      4  H   UNL     1       8.136   6.623  20.415  0.00  0.00    +0.000 HD
ENDBRANCH   1   2
BRANCH   1   5
ATOM      5  C   UNL     1       7.690   6.999  17.849  0.00  0.00    +0.000 C 
ATOM      6  O   UNL     1       7.414   7.058  16.656  0.00  0.00    +0.000 OA
BRANCH   5   7
ATOM      7  O   UNL     1       8.340   7.965  18.555  0.00  0.00    +0.000 OA
BRANCH   7   8
ATOM      8  C   UNL     1       8.175   9.289  18.035  0.00  0.00    +0.000 C 
BRANCH   8   9
ATOM      9  C   UNL     1       9.177  10.198  18.692  0.00  0.00    +0.000 A 
ATOM     10  C   UNL     1       9.105  10.474  20.063  0.00  0.00    +0.000 A 
ATOM     11  C   UNL     1      10.015  11.354  20.650  0.00  0.00    +0.000 A 
ATOM     12  C   UNL     1      11.001  11.961  19.874  0.00  0.00    +0.000 A 
ATOM     13  C   UNL     1      11.089  11.679  18.512  0.00  0.00    +0.000 A 
ATOM     14  C   UNL     1      10.180  10.802  17.922  0.00  0.00    +0.000 A 
ENDBRANCH   8   9
ENDBRANCH   7   8
ENDBRANCH   5   7
ENDBRANCH   1   5
BRANCH   1  15
ATOM     15  C   UNL     1       5.784   5.855  19.101  0.00  0.00    +0.000 C 
BRANCH  15  16
ATOM     16  C   UNL     1       5.039   4.545  18.811  0.00  0.00    +0.000 C 
ATOM     17  C   UNL     1       4.999   4.150  17.317  0.00  0.00    +0.000 C 
ATOM     18  O   UNL     1       5.920   4.163  16.514  0.00  0.00    +0.000 OA
ATOM     19  N   UNL     1       3.725   3.686  17.037  0.00  0.00    +0.000 N 
ATOM     20  C   UNL     1       2.896   3.808  18.130  0.00  0.00    +0.000 A 
ATOM     21  C   UNL     1       1.581   3.390  18.219  0.00  0.00    +0.000 A 
ATOM     22  C   UNL     1       0.931   3.594  19.433  0.00  0.00    +0.000 A 
ATOM     23  C   UNL     1       1.592   4.232  20.502  0.00  0.00    +0.000 A 
ATOM     24  C   UNL     1       2.927   4.648  20.387  0.00  0.00    +0.000 A 
ATOM     25  C   UNL     1       3.582   4.416  19.190  0.00  0.00    +0.000 A 
ATOM     26  H   UNL     1       3.469   3.310  16.138  0.00  0.00    +0.000 HD
ENDBRANCH  15  16
ENDBRANCH   1  15
TORSDOF 7
ENDMDL
MODEL 6
REMARK VINA RESULT:      -7.6      1.599      2.702
REMARK  Name = 
REMARK  7 active torsions:
REMARK  status: ('A' for Active; 'I' for Inactive)
REMARK    1  A    between atoms: N_1  and  C_2
REMARK    2  A    between atoms: C_2  and  C_3
REMARK    3  A    between atoms: C_2  and  C_14
REMARK    4  A    between atoms: C_3  and  C_4
REMARK    5  A    between atoms: C_14  and  O_16
REMARK    6  A    between atoms: O_16  and  C_17
REMARK    7  A    between atoms: C_17  and  C_18
REMARK                            x       y       z     vdW  Elec       q    Type
REMARK                         _______ _______ _______ _____ _____    ______ ____
ROOT
ATOM      1  C   UNL     1       5.163   3.964  17.999  0.00  0.00    +0.000 C 
ENDROOT
BRANCH   1   2
ATOM      2  N   UNL     1       4.375   2.821  18.505  0.00  0.00    +0.000 NA
ATOM      3  H   UNL     1       4.871   1.945  18.369  0.00  0.00    +0.000 HD
ATOM      4  H   UNL     1       3.485   2.782  18.011  0.00  0.00    +0.000 HD
ENDBRANCH   1   2
BRANCH   1   5
ATOM      5  C   UNL     1       4.835   5.223  18.823  0.00  0.00    +0.000 C 
ATOM      6  O   UNL     1       5.539   5.605  19.752  0.00  0.00    +0.000 OA
BRANCH   5   7
ATOM      7  O   UNL     1       3.717   5.855  18.372  0.00  0.00    +0.000 OA
BRANCH   7   8
ATOM      8  C   UNL     1       2.762   6.168  19.391  0.00  0.00    +0.000 C 
BRANCH   8   9
ATOM      9  C   UNL     1       2.183   4.887  19.925  0.00  0.00    +0.000 A 
ATOM     10  C   UNL     1       1.327   4.104  19.140  0.00  0.00    +0.000 A 
ATOM     11  C   UNL     1       0.762   2.940  19.663  0.00  0.00    +0.000 A 
ATOM     12  C   UNL     1       1.048   2.551  20.971  0.00  0.00    +0.000 A 
ATOM     13  C   UNL     1       1.911   3.316  21.753  0.00  0.00    +0.000 A 
ATOM     14  C   UNL     1       2.475   4.480  21.234  0.00  0.00    +0.000 A 
ENDBRANCH   8   9
ENDBRANCH   7   8
ENDBRANCH   5   7
ENDBRANCH   1   5
BRANCH   1  15
ATOM     15  C   UNL     1       4.976   4.217  16.483  0.00  0.00    +0.000 C 
BRANCH  15  16
ATOM     16  C   UNL     1       6.272   4.074  15.674  0.00  0.00    +0.000 C 
ATOM     17  C   UNL     1       7.277   5.233  15.865  0.00  0.00    +0.000 C 
ATOM     18  O   UNL     1       7.626   5.757  16.913  0.00  0.00    +0.000 OA
ATOM     19  N   UNL     1       7.800   5.548  14.623  0.00  0.00    +0.000 N 
ATOM     20  C   UNL     1       7.205   4.808  13.626  0.00  0.00    +0.000 A 
ATOM     21  C   UNL     1       7.526   4.825  12.282  0.00  0.00    +0.000 A 
ATOM     22  C   UNL     1       6.806   3.975  11.446  0.00  0.00    +0.000 A 
ATOM     23  C   UNL     1       5.776   3.165  11.964  0.00  0.00    +0.000 A 
ATOM     24  C   UNL     1       5.468   3.165  13.333  0.00  0.00    +0.000 A 
ATOM     25  C   UNL     1       6.205   3.987  14.167  0.00  0.00    +0.000 A 
ATOM     26  H   UNL     1       8.526   6.235  14.497  0.00  0.00    +0.000 HD
ENDBRANCH  15  16
ENDBRANCH   1  15
TORSDOF 7
ENDMDL
MODEL 7
REMARK VINA RESULT:      -7.6      0.495      1.118
REMARK  Name = 
REMARK  7 active torsions:
REMARK  status: ('A' for Active; 'I' for Inactive)
REMARK    1  A    between atoms: N_1  and  C_2
REMARK    2  A    between atoms: C_2  and  C_3
REMARK    3  A    between atoms: C_2  and  C_14
REMARK    4  A    between atoms: C_3  and  C_4
REMARK    5  A    between atoms: C_14  and  O_16
REMARK    6  A    between atoms: O_16  and  C_17
REMARK    7  A    between atoms: C_17  and  C_18
REMARK                            x       y       z     vdW  Elec       q    Type
REMARK                         _______ _______ _______ _____ _____    ______ ____
ROOT
ATOM      1  C   UNL     1       3.744   3.566  17.337  0.00  0.00    +0.000 C 
ENDROOT
BRANCH   1   2
ATOM      2  N   UNL     1       2.359   3.173  17.005  0.00  0.00    +0.000 NA
ATOM      3  H   UNL     1       2.009   3.701  16.212  0.00  0.00    +0.000 HD
ATOM      4  H   UNL     1       1.760   3.342  17.810  0.00  0.00    +0.000 HD
ENDBRANCH   1   2
BRANCH   1   5
ATOM      5  C   UNL     1       3.821   3.988  18.817  0.00  0.00    +0.000 C 
ATOM      6  O   UNL     1       4.862   3.941  19.463  0.00  0.00    +0.000 OA
BRANCH   5   7
ATOM      7  O   UNL     1       2.625   4.442  19.284  0.00  0.00    +0.000 OA
BRANCH   7   8
ATOM      8  C   UNL     1       2.728   5.435  20.309  0.00  0.00    +0.000 C 
BRANCH   8   9
ATOM      9  C   UNL     1       2.313   6.764  19.742  0.00  0.00    +0.000 A 
ATOM     10  C   UNL     1       1.700   7.730  20.550  0.00  0.00    +0.000 A 
ATOM     11  C   UNL     1       1.280   8.942  20.001  0.00  0.00    +0.000 A 
ATOM     12  C   UNL     1       1.471   9.198  18.643  0.00  0.00    +0.000 A 
ATOM     13  C   UNL     1       2.095   8.249  17.836  0.00  0.00    +0.000 A 
ATOM     14  C   UNL     1       2.514   7.036  18.382  0.00  0.00    +0.000 A 
ENDBRANCH   8   9
ENDBRANCH   7   8
ENDBRANCH   5   7
ENDBRANCH   1   5
BRANCH   1  15
ATOM     15  C   UNL     1       4.312   4.665  16.406  0.00  0.00    +0.000 C 
BRANCH  15  16
ATOM     16  C   UNL     1       5.733   4.369  15.905  0.00  0.00    +0.000 C 
ATOM     17  C   UNL     1       6.795   5.402  16.344  0.00  0.00    +0.000 C 
ATOM     18  O   UNL     1       6.956   5.884  17.456  0.00  0.00    +0.000 OA
ATOM     19  N   UNL     1       7.617   5.650  15.259  0.00  0.00    +0.000 N 
ATOM     20  C   UNL     1       7.180   4.982  14.137  0.00  0.00    +0.000 A 
ATOM     21  C   UNL     1       7.796   4.958  12.899  0.00  0.00    +0.000 A 
ATOM     22  C   UNL     1       7.190   4.196  11.904  0.00  0.00    +0.000 A 
ATOM     23  C   UNL     1       5.983   3.514  12.158  0.00  0.00    +0.000 A 
ATOM     24  C   UNL     1       5.377   3.554  13.423  0.00  0.00    +0.000 A 
ATOM     25  C   UNL     1       5.997   4.286  14.420  0.00  0.00    +0.000 A 
ATOM     26  H   UNL     1       8.427   6.247  15.315  0.00  0.00    +0.000 HD
ENDBRANCH  15  16
ENDBRANCH   1  15
TORSDOF 7
ENDMDL
MODEL 8
REMARK VINA RESULT:      -7.5      2.273      6.595
REMARK  Name = 
REMARK  7 active torsions:
REMARK  status: ('A' for Active; 'I' for Inactive)
REMARK    1  A    between atoms: N_1  and  C_2
REMARK    2  A    between atoms: C_2  and  C_3
REMARK    3  A    between atoms: C_2  and  C_14
REMARK    4  A    between atoms: C_3  and  C_4
REMARK    5  A    between atoms: C_14  and  O_16
REMARK    6  A    between atoms: O_16  and  C_17
REMARK    7  A    between atoms: C_17  and  C_18
REMARK                            x       y       z     vdW  Elec       q    Type
REMARK                         _______ _______ _______ _____ _____    ______ ____
ROOT
ATOM      1  C   UNL     1       5.767   6.539  17.288  0.00  0.00    +0.000 C 
ENDROOT
BRANCH   1   2
ATOM      2  N   UNL     1       6.714   7.663  17.146  0.00  0.00    +0.000 NA
ATOM      3  H   UNL     1       7.175   7.643  16.241  0.00  0.00    +0.000 HD
ATOM      4  H   UNL     1       7.418   7.605  17.880  0.00  0.00    +0.000 HD
ENDBRANCH   1   2
BRANCH   1   5
ATOM      5  C   UNL     1       5.123   6.230  15.923  0.00  0.00    +0.000 C 
ATOM      6  O   UNL     1       4.960   7.086  15.060  0.00  0.00    +0.000 OA
BRANCH   5   7
ATOM      7  O   UNL     1       4.804   4.912  15.793  0.00  0.00    +0.000 OA
BRANCH   7   8
ATOM      8  C   UNL     1       5.929   4.048  15.600  0.00  0.00    +0.000 C 
BRANCH   8   9
ATOM      9  C   UNL     1       6.379   4.149  14.169  0.00  0.00    +0.000 A 
ATOM     10  C   UNL     1       5.773   3.378  13.169  0.00  0.00    +0.000 A 
ATOM     11  C   UNL     1       6.231   3.450  11.852  0.00  0.00    +0.000 A 
ATOM     12  C   UNL     1       7.294   4.291  11.526  0.00  0.00    +0.000 A 
ATOM     13  C   UNL     1       7.892   5.073  12.513  0.00  0.00    +0.000 A 
ATOM     14  C   UNL     1       7.438   5.002  13.829  0.00  0.00    +0.000 A 
ENDBRANCH   8   9
ENDBRANCH   7   8
ENDBRANCH   5   7
ENDBRANCH   1   5
BRANCH   1  15
ATOM     15  C   UNL     1       4.693   6.773  18.379  0.00  0.00    +0.000 C 
BRANCH  15  16
ATOM     16  C   UNL     1       4.406   5.529  19.231  0.00  0.00    +0.000 C 
ATOM     17  C   UNL     1       5.636   4.626  19.479  0.00  0.00    +0.000 C 
ATOM     18  O   UNL     1       6.763   4.969  19.807  0.00  0.00    +0.000 OA
ATOM     19  N   UNL     1       5.228   3.310  19.345  0.00  0.00    +0.000 N 
ATOM     20  C   UNL     1       3.911   3.232  18.951  0.00  0.00    +0.000 A 
ATOM     21  C   UNL     1       3.167   2.079  18.780  0.00  0.00    +0.000 A 
ATOM     22  C   UNL     1       1.838   2.232  18.395  0.00  0.00    +0.000 A 
ATOM     23  C   UNL     1       1.302   3.514  18.164  0.00  0.00    +0.000 A 
ATOM     24  C   UNL     1       2.076   4.670  18.344  0.00  0.00    +0.000 A 
ATOM     25  C   UNL     1       3.388   4.518  18.756  0.00  0.00    +0.000 A 
ATOM     26  H   UNL     1       5.841   2.530  19.521  0.00  0.00    +0.000 HD
ENDBRANCH  15  16
ENDBRANCH   1  15
TORSDOF 7
ENDMDL
MODEL 9
REMARK VINA RESULT:      -7.5      2.436      3.402
REMARK  Name = 
REMARK  7 active torsions:
REMARK  status: ('A' for Active; 'I' for Inactive)
REMARK    1  A    between atoms: N_1  and  C_2
REMARK    2  A    between atoms: C_2  and  C_3
REMARK    3  A    between atoms: C_2  and  C_14
REMARK    4  A    between atoms: C_3  and  C_4
REMARK    5  A    between atoms: C_14  and  O_16
REMARK    6  A    between atoms: O_16  and  C_17
REMARK    7  A    between atoms: C_17  and  C_18
REMARK                            x       y       z     vdW  Elec       q    Type
REMARK                         _______ _______ _______ _____ _____    ______ ____
ROOT
ATOM      1  C   UNL     1       1.712   2.930  18.745  0.00  0.00    +0.000 C 
ENDROOT
BRANCH   1   2
ATOM      2  N   UNL     1       0.416   2.240  18.589  0.00  0.00    +0.000 NA
ATOM      3  H   UNL     1      -0.219   2.476  19.345  0.00  0.00    +0.000 HD
ATOM      4  H   UNL     1       0.570   1.233  18.584  0.00  0.00    +0.000 HD
ENDBRANCH   1   2
BRANCH   1   5
ATOM      5  C   UNL     1       1.487   4.314  19.383  0.00  0.00    +0.000 C 
ATOM      6  O   UNL     1       0.932   4.460  20.467  0.00  0.00    +0.000 OA
BRANCH   5   7
ATOM      7  O   UNL     1       2.006   5.319  18.624  0.00  0.00    +0.000 OA
BRANCH   7   8
ATOM      8  C   UNL     1       2.809   6.255  19.351  0.00  0.00    +0.000 C 
BRANCH   8   9
ATOM      9  C   UNL     1       2.174   7.614  19.260  0.00  0.00    +0.000 A 
ATOM     10  C   UNL     1       1.539   8.187  20.369  0.00  0.00    +0.000 A 
ATOM     11  C   UNL     1       0.917   9.431  20.258  0.00  0.00    +0.000 A 
ATOM     12  C   UNL     1       0.924  10.110  19.041  0.00  0.00    +0.000 A 
ATOM     13  C   UNL     1       1.567   9.555  17.936  0.00  0.00    +0.000 A 
ATOM     14  C   UNL     1       2.189   8.311  18.044  0.00  0.00    +0.000 A 
ENDBRANCH   8   9
ENDBRANCH   7   8
ENDBRANCH   5   7
ENDBRANCH   1   5
BRANCH   1  15
ATOM     15  C   UNL     1       2.515   3.040  17.425  0.00  0.00    +0.000 C 
BRANCH  15  16
ATOM     16  C   UNL     1       4.035   2.973  17.626  0.00  0.00    +0.000 C 
ATOM     17  C   UNL     1       4.478   2.778  19.094  0.00  0.00    +0.000 C 
ATOM     18  O   UNL     1       4.026   1.993  19.915  0.00  0.00    +0.000 OA
ATOM     19  N   UNL     1       5.563   3.607  19.322  0.00  0.00    +0.000 N 
ATOM     20  C   UNL     1       5.835   4.390  18.222  0.00  0.00    +0.000 A 
ATOM     21  C   UNL     1       6.880   5.283  18.082  0.00  0.00    +0.000 A 
ATOM     22  C   UNL     1       6.981   5.959  16.869  0.00  0.00    +0.000 A 
ATOM     23  C   UNL     1       6.028   5.750  15.852  0.00  0.00    +0.000 A 
ATOM     24  C   UNL     1       4.975   4.838  16.017  0.00  0.00    +0.000 A 
ATOM     25  C   UNL     1       4.894   4.144  17.211  0.00  0.00    +0.000 A 
ATOM     26  H   UNL     1       6.069   3.613  20.192  0.00  0.00    +0.000 HD
ENDBRANCH  15  16
ENDBRANCH   1  15
TORSDOF 7
ENDMDL
