MODEL 1
REMARK VINA RESULT:      -5.9      0.000      0.000
REMARK  Name = 
REMARK  12 active torsions:
REMARK  status: ('A' for Active; 'I' for Inactive)
REMARK    1  A    between atoms: C_2  and  C_3
REMARK    2  A    between atoms: C_2  and  C_8
REMARK    3  A    between atoms: C_3  and  O_4
REMARK    4  A    between atoms: O_4  and  C_5
REMARK    5  A    between atoms: C_5  and  O_6
REMARK    6  A    between atoms: O_6  and  C_7
REMARK    7  A    between atoms: C_8  and  O_10
REMARK    8  A    between atoms: O_10  and  C_11
REMARK    9  A    between atoms: C_17  and  O_18
REMARK   10  A    between atoms: O_18  and  C_19
REMARK   11  A    between atoms: C_19  and  O_20
REMARK   12  A    between atoms: O_20  and  C_21
REMARK                            x       y       z     vdW  Elec       q    Type
REMARK                         _______ _______ _______ _____ _____    ______ ____
ROOT
ATOM      1  C   UNL     1       1.296   9.333  18.848  0.00  0.00    +0.000 C 
ATOM      2  C   UNL     1       0.722  10.240  17.733  0.00  0.00    +0.000 C 
ATOM      3  C   UNL     1      -0.762  10.561  17.879  0.00  0.00    +0.000 C 
ATOM      4  C   UNL     1      -1.678   9.818  17.235  0.00  0.00    +0.000 C 
ATOM      5  C   UNL     1      -1.190  11.720  18.771  0.00  0.00    +0.000 C 
ATOM      6  C   UNL     1      -0.616  13.058  18.304  0.00  0.00    +0.000 C 
ATOM      7  C   UNL     1      -0.696  14.008  19.494  0.00  0.00    +0.000 C 
ATOM      8  C   UNL     1      -0.843  13.095  20.688  0.00  0.00    +0.000 C 
ATOM      9  C   UNL     1      -1.051  13.524  21.947  0.00  0.00    +0.000 C 
ATOM     10  C   UNL     1      -0.852  11.633  20.278  0.00  0.00    +0.000 C 
ATOM     11  C   UNL     1       0.459  10.900  20.637  0.00  0.00    +0.000 C 
ATOM     12  O   UNL     1       0.606  10.846  22.071  0.00  0.00    +0.000 OA
ATOM     13  C   UNL     1       1.062   9.640  22.483  0.00  0.00    +0.000 C 
ATOM     14  O   UNL     1       1.415   9.361  23.615  0.00  0.00    +0.000 OA
ATOM     15  C   UNL     1       0.986   8.715  21.339  0.00  0.00    +0.000 C 
ATOM     16  C   UNL     1       1.202   7.402  21.483  0.00  0.00    +0.000 C 
ATOM     17  C   UNL     1       0.474   9.445  20.149  0.00  0.00    +0.000 C 
ENDROOT
BRANCH   1  18
ATOM     18  O   UNL     1       1.324   7.962  18.380  0.00  0.00    +0.000 OA
BRANCH  18  19
ATOM     19  C   UNL     1       2.564   7.468  18.090  0.00  0.00    +0.000 C 
ATOM     20  O   UNL     1       3.496   8.131  17.660  0.00  0.00    +0.000 OA
BRANCH  19  22
ATOM     21  C   UNL     1       1.770   5.123  17.912  0.00  0.00    +0.000 C 
ATOM     22  C   UNL     1       2.680   6.005  18.362  0.00  0.00    +0.000 C 
BRANCH  22  23
ATOM     23  C   UNL     1       3.896   5.619  19.176  0.00  0.00    +0.000 C 
BRANCH  23  24
ATOM     24  O   UNL     1       3.689   4.385  19.871  0.00  0.00    +0.000 OA
BRANCH  24  25
ATOM     25  C   UNL     1       4.573   3.374  19.392  0.00  0.00    +0.000 C 
BRANCH  25  26
ATOM     26  O   UNL     1       3.979   2.082  19.447  0.00  0.00    +0.000 OA
ATOM     27  C   UNL     1       3.428   1.690  18.198  0.00  0.00    +0.000 C 
ENDBRANCH  25  26
ENDBRANCH  24  25
ENDBRANCH  23  24
ENDBRANCH  22  23
ENDBRANCH  19  22
ENDBRANCH  18  19
ENDBRANCH   1  18
BRANCH   7  28
ATOM     28  O   UNL     1       0.502  14.769  19.628  0.00  0.00    +0.000 OA
BRANCH  28  29
ATOM     29  C   UNL     1       1.597  14.239  18.884  0.00  0.00    +0.000 C 
BRANCH  29  30
ATOM     30  O   UNL     1       2.573  15.214  18.546  0.00  0.00    +0.000 OA
ATOM     31  C   UNL     1       3.886  14.680  18.616  0.00  0.00    +0.000 C 
ENDBRANCH  29  30
ENDBRANCH  28  29
ENDBRANCH   7  28
TORSDOF 10
ENDMDL
MODEL 2
REMARK VINA RESULT:      -5.9      1.134      1.395
REMARK  Name = 
REMARK  12 active torsions:
REMARK  status: ('A' for Active; 'I' for Inactive)
REMARK    1  A    between atoms: C_2  and  C_3
REMARK    2  A    between atoms: C_2  and  C_8
REMARK    3  A    between atoms: C_3  and  O_4
REMARK    4  A    between atoms: O_4  and  C_5
REMARK    5  A    between atoms: C_5  and  O_6
REMARK    6  A    between atoms: O_6  and  C_7
REMARK    7  A    between atoms: C_8  and  O_10
REMARK    8  A    between atoms: O_10  and  C_11
REMARK    9  A    between atoms: C_17  and  O_18
REMARK   10  A    between atoms: O_18  and  C_19
REMARK   11  A    between atoms: C_19  and  O_20
REMARK   12  A    between atoms: O_20  and  C_21
REMARK                            x       y       z     vdW  Elec       q    Type
REMARK                         _______ _______ _______ _____ _____    ______ ____
ROOT
ATOM      1  C   UNL     1       1.272   9.372  18.923  0.00  0.00    +0.000 C 
ATOM      2  C   UNL     1       0.744  10.289  17.793  0.00  0.00    +0.000 C 
ATOM      3  C   UNL     1      -0.743  10.612  17.883  0.00  0.00    +0.000 C 
ATOM      4  C   UNL     1      -1.636   9.875  17.198  0.00  0.00    +0.000 C 
ATOM      5  C   UNL     1      -1.204  11.766  18.765  0.00  0.00    +0.000 C 
ATOM      6  C   UNL     1      -0.610  13.106  18.331  0.00  0.00    +0.000 C 
ATOM      7  C   UNL     1      -0.734  14.047  19.524  0.00  0.00    +0.000 C 
ATOM      8  C   UNL     1      -0.930  13.127  20.704  0.00  0.00    +0.000 C 
ATOM      9  C   UNL     1      -1.185  13.547  21.957  0.00  0.00    +0.000 C 
ATOM     10  C   UNL     1      -0.925  11.667  20.284  0.00  0.00    +0.000 C 
ATOM     11  C   UNL     1       0.369  10.930  20.689  0.00  0.00    +0.000 C 
ATOM     12  O   UNL     1       0.460  10.865  22.127  0.00  0.00    +0.000 OA
ATOM     13  C   UNL     1       0.897   9.655  22.548  0.00  0.00    +0.000 C 
ATOM     14  O   UNL     1       1.205   9.368  23.691  0.00  0.00    +0.000 OA
ATOM     15  C   UNL     1       0.864   8.738  21.396  0.00  0.00    +0.000 C 
ATOM     16  C   UNL     1       1.072   7.423  21.539  0.00  0.00    +0.000 C 
ATOM     17  C   UNL     1       0.400   9.477  20.191  0.00  0.00    +0.000 C 
ENDROOT
BRANCH   1  18
ATOM     18  O   UNL     1       1.315   8.005  18.447  0.00  0.00    +0.000 OA
BRANCH  18  19
ATOM     19  C   UNL     1       2.563   7.522  18.165  0.00  0.00    +0.000 C 
ATOM     20  O   UNL     1       3.454   8.165  17.631  0.00  0.00    +0.000 OA
BRANCH  19  22
ATOM     21  C   UNL     1       3.742   5.724  19.404  0.00  0.00    +0.000 C 
ATOM     22  C   UNL     1       2.741   6.103  18.588  0.00  0.00    +0.000 C 
BRANCH  22  23
ATOM     23  C   UNL     1       1.709   5.152  18.024  0.00  0.00    +0.000 C 
BRANCH  23  24
ATOM     24  O   UNL     1       2.266   3.852  17.794  0.00  0.00    +0.000 OA
BRANCH  24  25
ATOM     25  C   UNL     1       1.596   2.865  18.575  0.00  0.00    +0.000 C 
BRANCH  25  26
ATOM     26  O   UNL     1       0.862   3.446  19.647  0.00  0.00    +0.000 OA
ATOM     27  C   UNL     1       1.270   2.943  20.911  0.00  0.00    +0.000 C 
ENDBRANCH  25  26
ENDBRANCH  24  25
ENDBRANCH  23  24
ENDBRANCH  22  23
ENDBRANCH  19  22
ENDBRANCH  18  19
ENDBRANCH   1  18
BRANCH   7  28
ATOM     28  O   UNL     1       0.459  14.804  19.710  0.00  0.00    +0.000 OA
BRANCH  28  29
ATOM     29  C   UNL     1       1.604  14.220  19.093  0.00  0.00    +0.000 C 
BRANCH  29  30
ATOM     30  O   UNL     1       2.826  14.837  19.473  0.00  0.00    +0.000 OA
ATOM     31  C   UNL     1       3.385  14.217  20.622  0.00  0.00    +0.000 C 
ENDBRANCH  29  30
ENDBRANCH  28  29
ENDBRANCH   7  28
TORSDOF 10
ENDMDL
MODEL 3
REMARK VINA RESULT:      -5.8      1.568      1.833
REMARK  Name = 
REMARK  12 active torsions:
REMARK  status: ('A' for Active; 'I' for Inactive)
REMARK    1  A    between atoms: C_2  and  C_3
REMARK    2  A    between atoms: C_2  and  C_8
REMARK    3  A    between atoms: C_3  and  O_4
REMARK    4  A    between atoms: O_4  and  C_5
REMARK    5  A    between atoms: C_5  and  O_6
REMARK    6  A    between atoms: O_6  and  C_7
REMARK    7  A    between atoms: C_8  and  O_10
REMARK    8  A    between atoms: O_10  and  C_11
REMARK    9  A    between atoms: C_17  and  O_18
REMARK   10  A    between atoms: O_18  and  C_19
REMARK   11  A    between atoms: C_19  and  O_20
REMARK   12  A    between atoms: O_20  and  C_21
REMARK                            x       y       z     vdW  Elec       q    Type
REMARK                         _______ _______ _______ _____ _____    ______ ____
ROOT
ATOM      1  C   UNL     1       1.240   9.458  18.966  0.00  0.00    +0.000 C 
ATOM      2  C   UNL     1       0.663  10.363  17.851  0.00  0.00    +0.000 C 
ATOM      3  C   UNL     1      -0.841  10.599  17.941  0.00  0.00    +0.000 C 
ATOM      4  C   UNL     1      -1.688   9.825  17.240  0.00  0.00    +0.000 C 
ATOM      5  C   UNL     1      -1.369  11.709  18.842  0.00  0.00    +0.000 C 
ATOM      6  C   UNL     1      -0.852  13.088  18.434  0.00  0.00    +0.000 C 
ATOM      7  C   UNL     1      -1.033  13.999  19.643  0.00  0.00    +0.000 C 
ATOM      8  C   UNL     1      -1.178  13.048  20.806  0.00  0.00    +0.000 C 
ATOM      9  C   UNL     1      -1.460  13.431  22.066  0.00  0.00    +0.000 C 
ATOM     10  C   UNL     1      -1.089  11.599  20.360  0.00  0.00    +0.000 C 
ATOM     11  C   UNL     1       0.245  10.929  20.756  0.00  0.00    +0.000 C 
ATOM     12  O   UNL     1       0.336  10.844  22.193  0.00  0.00    +0.000 OA
ATOM     13  C   UNL     1       0.840   9.653  22.594  0.00  0.00    +0.000 C 
ATOM     14  O   UNL     1       1.162   9.364  23.733  0.00  0.00    +0.000 OA
ATOM     15  C   UNL     1       0.862   8.757  21.426  0.00  0.00    +0.000 C 
ATOM     16  C   UNL     1       1.145   7.454  21.546  0.00  0.00    +0.000 C 
ATOM     17  C   UNL     1       0.360   9.490  20.233  0.00  0.00    +0.000 C 
ENDROOT
BRANCH   1  18
ATOM     18  O   UNL     1       1.362   8.104  18.465  0.00  0.00    +0.000 OA
BRANCH  18  19
ATOM     19  C   UNL     1       2.611   7.750  18.036  0.00  0.00    +0.000 C 
ATOM     20  O   UNL     1       3.453   8.532  17.621  0.00  0.00    +0.000 OA
BRANCH  19  22
ATOM     21  C   UNL     1       1.853   5.399  18.281  0.00  0.00    +0.000 C 
ATOM     22  C   UNL     1       2.858   6.282  18.130  0.00  0.00    +0.000 C 
BRANCH  22  23
ATOM     23  C   UNL     1       4.316   5.890  18.041  0.00  0.00    +0.000 C 
BRANCH  23  24
ATOM     24  O   UNL     1       4.626   5.319  16.765  0.00  0.00    +0.000 OA
BRANCH  24  25
ATOM     25  C   UNL     1       5.443   6.199  15.997  0.00  0.00    +0.000 C 
BRANCH  25  26
ATOM     26  O   UNL     1       6.030   5.538  14.881  0.00  0.00    +0.000 OA
ATOM     27  C   UNL     1       6.120   4.134  15.075  0.00  0.00    +0.000 C 
ENDBRANCH  25  26
ENDBRANCH  24  25
ENDBRANCH  23  24
ENDBRANCH  22  23
ENDBRANCH  19  22
ENDBRANCH  18  19
ENDBRANCH   1  18
BRANCH   7  28
ATOM     28  O   UNL     1       0.115  14.820  19.846  0.00  0.00    +0.000 OA
BRANCH  28  29
ATOM     29  C   UNL     1       1.269  14.366  19.144  0.00  0.00    +0.000 C 
BRANCH  29  30
ATOM     30  O   UNL     1       2.488  14.665  19.809  0.00  0.00    +0.000 OA
ATOM     31  C   UNL     1       2.782  13.702  20.811  0.00  0.00    +0.000 C 
ENDBRANCH  29  30
ENDBRANCH  28  29
ENDBRANCH   7  28
TORSDOF 10
ENDMDL
MODEL 4
REMARK VINA RESULT:      -5.8      2.632      4.740
REMARK  Name = 
REMARK  12 active torsions:
REMARK  status: ('A' for Active; 'I' for Inactive)
REMARK    1  A    between atoms: C_2  and  C_3
REMARK    2  A    between atoms: C_2  and  C_8
REMARK    3  A    between atoms: C_3  and  O_4
REMARK    4  A    between atoms: O_4  and  C_5
REMARK    5  A    between atoms: C_5  and  O_6
REMARK    6  A    between atoms: O_6  and  C_7
REMARK    7  A    between atoms: C_8  and  O_10
REMARK    8  A    between atoms: O_10  and  C_11
REMARK    9  A    between atoms: C_17  and  O_18
REMARK   10  A    between atoms: O_18  and  C_19
REMARK   11  A    between atoms: C_19  and  O_20
REMARK   12  A    between atoms: O_20  and  C_21
REMARK                            x       y       z     vdW  Elec       q    Type
REMARK                         _______ _______ _______ _____ _____    ______ ____
ROOT
ATOM      1  C   UNL     1      -0.263  10.610  20.248  0.00  0.00    +0.000 C 
ATOM      2  C   UNL     1       0.461  11.437  21.338  0.00  0.00    +0.000 C 
ATOM      3  C   UNL     1       0.695  12.899  20.973  0.00  0.00    +0.000 C 
ATOM      4  C   UNL     1       1.864  13.279  20.430  0.00  0.00    +0.000 C 
ATOM      5  C   UNL     1      -0.415  13.915  21.217  0.00  0.00    +0.000 C 
ATOM      6  C   UNL     1      -0.803  14.010  22.692  0.00  0.00    +0.000 C 
ATOM      7  C   UNL     1      -2.187  14.651  22.740  0.00  0.00    +0.000 C 
ATOM      8  C   UNL     1      -2.733  14.458  21.346  0.00  0.00    +0.000 C 
ATOM      9  C   UNL     1      -3.902  14.967  20.914  0.00  0.00    +0.000 C 
ATOM     10  C   UNL     1      -1.747  13.724  20.453  0.00  0.00    +0.000 C 
ATOM     11  C   UNL     1      -2.163  12.265  20.170  0.00  0.00    +0.000 C 
ATOM     12  O   UNL     1      -3.385  12.250  19.404  0.00  0.00    +0.000 OA
ATOM     13  C   UNL     1      -3.352  11.314  18.426  0.00  0.00    +0.000 C 
ATOM     14  O   UNL     1      -4.292  10.982  17.727  0.00  0.00    +0.000 OA
ATOM     15  C   UNL     1      -1.967  10.826  18.316  0.00  0.00    +0.000 C 
ATOM     16  C   UNL     1      -1.583  10.021  17.317  0.00  0.00    +0.000 C 
ATOM     17  C   UNL     1      -1.122  11.506  19.334  0.00  0.00    +0.000 C 
ENDROOT
BRANCH   1  18
ATOM     18  O   UNL     1       0.720   9.883  19.471  0.00  0.00    +0.000 OA
BRANCH  18  19
ATOM     19  C   UNL     1       1.150   8.708  20.021  0.00  0.00    +0.000 C 
ATOM     20  O   UNL     1       0.844   8.308  21.134  0.00  0.00    +0.000 OA
BRANCH  19  22
ATOM     21  C   UNL     1       2.417   8.414  17.908  0.00  0.00    +0.000 C 
ATOM     22  C   UNL     1       2.044   7.936  19.109  0.00  0.00    +0.000 C 
BRANCH  22  23
ATOM     23  C   UNL     1       2.481   6.595  19.656  0.00  0.00    +0.000 C 
BRANCH  23  24
ATOM     24  O   UNL     1       3.275   5.877  18.704  0.00  0.00    +0.000 OA
BRANCH  24  25
ATOM     25  C   UNL     1       4.446   5.343  19.317  0.00  0.00    +0.000 C 
BRANCH  25  26
ATOM     26  O   UNL     1       4.939   4.208  18.615  0.00  0.00    +0.000 OA
ATOM     27  C   UNL     1       4.404   4.114  17.303  0.00  0.00    +0.000 C 
ENDBRANCH  25  26
ENDBRANCH  24  25
ENDBRANCH  23  24
ENDBRANCH  22  23
ENDBRANCH  19  22
ENDBRANCH  18  19
ENDBRANCH   1  18
BRANCH   7  28
ATOM     28  O   UNL     1      -3.032  13.984  23.673  0.00  0.00    +0.000 OA
BRANCH  28  29
ATOM     29  C   UNL     1      -2.976  12.563  23.575  0.00  0.00    +0.000 C 
BRANCH  29  30
ATOM     30  O   UNL     1      -4.057  11.910  24.226  0.00  0.00    +0.000 OA
ATOM     31  C   UNL     1      -5.252  12.673  24.140  0.00  0.00    +0.000 C 
ENDBRANCH  29  30
ENDBRANCH  28  29
ENDBRANCH   7  28
TORSDOF 10
ENDMDL
MODEL 5
REMARK VINA RESULT:      -5.8      0.943      1.230
REMARK  Name = 
REMARK  12 active torsions:
REMARK  status: ('A' for Active; 'I' for Inactive)
REMARK    1  A    between atoms: C_2  and  C_3
REMARK    2  A    between atoms: C_2  and  C_8
REMARK    3  A    between atoms: C_3  and  O_4
REMARK    4  A    between atoms: O_4  and  C_5
REMARK    5  A    between atoms: C_5  and  O_6
REMARK    6  A    between atoms: O_6  and  C_7
REMARK    7  A    between atoms: C_8  and  O_10
REMARK    8  A    between atoms: O_10  and  C_11
REMARK    9  A    between atoms: C_17  and  O_18
REMARK   10  A    between atoms: O_18  and  C_19
REMARK   11  A    between atoms: C_19  and  O_20
REMARK   12  A    between atoms: O_20  and  C_21
REMARK                            x       y       z     vdW  Elec       q    Type
REMARK                         _______ _______ _______ _____ _____    ______ ____
ROOT
ATOM      1  C   UNL     1       1.300   9.359  18.947  0.00  0.00    +0.000 C 
ATOM      2  C   UNL     1       0.751  10.290  17.839  0.00  0.00    +0.000 C 
ATOM      3  C   UNL     1      -0.744  10.575  17.935  0.00  0.00    +0.000 C 
ATOM      4  C   UNL     1      -1.618   9.833  17.232  0.00  0.00    +0.000 C 
ATOM      5  C   UNL     1      -1.233  11.695  18.845  0.00  0.00    +0.000 C 
ATOM      6  C   UNL     1      -0.671  13.059  18.444  0.00  0.00    +0.000 C 
ATOM      7  C   UNL     1      -0.819  13.968  19.659  0.00  0.00    +0.000 C 
ATOM      8  C   UNL     1      -0.993  13.014  20.817  0.00  0.00    +0.000 C 
ATOM      9  C   UNL     1      -1.259  13.398  22.079  0.00  0.00    +0.000 C 
ATOM     10  C   UNL     1      -0.952  11.566  20.361  0.00  0.00    +0.000 C 
ATOM     11  C   UNL     1       0.359  10.850  20.749  0.00  0.00    +0.000 C 
ATOM     12  O   UNL     1       0.451  10.753  22.185  0.00  0.00    +0.000 OA
ATOM     13  C   UNL     1       0.917   9.544  22.577  0.00  0.00    +0.000 C 
ATOM     14  O   UNL     1       1.232   9.236  23.713  0.00  0.00    +0.000 OA
ATOM     15  C   UNL     1       0.907   8.654  21.403  0.00  0.00    +0.000 C 
ATOM     16  C   UNL     1       1.147   7.342  21.514  0.00  0.00    +0.000 C 
ATOM     17  C   UNL     1       0.426   9.412  20.216  0.00  0.00    +0.000 C 
ENDROOT
BRANCH   1  18
ATOM     18  O   UNL     1       1.377   8.005  18.437  0.00  0.00    +0.000 OA
BRANCH  18  19
ATOM     19  C   UNL     1       2.638   7.554  18.161  0.00  0.00    +0.000 C 
ATOM     20  O   UNL     1       3.522   8.226  17.654  0.00  0.00    +0.000 OA
BRANCH  19  22
ATOM     21  C   UNL     1       3.887   5.740  19.305  0.00  0.00    +0.000 C 
ATOM     22  C   UNL     1       2.839   6.129  18.556  0.00  0.00    +0.000 C 
BRANCH  22  23
ATOM     23  C   UNL     1       1.774   5.186  18.043  0.00  0.00    +0.000 C 
BRANCH  23  24
ATOM     24  O   UNL     1       1.432   4.200  19.025  0.00  0.00    +0.000 OA
BRANCH  24  25
ATOM     25  C   UNL     1       1.277   2.916  18.426  0.00  0.00    +0.000 C 
BRANCH  25  26
ATOM     26  O   UNL     1       2.419   2.548  17.659  0.00  0.00    +0.000 OA
ATOM     27  C   UNL     1       3.364   1.814  18.424  0.00  0.00    +0.000 C 
ENDBRANCH  25  26
ENDBRANCH  24  25
ENDBRANCH  23  24
ENDBRANCH  22  23
ENDBRANCH  19  22
ENDBRANCH  18  19
ENDBRANCH   1  18
BRANCH   7  28
ATOM     28  O   UNL     1       0.356  14.749  19.865  0.00  0.00    +0.000 OA
BRANCH  28  29
ATOM     29  C   UNL     1       0.647  15.631  18.784  0.00  0.00    +0.000 C 
BRANCH  29  30
ATOM     30  O   UNL     1       1.986  15.532  18.320  0.00  0.00    +0.000 OA
ATOM     31  C   UNL     1       2.595  16.810  18.215  0.00  0.00    +0.000 C 
ENDBRANCH  29  30
ENDBRANCH  28  29
ENDBRANCH   7  28
TORSDOF 10
ENDMDL
MODEL 6
REMARK VINA RESULT:      -5.7      1.418      2.013
REMARK  Name = 
REMARK  12 active torsions:
REMARK  status: ('A' for Active; 'I' for Inactive)
REMARK    1  A    between atoms: C_2  and  C_3
REMARK    2  A    between atoms: C_2  and  C_8
REMARK    3  A    between atoms: C_3  and  O_4
REMARK    4  A    between atoms: O_4  and  C_5
REMARK    5  A    between atoms: C_5  and  O_6
REMARK    6  A    between atoms: O_6  and  C_7
REMARK    7  A    between atoms: C_8  and  O_10
REMARK    8  A    between atoms: O_10  and  C_11
REMARK    9  A    between atoms: C_17  and  O_18
REMARK   10  A    between atoms: O_18  and  C_19
REMARK   11  A    between atoms: C_19  and  O_20
REMARK   12  A    between atoms: O_20  and  C_21
REMARK                            x       y       z     vdW  Elec       q    Type
REMARK                         _______ _______ _______ _____ _____    ______ ____
ROOT
ATOM      1  C   UNL     1       1.305   9.479  18.927  0.00  0.00    +0.000 C 
ATOM      2  C   UNL     1       0.699  10.398  17.839  0.00  0.00    +0.000 C 
ATOM      3  C   UNL     1      -0.806  10.617  17.962  0.00  0.00    +0.000 C 
ATOM      4  C   UNL     1      -1.658   9.846  17.264  0.00  0.00    +0.000 C 
ATOM      5  C   UNL     1      -1.328  11.705  18.893  0.00  0.00    +0.000 C 
ATOM      6  C   UNL     1      -0.831  13.096  18.499  0.00  0.00    +0.000 C 
ATOM      7  C   UNL     1      -0.998  13.984  19.728  0.00  0.00    +0.000 C 
ATOM      8  C   UNL     1      -1.112  13.011  20.876  0.00  0.00    +0.000 C 
ATOM      9  C   UNL     1      -1.374  13.368  22.148  0.00  0.00    +0.000 C 
ATOM     10  C   UNL     1      -1.017  11.571  20.403  0.00  0.00    +0.000 C 
ATOM     11  C   UNL     1       0.330  10.908  20.762  0.00  0.00    +0.000 C 
ATOM     12  O   UNL     1       0.450  10.799  22.195  0.00  0.00    +0.000 OA
ATOM     13  C   UNL     1       0.974   9.606  22.565  0.00  0.00    +0.000 C 
ATOM     14  O   UNL     1       1.320   9.300  23.692  0.00  0.00    +0.000 OA
ATOM     15  C   UNL     1       0.982   8.731  21.381  0.00  0.00    +0.000 C 
ATOM     16  C   UNL     1       1.280   7.429  21.472  0.00  0.00    +0.000 C 
ATOM     17  C   UNL     1       0.450   9.480  20.211  0.00  0.00    +0.000 C 
ENDROOT
BRANCH   1  18
ATOM     18  O   UNL     1       1.432   8.136  18.400  0.00  0.00    +0.000 OA
BRANCH  18  19
ATOM     19  C   UNL     1       2.686   7.787  17.983  0.00  0.00    +0.000 C 
ATOM     20  O   UNL     1       3.524   8.570  17.564  0.00  0.00    +0.000 OA
BRANCH  19  22
ATOM     21  C   UNL     1       1.943   5.427  18.180  0.00  0.00    +0.000 C 
ATOM     22  C   UNL     1       2.945   6.321  18.098  0.00  0.00    +0.000 C 
BRANCH  22  23
ATOM     23  C   UNL     1       4.411   5.949  18.111  0.00  0.00    +0.000 C 
BRANCH  23  24
ATOM     24  O   UNL     1       4.838   5.463  16.833  0.00  0.00    +0.000 OA
BRANCH  24  25
ATOM     25  C   UNL     1       6.196   5.815  16.582  0.00  0.00    +0.000 C 
BRANCH  25  26
ATOM     26  O   UNL     1       6.428   7.206  16.779  0.00  0.00    +0.000 OA
ATOM     27  C   UNL     1       7.591   7.450  17.556  0.00  0.00    +0.000 C 
ENDBRANCH  25  26
ENDBRANCH  24  25
ENDBRANCH  23  24
ENDBRANCH  22  23
ENDBRANCH  19  22
ENDBRANCH  18  19
ENDBRANCH   1  18
BRANCH   7  28
ATOM     28  O   UNL     1       0.145  14.813  19.924  0.00  0.00    +0.000 OA
BRANCH  28  29
ATOM     29  C   UNL     1       1.274  14.415  19.150  0.00  0.00    +0.000 C 
BRANCH  29  30
ATOM     30  O   UNL     1       2.516  14.730  19.762  0.00  0.00    +0.000 OA
ATOM     31  C   UNL     1       3.193  15.764  19.063  0.00  0.00    +0.000 C 
ENDBRANCH  29  30
ENDBRANCH  28  29
ENDBRANCH   7  28
TORSDOF 10
ENDMDL
MODEL 7
REMARK VINA RESULT:      -5.7      1.616      1.830
REMARK  Name = 
REMARK  12 active torsions:
REMARK  status: ('A' for Active; 'I' for Inactive)
REMARK    1  A    between atoms: C_2  and  C_3
REMARK    2  A    between atoms: C_2  and  C_8
REMARK    3  A    between atoms: C_3  and  O_4
REMARK    4  A    between atoms: O_4  and  C_5
REMARK    5  A    between atoms: C_5  and  O_6
REMARK    6  A    between atoms: O_6  and  C_7
REMARK    7  A    between atoms: C_8  and  O_10
REMARK    8  A    between atoms: O_10  and  C_11
REMARK    9  A    between atoms: C_17  and  O_18
REMARK   10  A    between atoms: O_18  and  C_19
REMARK   11  A    between atoms: C_19  and  O_20
REMARK   12  A    between atoms: O_20  and  C_21
REMARK                            x       y       z     vdW  Elec       q    Type
REMARK                         _______ _______ _______ _____ _____    ______ ____
ROOT
ATOM      1  C   UNL     1       1.074   9.630  19.209  0.00  0.00    +0.000 C 
ATOM      2  C   UNL     1       0.585  10.573  18.083  0.00  0.00    +0.000 C 
ATOM      3  C   UNL     1      -0.919  10.825  18.077  0.00  0.00    +0.000 C 
ATOM      4  C   UNL     1      -1.724  10.081  17.298  0.00  0.00    +0.000 C 
ATOM      5  C   UNL     1      -1.496  11.916  18.971  0.00  0.00    +0.000 C 
ATOM      6  C   UNL     1      -0.936  13.299  18.638  0.00  0.00    +0.000 C 
ATOM      7  C   UNL     1      -1.190  14.180  19.857  0.00  0.00    +0.000 C 
ATOM      8  C   UNL     1      -1.425  13.199  20.980  0.00  0.00    +0.000 C 
ATOM      9  C   UNL     1      -1.789  13.550  22.228  0.00  0.00    +0.000 C 
ATOM     10  C   UNL     1      -1.321  11.761  20.501  0.00  0.00    +0.000 C 
ATOM     11  C   UNL     1      -0.025  11.064  20.968  0.00  0.00    +0.000 C 
ATOM     12  O   UNL     1      -0.034  10.939  22.405  0.00  0.00    +0.000 OA
ATOM     13  C   UNL     1       0.429   9.731  22.806  0.00  0.00    +0.000 C 
ATOM     14  O   UNL     1       0.668   9.407  23.955  0.00  0.00    +0.000 OA
ATOM     15  C   UNL     1       0.522   8.867  21.617  0.00  0.00    +0.000 C 
ATOM     16  C   UNL     1       0.781   7.558  21.719  0.00  0.00    +0.000 C 
ATOM     17  C   UNL     1       0.110   9.639  20.413  0.00  0.00    +0.000 C 
ENDROOT
BRANCH   1  18
ATOM     18  O   UNL     1       1.216   8.289  18.680  0.00  0.00    +0.000 OA
BRANCH  18  19
ATOM     19  C   UNL     1       2.369   8.054  17.984  0.00  0.00    +0.000 C 
ATOM     20  O   UNL     1       2.878   8.835  17.195  0.00  0.00    +0.000 OA
BRANCH  19  22
ATOM     21  C   UNL     1       2.333   5.818  19.061  0.00  0.00    +0.000 C 
ATOM     22  C   UNL     1       2.967   6.722  18.292  0.00  0.00    +0.000 C 
BRANCH  22  23
ATOM     23  C   UNL     1       4.326   6.492  17.669  0.00  0.00    +0.000 C 
BRANCH  23  24
ATOM     24  O   UNL     1       4.857   5.212  18.032  0.00  0.00    +0.000 OA
BRANCH  24  25
ATOM     25  C   UNL     1       5.947   5.351  18.940  0.00  0.00    +0.000 C 
BRANCH  25  26
ATOM     26  O   UNL     1       6.992   4.427  18.658  0.00  0.00    +0.000 OA
ATOM     27  C   UNL     1       7.512   4.589  17.346  0.00  0.00    +0.000 C 
ENDBRANCH  25  26
ENDBRANCH  24  25
ENDBRANCH  23  24
ENDBRANCH  22  23
ENDBRANCH  19  22
ENDBRANCH  18  19
ENDBRANCH   1  18
BRANCH   7  28
ATOM     28  O   UNL     1      -0.050  14.980  20.161  0.00  0.00    +0.000 OA
BRANCH  28  29
ATOM     29  C   UNL     1       0.542  15.584  19.014  0.00  0.00    +0.000 C 
BRANCH  29  30
ATOM     30  O   UNL     1      -0.055  16.823  18.658  0.00  0.00    +0.000 OA
ATOM     31  C   UNL     1       0.151  17.806  19.662  0.00  0.00    +0.000 C 
ENDBRANCH  29  30
ENDBRANCH  28  29
ENDBRANCH   7  28
TORSDOF 10
ENDMDL
MODEL 8
REMARK VINA RESULT:      -5.7      3.354      5.473
REMARK  Name = 
REMARK  12 active torsions:
REMARK  status: ('A' for Active; 'I' for Inactive)
REMARK    1  A    between atoms: C_2  and  C_3
REMARK    2  A    between atoms: C_2  and  C_8
REMARK    3  A    between atoms: C_3  and  O_4
REMARK    4  A    between atoms: O_4  and  C_5
REMARK    5  A    between atoms: C_5  and  O_6
REMARK    6  A    between atoms: O_6  and  C_7
REMARK    7  A    between atoms: C_8  and  O_10
REMARK    8  A    between atoms: O_10  and  C_11
REMARK    9  A    between atoms: C_17  and  O_18
REMARK   10  A    between atoms: O_18  and  C_19
REMARK   11  A    between atoms: C_19  and  O_20
REMARK   12  A    between atoms: O_20  and  C_21
REMARK                            x       y       z     vdW  Elec       q    Type
REMARK                         _______ _______ _______ _____ _____    ______ ____
ROOT
ATOM      1  C   UNL     1      -0.620  10.481  20.419  0.00  0.00    +0.000 C 
ATOM      2  C   UNL     1      -0.429  11.233  21.758  0.00  0.00    +0.000 C 
ATOM      3  C   UNL     1      -0.524  12.751  21.652  0.00  0.00    +0.000 C 
ATOM      4  C   UNL     1       0.591  13.487  21.504  0.00  0.00    +0.000 C 
ATOM      5  C   UNL     1      -1.893  13.418  21.699  0.00  0.00    +0.000 C 
ATOM      6  C   UNL     1      -2.632  13.141  23.008  0.00  0.00    +0.000 C 
ATOM      7  C   UNL     1      -4.107  13.423  22.747  0.00  0.00    +0.000 C 
ATOM      8  C   UNL     1      -4.234  13.375  21.243  0.00  0.00    +0.000 C 
ATOM      9  C   UNL     1      -5.361  13.671  20.569  0.00  0.00    +0.000 C 
ATOM     10  C   UNL     1      -2.902  13.071  20.578  0.00  0.00    +0.000 C 
ATOM     11  C   UNL     1      -2.825  11.635  20.017  0.00  0.00    +0.000 C 
ATOM     12  O   UNL     1      -3.778  11.482  18.946  0.00  0.00    +0.000 OA
ATOM     13  C   UNL     1      -3.260  10.780  17.910  0.00  0.00    +0.000 C 
ATOM     14  O   UNL     1      -3.880  10.378  16.942  0.00  0.00    +0.000 OA
ATOM     15  C   UNL     1      -1.809  10.656  18.130  0.00  0.00    +0.000 C 
ATOM     16  C   UNL     1      -0.995  10.165  17.188  0.00  0.00    +0.000 C 
ATOM     17  C   UNL     1      -1.449  11.310  19.417  0.00  0.00    +0.000 C 
ENDROOT
BRANCH   1  18
ATOM     18  O   UNL     1       0.680  10.161  19.863  0.00  0.00    +0.000 OA
BRANCH  18  19
ATOM     19  C   UNL     1       1.124   8.892  20.107  0.00  0.00    +0.000 C 
ATOM     20  O   UNL     1       0.889   8.254  21.122  0.00  0.00    +0.000 OA
BRANCH  19  22
ATOM     21  C   UNL     1       2.210   9.061  17.881  0.00  0.00    +0.000 C 
ATOM     22  C   UNL     1       1.940   8.341  18.985  0.00  0.00    +0.000 C 
BRANCH  22  23
ATOM     23  C   UNL     1       2.424   6.925  19.206  0.00  0.00    +0.000 C 
BRANCH  23  24
ATOM     24  O   UNL     1       2.281   6.134  18.021  0.00  0.00    +0.000 OA
BRANCH  24  25
ATOM     25  C   UNL     1       2.083   4.760  18.347  0.00  0.00    +0.000 C 
BRANCH  25  26
ATOM     26  O   UNL     1       2.719   3.897  17.410  0.00  0.00    +0.000 OA
ATOM     27  C   UNL     1       4.060   4.286  17.146  0.00  0.00    +0.000 C 
ENDBRANCH  25  26
ENDBRANCH  24  25
ENDBRANCH  23  24
ENDBRANCH  22  23
ENDBRANCH  19  22
ENDBRANCH  18  19
ENDBRANCH   1  18
BRANCH   7  28
ATOM     28  O   UNL     1      -4.935  12.415  23.322  0.00  0.00    +0.000 OA
BRANCH  28  29
ATOM     29  C   UNL     1      -6.055  12.937  24.033  0.00  0.00    +0.000 C 
BRANCH  29  30
ATOM     30  O   UNL     1      -7.135  12.020  24.135  0.00  0.00    +0.000 OA
ATOM     31  C   UNL     1      -7.886  11.966  22.931  0.00  0.00    +0.000 C 
ENDBRANCH  29  30
ENDBRANCH  28  29
ENDBRANCH   7  28
TORSDOF 10
ENDMDL
MODEL 9
REMARK VINA RESULT:      -5.7      1.759      2.179
REMARK  Name = 
REMARK  12 active torsions:
REMARK  status: ('A' for Active; 'I' for Inactive)
REMARK    1  A    between atoms: C_2  and  C_3
REMARK    2  A    between atoms: C_2  and  C_8
REMARK    3  A    between atoms: C_3  and  O_4
REMARK    4  A    between atoms: O_4  and  C_5
REMARK    5  A    between atoms: C_5  and  O_6
REMARK    6  A    between atoms: O_6  and  C_7
REMARK    7  A    between atoms: C_8  and  O_10
REMARK    8  A    between atoms: O_10  and  C_11
REMARK    9  A    between atoms: C_17  and  O_18
REMARK   10  A    between atoms: O_18  and  C_19
REMARK   11  A    between atoms: C_19  and  O_20
REMARK   12  A    between atoms: O_20  and  C_21
REMARK                            x       y       z     vdW  Elec       q    Type
REMARK                         _______ _______ _______ _____ _____    ______ ____
ROOT
ATOM      1  C   UNL     1       1.219   9.511  18.953  0.00  0.00    +0.000 C 
ATOM      2  C   UNL     1       0.622  10.444  17.871  0.00  0.00    +0.000 C 
ATOM      3  C   UNL     1      -0.880  10.677  17.994  0.00  0.00    +0.000 C 
ATOM      4  C   UNL     1      -1.740   9.920  17.290  0.00  0.00    +0.000 C 
ATOM      5  C   UNL     1      -1.393  11.762  18.933  0.00  0.00    +0.000 C 
ATOM      6  C   UNL     1      -0.883  13.152  18.551  0.00  0.00    +0.000 C 
ATOM      7  C   UNL     1      -1.042  14.032  19.786  0.00  0.00    +0.000 C 
ATOM      8  C   UNL     1      -1.166  13.051  20.927  0.00  0.00    +0.000 C 
ATOM      9  C   UNL     1      -1.426  13.401  22.201  0.00  0.00    +0.000 C 
ATOM     10  C   UNL     1      -1.085  11.614  20.443  0.00  0.00    +0.000 C 
ATOM     11  C   UNL     1       0.256  10.935  20.797  0.00  0.00    +0.000 C 
ATOM     12  O   UNL     1       0.373  10.814  22.229  0.00  0.00    +0.000 OA
ATOM     13  C   UNL     1       0.885   9.613  22.591  0.00  0.00    +0.000 C 
ATOM     14  O   UNL     1       1.227   9.295  23.716  0.00  0.00    +0.000 OA
ATOM     15  C   UNL     1       0.886   8.747  21.400  0.00  0.00    +0.000 C 
ATOM     16  C   UNL     1       1.171   7.442  21.481  0.00  0.00    +0.000 C 
ATOM     17  C   UNL     1       0.362   9.510  20.235  0.00  0.00    +0.000 C 
ENDROOT
BRANCH   1  18
ATOM     18  O   UNL     1       1.333   8.171  18.415  0.00  0.00    +0.000 OA
BRANCH  18  19
ATOM     19  C   UNL     1       2.563   7.842  17.920  0.00  0.00    +0.000 C 
ATOM     20  O   UNL     1       3.339   8.629  17.399  0.00  0.00    +0.000 OA
BRANCH  19  22
ATOM     21  C   UNL     1       1.924   5.450  18.098  0.00  0.00    +0.000 C 
ATOM     22  C   UNL     1       2.883   6.393  18.086  0.00  0.00    +0.000 C 
BRANCH  22  23
ATOM     23  C   UNL     1       4.359   6.096  18.236  0.00  0.00    +0.000 C 
BRANCH  23  24
ATOM     24  O   UNL     1       4.872   5.407  17.090  0.00  0.00    +0.000 OA
BRANCH  24  25
ATOM     25  C   UNL     1       5.685   6.270  16.298  0.00  0.00    +0.000 C 
BRANCH  25  26
ATOM     26  O   UNL     1       5.850   5.774  14.974  0.00  0.00    +0.000 OA
ATOM     27  C   UNL     1       6.800   4.720  14.910  0.00  0.00    +0.000 C 
ENDBRANCH  25  26
ENDBRANCH  24  25
ENDBRANCH  23  24
ENDBRANCH  22  23
ENDBRANCH  19  22
ENDBRANCH  18  19
ENDBRANCH   1  18
BRANCH   7  28
ATOM     28  O   UNL     1       0.109  14.848  19.990  0.00  0.00    +0.000 OA
BRANCH  28  29
ATOM     29  C   UNL     1      -0.145  16.240  19.816  0.00  0.00    +0.000 C 
BRANCH  29  30
ATOM     30  O   UNL     1       0.278  16.737  18.554  0.00  0.00    +0.000 OA
ATOM     31  C   UNL     1      -0.730  17.530  17.944  0.00  0.00    +0.000 C 
ENDBRANCH  29  30
ENDBRANCH  28  29
ENDBRANCH   7  28
TORSDOF 10
ENDMDL
