MODEL 1
REMARK VINA RESULT:      -5.7      0.000      0.000
REMARK  Name = 
REMARK  19 active torsions:
REMARK  status: ('A' for Active; 'I' for Inactive)
REMARK    1  A    between atoms: C_1  and  C_2
REMARK    2  A    between atoms: C_2  and  C_3
REMARK    3  A    between atoms: C_3  and  C_4
REMARK    4  A    between atoms: C_4  and  C_5
REMARK    5  A    between atoms: C_5  and  C_6
REMARK    6  A    between atoms: C_6  and  C_7
REMARK    7  A    between atoms: C_7  and  C_8
REMARK    8  A    between atoms: C_8  and  C_9
REMARK    9  A    between atoms: C_9  and  C_10
REMARK   10  A    between atoms: C_10  and  C_11
REMARK   11  A    between atoms: C_11  and  C_12
REMARK   12  A    between atoms: C_12  and  C_13
REMARK   13  A    between atoms: C_13  and  C_14
REMARK   14  A    between atoms: C_14  and  N_15
REMARK   15  A    between atoms: N_15  and  C_16
REMARK   16  A    between atoms: C_16  and  C_17
REMARK   17  A    between atoms: C_16  and  C_18
REMARK   18  A    between atoms: C_18  and  O_19
REMARK   19  A    between atoms: C_18  and  C_20
REMARK                            x       y       z     vdW  Elec       q    Type
REMARK                         _______ _______ _______ _____ _____    ______ ____
ROOT
ATOM      1  C   UNL     1       1.173   8.948  21.271  0.00  0.00    +0.000 C 
ENDROOT
BRANCH   1   2
ATOM      2  N   UNL     1      -0.255   9.263  21.342  0.00  0.00    +0.000 NA
ATOM      3  H   UNL     1      -0.530   9.308  22.323  0.00  0.00    +0.000 HD
BRANCH   2   4
ATOM      4  C   UNL     1      -0.597  10.550  20.679  0.00  0.00    +0.000 C 
ATOM      5  C   UNL     1      -0.028  11.753  21.449  0.00  0.00    +0.000 C 
BRANCH   4   6
ATOM      6  C   UNL     1      -0.274  10.625  19.130  0.00  0.00    +0.000 C 
BRANCH   6   7
ATOM      7  C   UNL     1      -1.542  10.631  18.267  0.00  0.00    +0.000 A 
ATOM      8  C   UNL     1      -1.694   9.813  17.135  0.00  0.00    +0.000 A 
ATOM      9  C   UNL     1      -2.831   9.899  16.326  0.00  0.00    +0.000 A 
ATOM     10  C   UNL     1      -3.858  10.780  16.647  0.00  0.00    +0.000 A 
ATOM     11  C   UNL     1      -3.756  11.560  17.795  0.00  0.00    +0.000 A 
ATOM     12  C   UNL     1      -2.617  11.480  18.605  0.00  0.00    +0.000 A 
ENDBRANCH   6   7
BRANCH   6  13
ATOM     13  O   UNL     1       0.578  11.750  18.839  0.00  0.00    +0.000 OA
ATOM     14  H   UNL     1       1.186  11.506  18.121  0.00  0.00    +0.000 HD
ENDBRANCH   6  13
ENDBRANCH   4   6
ENDBRANCH   2   4
ENDBRANCH   1   2
BRANCH   1  15
ATOM     15  C   UNL     1       1.423   7.605  20.598  0.00  0.00    +0.000 C 
BRANCH  15  16
ATOM     16  C   UNL     1       2.348   7.815  19.399  0.00  0.00    +0.000 C 
BRANCH  16  17
ATOM     17  C   UNL     1       2.246   6.655  18.425  0.00  0.00    +0.000 C 
BRANCH  17  18
ATOM     18  C   UNL     1       3.632   6.153  18.042  0.00  0.00    +0.000 C 
BRANCH  18  19
ATOM     19  C   UNL     1       4.261   5.418  19.215  0.00  0.00    +0.000 C 
BRANCH  19  20
ATOM     20  C   UNL     1       5.075   4.229  18.729  0.00  0.00    +0.000 C 
BRANCH  20  21
ATOM     21  C   UNL     1       4.362   3.544  17.573  0.00  0.00    +0.000 C 
BRANCH  21  22
ATOM     22  C   UNL     1       3.688   2.265  18.047  0.00  0.00    +0.000 C 
BRANCH  22  23
ATOM     23  C   UNL     1       2.189   2.330  17.792  0.00  0.00    +0.000 C 
BRANCH  23  24
ATOM     24  C   UNL     1       1.418   2.222  19.102  0.00  0.00    +0.000 C 
BRANCH  24  25
ATOM     25  C   UNL     1       0.990   3.602  19.588  0.00  0.00    +0.000 C 
BRANCH  25  27
ATOM     26  C   UNL     1       2.413   2.770  21.478  0.00  0.00    +0.000 C 
ATOM     27  C   UNL     1       1.417   3.828  21.034  0.00  0.00    +0.000 C 
ENDBRANCH  25  27
ENDBRANCH  24  25
ENDBRANCH  23  24
ENDBRANCH  22  23
ENDBRANCH  21  22
ENDBRANCH  20  21
ENDBRANCH  19  20
ENDBRANCH  18  19
ENDBRANCH  17  18
ENDBRANCH  16  17
ENDBRANCH  15  16
ENDBRANCH   1  15
TORSDOF 17
ENDMDL
MODEL 2
REMARK VINA RESULT:      -5.7      4.766      7.586
REMARK  Name = 
REMARK  19 active torsions:
REMARK  status: ('A' for Active; 'I' for Inactive)
REMARK    1  A    between atoms: C_1  and  C_2
REMARK    2  A    between atoms: C_2  and  C_3
REMARK    3  A    between atoms: C_3  and  C_4
REMARK    4  A    between atoms: C_4  and  C_5
REMARK    5  A    between atoms: C_5  and  C_6
REMARK    6  A    between atoms: C_6  and  C_7
REMARK    7  A    between atoms: C_7  and  C_8
REMARK    8  A    between atoms: C_8  and  C_9
REMARK    9  A    between atoms: C_9  and  C_10
REMARK   10  A    between atoms: C_10  and  C_11
REMARK   11  A    between atoms: C_11  and  C_12
REMARK   12  A    between atoms: C_12  and  C_13
REMARK   13  A    between atoms: C_13  and  C_14
REMARK   14  A    between atoms: C_14  and  N_15
REMARK   15  A    between atoms: N_15  and  C_16
REMARK   16  A    between atoms: C_16  and  C_17
REMARK   17  A    between atoms: C_16  and  C_18
REMARK   18  A    between atoms: C_18  and  O_19
REMARK   19  A    between atoms: C_18  and  C_20
REMARK                            x       y       z     vdW  Elec       q    Type
REMARK                         _______ _______ _______ _____ _____    ______ ____
ROOT
ATOM      1  C   UNL     1       4.621   6.746  16.701  0.00  0.00    +0.000 C 
ENDROOT
BRANCH   1   2
ATOM      2  N   UNL     1       5.903   7.262  16.219  0.00  0.00    +0.000 NA
ATOM      3  H   UNL     1       6.023   8.213  16.567  0.00  0.00    +0.000 HD
BRANCH   2   4
ATOM      4  C   UNL     1       7.060   6.433  16.651  0.00  0.00    +0.000 C 
ATOM      5  C   UNL     1       7.416   6.682  18.125  0.00  0.00    +0.000 C 
BRANCH   4   6
ATOM      6  C   UNL     1       6.955   4.889  16.314  0.00  0.00    +0.000 C 
BRANCH   6   7
ATOM      7  C   UNL     1       6.946   4.618  14.804  0.00  0.00    +0.000 A 
ATOM      8  C   UNL     1       7.832   5.248  13.914  0.00  0.00    +0.000 A 
ATOM      9  C   UNL     1       7.746   5.036  12.535  0.00  0.00    +0.000 A 
ATOM     10  C   UNL     1       6.797   4.164  12.015  0.00  0.00    +0.000 A 
ATOM     11  C   UNL     1       5.945   3.484  12.881  0.00  0.00    +0.000 A 
ATOM     12  C   UNL     1       6.025   3.697  14.262  0.00  0.00    +0.000 A 
ENDBRANCH   6   7
BRANCH   6  13
ATOM     13  O   UNL     1       7.992   4.147  16.985  0.00  0.00    +0.000 OA
ATOM     14  H   UNL     1       7.649   3.825  17.835  0.00  0.00    +0.000 HD
ENDBRANCH   6  13
ENDBRANCH   4   6
ENDBRANCH   2   4
ENDBRANCH   1   2
BRANCH   1  15
ATOM     15  C   UNL     1       3.852   7.795  17.494  0.00  0.00    +0.000 C 
BRANCH  15  16
ATOM     16  C   UNL     1       2.642   7.131  18.151  0.00  0.00    +0.000 C 
BRANCH  16  17
ATOM     17  C   UNL     1       2.927   5.674  18.466  0.00  0.00    +0.000 C 
BRANCH  17  18
ATOM     18  C   UNL     1       3.900   5.558  19.632  0.00  0.00    +0.000 C 
BRANCH  18  19
ATOM     19  C   UNL     1       5.012   4.581  19.285  0.00  0.00    +0.000 C 
BRANCH  19  20
ATOM     20  C   UNL     1       4.451   3.182  19.077  0.00  0.00    +0.000 C 
BRANCH  20  21
ATOM     21  C   UNL     1       4.043   2.992  17.624  0.00  0.00    +0.000 C 
BRANCH  21  22
ATOM     22  C   UNL     1       2.739   2.213  17.536  0.00  0.00    +0.000 C 
BRANCH  22  23
ATOM     23  C   UNL     1       2.182   1.952  18.928  0.00  0.00    +0.000 C 
BRANCH  23  24
ATOM     24  C   UNL     1       0.767   2.506  19.052  0.00  0.00    +0.000 C 
BRANCH  24  25
ATOM     25  C   UNL     1       0.720   3.633  20.078  0.00  0.00    +0.000 C 
BRANCH  25  27
ATOM     26  C   UNL     1       1.215   2.335  22.165  0.00  0.00    +0.000 C 
ATOM     27  C   UNL     1       1.724   3.391  21.200  0.00  0.00    +0.000 C 
ENDBRANCH  25  27
ENDBRANCH  24  25
ENDBRANCH  23  24
ENDBRANCH  22  23
ENDBRANCH  21  22
ENDBRANCH  20  21
ENDBRANCH  19  20
ENDBRANCH  18  19
ENDBRANCH  17  18
ENDBRANCH  16  17
ENDBRANCH  15  16
ENDBRANCH   1  15
TORSDOF 17
ENDMDL
MODEL 3
REMARK VINA RESULT:      -5.6      4.629      7.596
REMARK  Name = 
REMARK  19 active torsions:
REMARK  status: ('A' for Active; 'I' for Inactive)
REMARK    1  A    between atoms: C_1  and  C_2
REMARK    2  A    between atoms: C_2  and  C_3
REMARK    3  A    between atoms: C_3  and  C_4
REMARK    4  A    between atoms: C_4  and  C_5
REMARK    5  A    between atoms: C_5  and  C_6
REMARK    6  A    between atoms: C_6  and  C_7
REMARK    7  A    between atoms: C_7  and  C_8
REMARK    8  A    between atoms: C_8  and  C_9
REMARK    9  A    between atoms: C_9  and  C_10
REMARK   10  A    between atoms: C_10  and  C_11
REMARK   11  A    between atoms: C_11  and  C_12
REMARK   12  A    between atoms: C_12  and  C_13
REMARK   13  A    between atoms: C_13  and  C_14
REMARK   14  A    between atoms: C_14  and  N_15
REMARK   15  A    between atoms: N_15  and  C_16
REMARK   16  A    between atoms: C_16  and  C_17
REMARK   17  A    between atoms: C_16  and  C_18
REMARK   18  A    between atoms: C_18  and  O_19
REMARK   19  A    between atoms: C_18  and  C_20
REMARK                            x       y       z     vdW  Elec       q    Type
REMARK                         _______ _______ _______ _____ _____    ______ ____
ROOT
ATOM      1  C   UNL     1       5.744   3.760  19.135  0.00  0.00    +0.000 C 
ENDROOT
BRANCH   1   2
ATOM      2  N   UNL     1       4.594   3.001  19.631  0.00  0.00    +0.000 NA
ATOM      3  H   UNL     1       4.234   3.465  20.465  0.00  0.00    +0.000 HD
BRANCH   2   4
ATOM      4  C   UNL     1       3.503   2.884  18.627  0.00  0.00    +0.000 C 
ATOM      5  C   UNL     1       3.395   1.453  18.074  0.00  0.00    +0.000 C 
BRANCH   4   6
ATOM      6  C   UNL     1       2.098   3.458  19.078  0.00  0.00    +0.000 C 
BRANCH   6   7
ATOM      7  C   UNL     1       2.093   4.989  19.171  0.00  0.00    +0.000 A 
ATOM      8  C   UNL     1       2.348   5.818  18.065  0.00  0.00    +0.000 A 
ATOM      9  C   UNL     1       2.412   7.207  18.200  0.00  0.00    +0.000 A 
ATOM     10  C   UNL     1       2.189   7.805  19.435  0.00  0.00    +0.000 A 
ATOM     11  C   UNL     1       1.879   7.009  20.534  0.00  0.00    +0.000 A 
ATOM     12  C   UNL     1       1.818   5.617  20.404  0.00  0.00    +0.000 A 
ENDBRANCH   6   7
BRANCH   6  13
ATOM     13  O   UNL     1       1.047   2.971  18.222  0.00  0.00    +0.000 OA
ATOM     14  H   UNL     1       0.662   3.720  17.737  0.00  0.00    +0.000 HD
ENDBRANCH   6  13
ENDBRANCH   4   6
ENDBRANCH   2   4
ENDBRANCH   1   2
BRANCH   1  15
ATOM     15  C   UNL     1       5.591   5.253  19.396  0.00  0.00    +0.000 C 
BRANCH  15  16
ATOM     16  C   UNL     1       6.004   6.020  18.139  0.00  0.00    +0.000 C 
BRANCH  16  17
ATOM     17  C   UNL     1       7.429   5.682  17.741  0.00  0.00    +0.000 C 
BRANCH  17  18
ATOM     18  C   UNL     1       7.449   4.532  16.744  0.00  0.00    +0.000 C 
BRANCH  18  19
ATOM     19  C   UNL     1       6.682   4.919  15.489  0.00  0.00    +0.000 C 
BRANCH  19  20
ATOM     20  C   UNL     1       6.393   3.693  14.637  0.00  0.00    +0.000 C 
BRANCH  20  21
ATOM     21  C   UNL     1       5.716   4.106  13.338  0.00  0.00    +0.000 C 
BRANCH  21  22
ATOM     22  C   UNL     1       6.297   3.328  12.166  0.00  0.00    +0.000 C 
BRANCH  22  23
ATOM     23  C   UNL     1       5.183   2.680  11.355  0.00  0.00    +0.000 C 
BRANCH  23  24
ATOM     24  C   UNL     1       3.843   3.334  11.668  0.00  0.00    +0.000 C 
BRANCH  24  25
ATOM     25  C   UNL     1       2.860   3.118  10.522  0.00  0.00    +0.000 C 
BRANCH  25  27
ATOM     26  C   UNL     1       2.385   5.034   8.977  0.00  0.00    +0.000 C 
ATOM     27  C   UNL     1       3.309   3.865   9.271  0.00  0.00    +0.000 C 
ENDBRANCH  25  27
ENDBRANCH  24  25
ENDBRANCH  23  24
ENDBRANCH  22  23
ENDBRANCH  21  22
ENDBRANCH  20  21
ENDBRANCH  19  20
ENDBRANCH  18  19
ENDBRANCH  17  18
ENDBRANCH  16  17
ENDBRANCH  15  16
ENDBRANCH   1  15
TORSDOF 17
ENDMDL
MODEL 4
REMARK VINA RESULT:      -5.6      2.396      4.936
REMARK  Name = 
REMARK  19 active torsions:
REMARK  status: ('A' for Active; 'I' for Inactive)
REMARK    1  A    between atoms: C_1  and  C_2
REMARK    2  A    between atoms: C_2  and  C_3
REMARK    3  A    between atoms: C_3  and  C_4
REMARK    4  A    between atoms: C_4  and  C_5
REMARK    5  A    between atoms: C_5  and  C_6
REMARK    6  A    between atoms: C_6  and  C_7
REMARK    7  A    between atoms: C_7  and  C_8
REMARK    8  A    between atoms: C_8  and  C_9
REMARK    9  A    between atoms: C_9  and  C_10
REMARK   10  A    between atoms: C_10  and  C_11
REMARK   11  A    between atoms: C_11  and  C_12
REMARK   12  A    between atoms: C_12  and  C_13
REMARK   13  A    between atoms: C_13  and  C_14
REMARK   14  A    between atoms: C_14  and  N_15
REMARK   15  A    between atoms: N_15  and  C_16
REMARK   16  A    between atoms: C_16  and  C_17
REMARK   17  A    between atoms: C_16  and  C_18
REMARK   18  A    between atoms: C_18  and  O_19
REMARK   19  A    between atoms: C_18  and  C_20
REMARK                            x       y       z     vdW  Elec       q    Type
REMARK                         _______ _______ _______ _____ _____    ______ ____
ROOT
ATOM      1  C   UNL     1       2.585   5.427  19.551  0.00  0.00    +0.000 C 
ENDROOT
BRANCH   1   2
ATOM      2  N   UNL     1       2.107   6.217  18.414  0.00  0.00    +0.000 NA
ATOM      3  H   UNL     1       1.089   6.267  18.458  0.00  0.00    +0.000 HD
BRANCH   2   4
ATOM      4  C   UNL     1       2.664   7.595  18.391  0.00  0.00    +0.000 C 
ATOM      5  C   UNL     1       3.845   7.712  17.414  0.00  0.00    +0.000 C 
BRANCH   4   6
ATOM      6  C   UNL     1       1.604   8.755  18.191  0.00  0.00    +0.000 C 
BRANCH   6   7
ATOM      7  C   UNL     1       1.074   9.300  19.523  0.00  0.00    +0.000 A 
ATOM      8  C   UNL     1       1.389   8.717  20.762  0.00  0.00    +0.000 A 
ATOM      9  C   UNL     1       0.827   9.192  21.950  0.00  0.00    +0.000 A 
ATOM     10  C   UNL     1      -0.036  10.282  21.933  0.00  0.00    +0.000 A 
ATOM     11  C   UNL     1      -0.319  10.912  20.725  0.00  0.00    +0.000 A 
ATOM     12  C   UNL     1       0.238  10.436  19.532  0.00  0.00    +0.000 A 
ENDBRANCH   6   7
BRANCH   6  13
ATOM     13  O   UNL     1       2.143   9.802  17.360  0.00  0.00    +0.000 OA
ATOM     14  H   UNL     1       3.092   9.898  17.550  0.00  0.00    +0.000 HD
ENDBRANCH   6  13
ENDBRANCH   4   6
ENDBRANCH   2   4
ENDBRANCH   1   2
BRANCH   1  15
ATOM     15  C   UNL     1       1.489   5.202  20.583  0.00  0.00    +0.000 C 
BRANCH  15  16
ATOM     16  C   UNL     1       1.097   3.724  20.577  0.00  0.00    +0.000 C 
BRANCH  16  17
ATOM     17  C   UNL     1       1.061   3.179  19.161  0.00  0.00    +0.000 C 
BRANCH  17  18
ATOM     18  C   UNL     1       1.604   1.757  19.119  0.00  0.00    +0.000 C 
BRANCH  18  19
ATOM     19  C   UNL     1       3.001   1.752  18.519  0.00  0.00    +0.000 C 
BRANCH  19  20
ATOM     20  C   UNL     1       3.104   2.769  17.392  0.00  0.00    +0.000 C 
BRANCH  20  21
ATOM     21  C   UNL     1       4.523   3.312  17.304  0.00  0.00    +0.000 C 
BRANCH  21  22
ATOM     22  C   UNL     1       4.636   4.325  16.175  0.00  0.00    +0.000 C 
BRANCH  22  23
ATOM     23  C   UNL     1       5.962   4.161  15.445  0.00  0.00    +0.000 C 
BRANCH  23  24
ATOM     24  C   UNL     1       6.962   5.213  15.909  0.00  0.00    +0.000 C 
BRANCH  24  25
ATOM     25  C   UNL     1       7.615   4.790  17.221  0.00  0.00    +0.000 C 
BRANCH  25  27
ATOM     26  C   UNL     1       7.724   7.198  17.912  0.00  0.00    +0.000 C 
ATOM     27  C   UNL     1       7.316   5.796  18.327  0.00  0.00    +0.000 C 
ENDBRANCH  25  27
ENDBRANCH  24  25
ENDBRANCH  23  24
ENDBRANCH  22  23
ENDBRANCH  21  22
ENDBRANCH  20  21
ENDBRANCH  19  20
ENDBRANCH  18  19
ENDBRANCH  17  18
ENDBRANCH  16  17
ENDBRANCH  15  16
ENDBRANCH   1  15
TORSDOF 17
ENDMDL
MODEL 5
REMARK VINA RESULT:      -5.5      3.646      6.651
REMARK  Name = 
REMARK  19 active torsions:
REMARK  status: ('A' for Active; 'I' for Inactive)
REMARK    1  A    between atoms: C_1  and  C_2
REMARK    2  A    between atoms: C_2  and  C_3
REMARK    3  A    between atoms: C_3  and  C_4
REMARK    4  A    between atoms: C_4  and  C_5
REMARK    5  A    between atoms: C_5  and  C_6
REMARK    6  A    between atoms: C_6  and  C_7
REMARK    7  A    between atoms: C_7  and  C_8
REMARK    8  A    between atoms: C_8  and  C_9
REMARK    9  A    between atoms: C_9  and  C_10
REMARK   10  A    between atoms: C_10  and  C_11
REMARK   11  A    between atoms: C_11  and  C_12
REMARK   12  A    between atoms: C_12  and  C_13
REMARK   13  A    between atoms: C_13  and  C_14
REMARK   14  A    between atoms: C_14  and  N_15
REMARK   15  A    between atoms: N_15  and  C_16
REMARK   16  A    between atoms: C_16  and  C_17
REMARK   17  A    between atoms: C_16  and  C_18
REMARK   18  A    between atoms: C_18  and  O_19
REMARK   19  A    between atoms: C_18  and  C_20
REMARK                            x       y       z     vdW  Elec       q    Type
REMARK                         _______ _______ _______ _____ _____    ______ ____
ROOT
ATOM      1  C   UNL     1       4.336   2.443  18.936  0.00  0.00    +0.000 C 
ENDROOT
BRANCH   1   2
ATOM      2  N   UNL     1       3.025   2.459  19.588  0.00  0.00    +0.000 NA
ATOM      3  H   UNL     1       3.157   2.299  20.587  0.00  0.00    +0.000 HD
BRANCH   2   4
ATOM      4  C   UNL     1       2.296   3.739  19.389  0.00  0.00    +0.000 C 
ATOM      5  C   UNL     1       0.774   3.545  19.488  0.00  0.00    +0.000 C 
BRANCH   4   6
ATOM      6  C   UNL     1       2.802   4.955  20.268  0.00  0.00    +0.000 C 
BRANCH   6   7
ATOM      7  C   UNL     1       2.366   6.311  19.701  0.00  0.00    +0.000 A 
ATOM      8  C   UNL     1       2.513   6.649  18.345  0.00  0.00    +0.000 A 
ATOM      9  C   UNL     1       2.176   7.922  17.875  0.00  0.00    +0.000 A 
ATOM     10  C   UNL     1       1.652   8.876  18.740  0.00  0.00    +0.000 A 
ATOM     11  C   UNL     1       1.445   8.546  20.076  0.00  0.00    +0.000 A 
ATOM     12  C   UNL     1       1.785   7.274  20.552  0.00  0.00    +0.000 A 
ENDBRANCH   6   7
BRANCH   6  13
ATOM     13  O   UNL     1       2.400   4.795  21.643  0.00  0.00    +0.000 OA
ATOM     14  H   UNL     1       2.313   5.674  22.050  0.00  0.00    +0.000 HD
ENDBRANCH   6  13
ENDBRANCH   4   6
ENDBRANCH   2   4
ENDBRANCH   1   2
BRANCH   1  15
ATOM     15  C   UNL     1       4.640   3.767  18.248  0.00  0.00    +0.000 C 
BRANCH  15  16
ATOM     16  C   UNL     1       6.119   4.100  18.446  0.00  0.00    +0.000 C 
BRANCH  16  17
ATOM     17  C   UNL     1       6.286   5.462  19.094  0.00  0.00    +0.000 C 
BRANCH  17  18
ATOM     18  C   UNL     1       7.535   6.157  18.569  0.00  0.00    +0.000 C 
BRANCH  18  19
ATOM     19  C   UNL     1       7.232   6.838  17.243  0.00  0.00    +0.000 C 
BRANCH  19  20
ATOM     20  C   UNL     1       5.731   6.959  17.033  0.00  0.00    +0.000 C 
BRANCH  20  21
ATOM     21  C   UNL     1       5.398   6.839  15.553  0.00  0.00    +0.000 C 
BRANCH  21  22
ATOM     22  C   UNL     1       5.267   5.376  15.154  0.00  0.00    +0.000 C 
BRANCH  22  23
ATOM     23  C   UNL     1       6.467   4.943  14.323  0.00  0.00    +0.000 C 
BRANCH  23  24
ATOM     24  C   UNL     1       6.271   3.526  13.798  0.00  0.00    +0.000 C 
BRANCH  24  25
ATOM     25  C   UNL     1       6.196   3.525  12.275  0.00  0.00    +0.000 C 
BRANCH  25  27
ATOM     26  C   UNL     1       4.053   3.262  11.000  0.00  0.00    +0.000 C 
ATOM     27  C   UNL     1       5.138   2.543  11.782  0.00  0.00    +0.000 C 
ENDBRANCH  25  27
ENDBRANCH  24  25
ENDBRANCH  23  24
ENDBRANCH  22  23
ENDBRANCH  21  22
ENDBRANCH  20  21
ENDBRANCH  19  20
ENDBRANCH  18  19
ENDBRANCH  17  18
ENDBRANCH  16  17
ENDBRANCH  15  16
ENDBRANCH   1  15
TORSDOF 17
ENDMDL
MODEL 6
REMARK VINA RESULT:      -5.5      1.743      3.699
REMARK  Name = 
REMARK  19 active torsions:
REMARK  status: ('A' for Active; 'I' for Inactive)
REMARK    1  A    between atoms: C_1  and  C_2
REMARK    2  A    between atoms: C_2  and  C_3
REMARK    3  A    between atoms: C_3  and  C_4
REMARK    4  A    between atoms: C_4  and  C_5
REMARK    5  A    between atoms: C_5  and  C_6
REMARK    6  A    between atoms: C_6  and  C_7
REMARK    7  A    between atoms: C_7  and  C_8
REMARK    8  A    between atoms: C_8  and  C_9
REMARK    9  A    between atoms: C_9  and  C_10
REMARK   10  A    between atoms: C_10  and  C_11
REMARK   11  A    between atoms: C_11  and  C_12
REMARK   12  A    between atoms: C_12  and  C_13
REMARK   13  A    between atoms: C_13  and  C_14
REMARK   14  A    between atoms: C_14  and  N_15
REMARK   15  A    between atoms: N_15  and  C_16
REMARK   16  A    between atoms: C_16  and  C_17
REMARK   17  A    between atoms: C_16  and  C_18
REMARK   18  A    between atoms: C_18  and  O_19
REMARK   19  A    between atoms: C_18  and  C_20
REMARK                            x       y       z     vdW  Elec       q    Type
REMARK                         _______ _______ _______ _____ _____    ______ ____
ROOT
ATOM      1  C   UNL     1       1.902   6.931  19.986  0.00  0.00    +0.000 C 
ENDROOT
BRANCH   1   2
ATOM      2  N   UNL     1       1.791   7.871  21.104  0.00  0.00    +0.000 NA
ATOM      3  H   UNL     1       2.622   8.462  21.115  0.00  0.00    +0.000 HD
BRANCH   2   4
ATOM      4  C   UNL     1       0.580   8.729  21.018  0.00  0.00    +0.000 C 
ATOM      5  C   UNL     1      -0.160   8.802  22.364  0.00  0.00    +0.000 C 
BRANCH   4   6
ATOM      6  C   UNL     1       0.805  10.162  20.381  0.00  0.00    +0.000 C 
BRANCH   6   7
ATOM      7  C   UNL     1      -0.384  10.616  19.525  0.00  0.00    +0.000 A 
ATOM      8  C   UNL     1      -1.254  11.647  19.920  0.00  0.00    +0.000 A 
ATOM      9  C   UNL     1      -2.372  11.985  19.153  0.00  0.00    +0.000 A 
ATOM     10  C   UNL     1      -2.630  11.325  17.957  0.00  0.00    +0.000 A 
ATOM     11  C   UNL     1      -1.752  10.340  17.516  0.00  0.00    +0.000 A 
ATOM     12  C   UNL     1      -0.633   9.995  18.284  0.00  0.00    +0.000 A 
ENDBRANCH   6   7
BRANCH   6  13
ATOM     13  O   UNL     1       1.132  11.129  21.398  0.00  0.00    +0.000 OA
ATOM     14  H   UNL     1       0.938  10.746  22.271  0.00  0.00    +0.000 HD
ENDBRANCH   6  13
ENDBRANCH   4   6
ENDBRANCH   2   4
ENDBRANCH   1   2
BRANCH   1  15
ATOM     15  C   UNL     1       2.940   5.849  20.260  0.00  0.00    +0.000 C 
BRANCH  15  16
ATOM     16  C   UNL     1       2.242   4.638  20.878  0.00  0.00    +0.000 C 
BRANCH  16  17
ATOM     17  C   UNL     1       0.952   4.322  20.144  0.00  0.00    +0.000 C 
BRANCH  17  18
ATOM     18  C   UNL     1       1.217   3.387  18.971  0.00  0.00    +0.000 C 
BRANCH  18  19
ATOM     19  C   UNL     1       2.206   2.307  19.381  0.00  0.00    +0.000 C 
BRANCH  19  20
ATOM     20  C   UNL     1       3.312   2.171  18.346  0.00  0.00    +0.000 C 
BRANCH  20  21
ATOM     21  C   UNL     1       3.327   3.388  17.432  0.00  0.00    +0.000 C 
BRANCH  21  22
ATOM     22  C   UNL     1       4.753   3.729  17.026  0.00  0.00    +0.000 C 
BRANCH  22  23
ATOM     23  C   UNL     1       4.756   4.825  15.970  0.00  0.00    +0.000 C 
BRANCH  23  24
ATOM     24  C   UNL     1       6.002   5.694  16.103  0.00  0.00    +0.000 C 
BRANCH  24  25
ATOM     25  C   UNL     1       6.039   6.372  17.467  0.00  0.00    +0.000 C 
BRANCH  25  27
ATOM     26  C   UNL     1       7.787   5.879  19.196  0.00  0.00    +0.000 C 
ATOM     27  C   UNL     1       7.475   6.627  17.911  0.00  0.00    +0.000 C 
ENDBRANCH  25  27
ENDBRANCH  24  25
ENDBRANCH  23  24
ENDBRANCH  22  23
ENDBRANCH  21  22
ENDBRANCH  20  21
ENDBRANCH  19  20
ENDBRANCH  18  19
ENDBRANCH  17  18
ENDBRANCH  16  17
ENDBRANCH  15  16
ENDBRANCH   1  15
TORSDOF 17
ENDMDL
MODEL 7
REMARK VINA RESULT:      -5.4      4.187      6.895
REMARK  Name = 
REMARK  19 active torsions:
REMARK  status: ('A' for Active; 'I' for Inactive)
REMARK    1  A    between atoms: C_1  and  C_2
REMARK    2  A    between atoms: C_2  and  C_3
REMARK    3  A    between atoms: C_3  and  C_4
REMARK    4  A    between atoms: C_4  and  C_5
REMARK    5  A    between atoms: C_5  and  C_6
REMARK    6  A    between atoms: C_6  and  C_7
REMARK    7  A    between atoms: C_7  and  C_8
REMARK    8  A    between atoms: C_8  and  C_9
REMARK    9  A    between atoms: C_9  and  C_10
REMARK   10  A    between atoms: C_10  and  C_11
REMARK   11  A    between atoms: C_11  and  C_12
REMARK   12  A    between atoms: C_12  and  C_13
REMARK   13  A    between atoms: C_13  and  C_14
REMARK   14  A    between atoms: C_14  and  N_15
REMARK   15  A    between atoms: N_15  and  C_16
REMARK   16  A    between atoms: C_16  and  C_17
REMARK   17  A    between atoms: C_16  and  C_18
REMARK   18  A    between atoms: C_18  and  O_19
REMARK   19  A    between atoms: C_18  and  C_20
REMARK                            x       y       z     vdW  Elec       q    Type
REMARK                         _______ _______ _______ _____ _____    ______ ____
ROOT
ATOM      1  C   UNL     1       2.650   2.965  18.235  0.00  0.00    +0.000 C 
ENDROOT
BRANCH   1   2
ATOM      2  N   UNL     1       1.318   3.503  18.518  0.00  0.00    +0.000 NA
ATOM      3  H   UNL     1       0.640   2.743  18.454  0.00  0.00    +0.000 HD
BRANCH   2   4
ATOM      4  C   UNL     1       1.222   4.132  19.862  0.00  0.00    +0.000 C 
ATOM      5  C   UNL     1       0.972   3.086  20.961  0.00  0.00    +0.000 C 
BRANCH   4   6
ATOM      6  C   UNL     1       2.400   5.123  20.236  0.00  0.00    +0.000 C 
BRANCH   6   7
ATOM      7  C   UNL     1       2.150   6.548  19.728  0.00  0.00    +0.000 A 
ATOM      8  C   UNL     1       1.588   7.553  20.534  0.00  0.00    +0.000 A 
ATOM      9  C   UNL     1       1.303   8.820  20.017  0.00  0.00    +0.000 A 
ATOM     10  C   UNL     1       1.604   9.125  18.695  0.00  0.00    +0.000 A 
ATOM     11  C   UNL     1       2.213   8.165  17.893  0.00  0.00    +0.000 A 
ATOM     12  C   UNL     1       2.496   6.893  18.405  0.00  0.00    +0.000 A 
ENDBRANCH   6   7
BRANCH   6  13
ATOM     13  O   UNL     1       2.660   5.097  21.653  0.00  0.00    +0.000 OA
ATOM     14  H   UNL     1       2.063   5.724  22.095  0.00  0.00    +0.000 HD
ENDBRANCH   6  13
ENDBRANCH   4   6
ENDBRANCH   2   4
ENDBRANCH   1   2
BRANCH   1  15
ATOM     15  C   UNL     1       3.126   3.342  16.838  0.00  0.00    +0.000 C 
BRANCH  15  16
ATOM     16  C   UNL     1       4.355   4.243  16.958  0.00  0.00    +0.000 C 
BRANCH  16  17
ATOM     17  C   UNL     1       5.605   3.518  16.495  0.00  0.00    +0.000 C 
BRANCH  17  18
ATOM     18  C   UNL     1       6.836   4.393  16.694  0.00  0.00    +0.000 C 
BRANCH  18  19
ATOM     19  C   UNL     1       6.652   5.721  15.976  0.00  0.00    +0.000 C 
BRANCH  19  20
ATOM     20  C   UNL     1       6.266   5.496  14.523  0.00  0.00    +0.000 C 
BRANCH  20  21
ATOM     21  C   UNL     1       7.408   4.822  13.776  0.00  0.00    +0.000 C 
BRANCH  21  22
ATOM     22  C   UNL     1       6.905   4.210  12.476  0.00  0.00    +0.000 C 
BRANCH  22  23
ATOM     23  C   UNL     1       5.515   3.620  12.671  0.00  0.00    +0.000 C 
BRANCH  23  24
ATOM     24  C   UNL     1       5.275   2.481  11.687  0.00  0.00    +0.000 C 
BRANCH  24  25
ATOM     25  C   UNL     1       3.938   2.658  10.977  0.00  0.00    +0.000 C 
BRANCH  25  27
ATOM     26  C   UNL     1       2.811   4.281   9.433  0.00  0.00    +0.000 C 
ATOM     27  C   UNL     1       3.672   4.129  10.676  0.00  0.00    +0.000 C 
ENDBRANCH  25  27
ENDBRANCH  24  25
ENDBRANCH  23  24
ENDBRANCH  22  23
ENDBRANCH  21  22
ENDBRANCH  20  21
ENDBRANCH  19  20
ENDBRANCH  18  19
ENDBRANCH  17  18
ENDBRANCH  16  17
ENDBRANCH  15  16
ENDBRANCH   1  15
TORSDOF 17
ENDMDL
MODEL 8
REMARK VINA RESULT:      -5.4      5.445      8.231
REMARK  Name = 
REMARK  19 active torsions:
REMARK  status: ('A' for Active; 'I' for Inactive)
REMARK    1  A    between atoms: C_1  and  C_2
REMARK    2  A    between atoms: C_2  and  C_3
REMARK    3  A    between atoms: C_3  and  C_4
REMARK    4  A    between atoms: C_4  and  C_5
REMARK    5  A    between atoms: C_5  and  C_6
REMARK    6  A    between atoms: C_6  and  C_7
REMARK    7  A    between atoms: C_7  and  C_8
REMARK    8  A    between atoms: C_8  and  C_9
REMARK    9  A    between atoms: C_9  and  C_10
REMARK   10  A    between atoms: C_10  and  C_11
REMARK   11  A    between atoms: C_11  and  C_12
REMARK   12  A    between atoms: C_12  and  C_13
REMARK   13  A    between atoms: C_13  and  C_14
REMARK   14  A    between atoms: C_14  and  N_15
REMARK   15  A    between atoms: N_15  and  C_16
REMARK   16  A    between atoms: C_16  and  C_17
REMARK   17  A    between atoms: C_16  and  C_18
REMARK   18  A    between atoms: C_18  and  O_19
REMARK   19  A    between atoms: C_18  and  C_20
REMARK                            x       y       z     vdW  Elec       q    Type
REMARK                         _______ _______ _______ _____ _____    ______ ____
ROOT
ATOM      1  C   UNL     1       3.590   4.191  17.028  0.00  0.00    +0.000 C 
ENDROOT
BRANCH   1   2
ATOM      2  N   UNL     1       2.876   3.568  18.145  0.00  0.00    +0.000 NA
ATOM      3  H   UNL     1       3.561   3.159  18.780  0.00  0.00    +0.000 HD
BRANCH   2   4
ATOM      4  C   UNL     1       2.026   4.530  18.895  0.00  0.00    +0.000 C 
ATOM      5  C   UNL     1       0.972   3.807  19.750  0.00  0.00    +0.000 C 
BRANCH   4   6
ATOM      6  C   UNL     1       2.809   5.633  19.718  0.00  0.00    +0.000 C 
BRANCH   6   7
ATOM      7  C   UNL     1       2.328   7.054  19.400  0.00  0.00    +0.000 A 
ATOM      8  C   UNL     1       1.618   7.840  20.324  0.00  0.00    +0.000 A 
ATOM      9  C   UNL     1       1.127   9.101  19.976  0.00  0.00    +0.000 A 
ATOM     10  C   UNL     1       1.363   9.623  18.709  0.00  0.00    +0.000 A 
ATOM     11  C   UNL     1       2.111   8.888  17.795  0.00  0.00    +0.000 A 
ATOM     12  C   UNL     1       2.601   7.622  18.138  0.00  0.00    +0.000 A 
ENDBRANCH   6   7
BRANCH   6  13
ATOM     13  O   UNL     1       2.755   5.353  21.131  0.00  0.00    +0.000 OA
ATOM     14  H   UNL     1       1.904   5.668  21.482  0.00  0.00    +0.000 HD
ENDBRANCH   6  13
ENDBRANCH   4   6
ENDBRANCH   2   4
ENDBRANCH   1   2
BRANCH   1  15
ATOM     15  C   UNL     1       5.064   3.808  17.015  0.00  0.00    +0.000 C 
BRANCH  15  16
ATOM     16  C   UNL     1       5.820   4.778  16.106  0.00  0.00    +0.000 C 
BRANCH  16  17
ATOM     17  C   UNL     1       5.598   6.214  16.542  0.00  0.00    +0.000 C 
BRANCH  17  18
ATOM     18  C   UNL     1       6.331   6.499  17.846  0.00  0.00    +0.000 C 
BRANCH  18  19
ATOM     19  C   UNL     1       7.607   7.278  17.566  0.00  0.00    +0.000 C 
BRANCH  19  20
ATOM     20  C   UNL     1       7.352   8.775  17.660  0.00  0.00    +0.000 C 
BRANCH  20  21
ATOM     21  C   UNL     1       8.673   9.527  17.738  0.00  0.00    +0.000 C 
BRANCH  21  22
ATOM     22  C   UNL     1       9.057   9.777  19.189  0.00  0.00    +0.000 C 
BRANCH  22  23
ATOM     23  C   UNL     1       9.867  11.060  19.310  0.00  0.00    +0.000 C 
BRANCH  23  24
ATOM     24  C   UNL     1      10.158  11.642  17.932  0.00  0.00    +0.000 C 
BRANCH  24  25
ATOM     25  C   UNL     1      10.848  12.996  18.056  0.00  0.00    +0.000 C 
BRANCH  25  27
ATOM     26  C   UNL     1      11.837  14.575  19.734  0.00  0.00    +0.000 C 
ATOM     27  C   UNL     1      11.570  13.119  19.393  0.00  0.00    +0.000 C 
ENDBRANCH  25  27
ENDBRANCH  24  25
ENDBRANCH  23  24
ENDBRANCH  22  23
ENDBRANCH  21  22
ENDBRANCH  20  21
ENDBRANCH  19  20
ENDBRANCH  18  19
ENDBRANCH  17  18
ENDBRANCH  16  17
ENDBRANCH  15  16
ENDBRANCH   1  15
TORSDOF 17
ENDMDL
MODEL 9
REMARK VINA RESULT:      -5.4      2.154      4.557
REMARK  Name = 
REMARK  19 active torsions:
REMARK  status: ('A' for Active; 'I' for Inactive)
REMARK    1  A    between atoms: C_1  and  C_2
REMARK    2  A    between atoms: C_2  and  C_3
REMARK    3  A    between atoms: C_3  and  C_4
REMARK    4  A    between atoms: C_4  and  C_5
REMARK    5  A    between atoms: C_5  and  C_6
REMARK    6  A    between atoms: C_6  and  C_7
REMARK    7  A    between atoms: C_7  and  C_8
REMARK    8  A    between atoms: C_8  and  C_9
REMARK    9  A    between atoms: C_9  and  C_10
REMARK   10  A    between atoms: C_10  and  C_11
REMARK   11  A    between atoms: C_11  and  C_12
REMARK   12  A    between atoms: C_12  and  C_13
REMARK   13  A    between atoms: C_13  and  C_14
REMARK   14  A    between atoms: C_14  and  N_15
REMARK   15  A    between atoms: N_15  and  C_16
REMARK   16  A    between atoms: C_16  and  C_17
REMARK   17  A    between atoms: C_16  and  C_18
REMARK   18  A    between atoms: C_18  and  O_19
REMARK   19  A    between atoms: C_18  and  C_20
REMARK                            x       y       z     vdW  Elec       q    Type
REMARK                         _______ _______ _______ _____ _____    ______ ____
ROOT
ATOM      1  C   UNL     1       2.148   7.573  18.033  0.00  0.00    +0.000 C 
ENDROOT
BRANCH   1   2
ATOM      2  N   UNL     1       1.990   8.929  17.504  0.00  0.00    +0.000 NA
ATOM      3  H   UNL     1       1.323   8.902  16.733  0.00  0.00    +0.000 HD
BRANCH   2   4
ATOM      4  C   UNL     1       1.515   9.898  18.528  0.00  0.00    +0.000 C 
ATOM      5  C   UNL     1       2.114  11.296  18.307  0.00  0.00    +0.000 C 
BRANCH   4   6
ATOM      6  C   UNL     1      -0.054   9.947  18.742  0.00  0.00    +0.000 C 
BRANCH   6   7
ATOM      7  C   UNL     1      -0.438  10.335  20.175  0.00  0.00    +0.000 A 
ATOM      8  C   UNL     1      -1.088  11.542  20.486  0.00  0.00    +0.000 A 
ATOM      9  C   UNL     1      -1.355  11.900  21.810  0.00  0.00    +0.000 A 
ATOM     10  C   UNL     1      -1.011  11.048  22.853  0.00  0.00    +0.000 A 
ATOM     11  C   UNL     1      -0.418   9.822  22.567  0.00  0.00    +0.000 A 
ATOM     12  C   UNL     1      -0.145   9.461  21.242  0.00  0.00    +0.000 A 
ENDBRANCH   6   7
BRANCH   6  13
ATOM     13  O   UNL     1      -0.677  10.807  17.768  0.00  0.00    +0.000 OA
ATOM     14  H   UNL     1       0.016  11.251  17.251  0.00  0.00    +0.000 HD
ENDBRANCH   6  13
ENDBRANCH   4   6
ENDBRANCH   2   4
ENDBRANCH   1   2
BRANCH   1  15
ATOM     15  C   UNL     1       2.503   7.582  19.514  0.00  0.00    +0.000 C 
BRANCH  15  16
ATOM     16  C   UNL     1       1.635   6.552  20.238  0.00  0.00    +0.000 C 
BRANCH  16  17
ATOM     17  C   UNL     1       2.377   5.238  20.402  0.00  0.00    +0.000 C 
BRANCH  17  18
ATOM     18  C   UNL     1       1.531   4.078  19.894  0.00  0.00    +0.000 C 
BRANCH  18  19
ATOM     19  C   UNL     1       1.522   4.069  18.374  0.00  0.00    +0.000 C 
BRANCH  19  20
ATOM     20  C   UNL     1       2.142   2.787  17.841  0.00  0.00    +0.000 C 
BRANCH  20  21
ATOM     21  C   UNL     1       3.659   2.897  17.843  0.00  0.00    +0.000 C 
BRANCH  21  22
ATOM     22  C   UNL     1       4.118   3.926  16.820  0.00  0.00    +0.000 C 
BRANCH  22  23
ATOM     23  C   UNL     1       4.798   5.098  17.514  0.00  0.00    +0.000 C 
BRANCH  23  24
ATOM     24  C   UNL     1       5.814   5.754  16.586  0.00  0.00    +0.000 C 
BRANCH  24  25
ATOM     25  C   UNL     1       5.522   5.396  15.133  0.00  0.00    +0.000 C 
BRANCH  25  27
ATOM     26  C   UNL     1       6.304   3.836  13.333  0.00  0.00    +0.000 C 
ATOM     27  C   UNL     1       6.731   4.734  14.481  0.00  0.00    +0.000 C 
ENDBRANCH  25  27
ENDBRANCH  24  25
ENDBRANCH  23  24
ENDBRANCH  22  23
ENDBRANCH  21  22
ENDBRANCH  20  21
ENDBRANCH  19  20
ENDBRANCH  18  19
ENDBRANCH  17  18
ENDBRANCH  16  17
ENDBRANCH  15  16
ENDBRANCH   1  15
TORSDOF 17
ENDMDL
