MODEL 1
REMARK VINA RESULT:      -7.9      0.000      0.000
REMARK  Name = 
REMARK  3 active torsions:
REMARK  status: ('A' for Active; 'I' for Inactive)
REMARK    1  A    between atoms: C_8  and  N_9
REMARK    2  A    between atoms: C_19  and  C_20
REMARK    3  A    between atoms: C_20  and  C_21
REMARK                            x       y       z     vdW  Elec       q    Type
REMARK                         _______ _______ _______ _____ _____    ______ ____
ROOT
ATOM      1  N   UNL     1       2.650   5.536  17.803  0.00  0.00    +0.000 NA
ATOM      2  C   UNL     1       1.479   4.685  18.148  0.00  0.00    +0.000 C 
ATOM      3  C   UNL     1       1.622   3.967  19.464  0.00  0.00    +0.000 A 
ATOM      4  C   UNL     1       1.700   2.569  19.501  0.00  0.00    +0.000 A 
ATOM      5  C   UNL     1       2.010   1.948  20.698  0.00  0.00    +0.000 A 
ATOM      6  N   UNL     1       2.219   2.613  21.852  0.00  0.00    +0.000 NA
ATOM      7  C   UNL     1       2.081   3.961  21.807  0.00  0.00    +0.000 A 
ATOM      8  C   UNL     1       1.789   4.675  20.652  0.00  0.00    +0.000 A 
ATOM      9  O   UNL     1       1.613   6.027  20.712  0.00  0.00    +0.000 OA
ATOM     10  C   UNL     1       2.674   6.752  20.073  0.00  0.00    +0.000 C 
ATOM     11  C   UNL     1       2.566   6.842  18.526  0.00  0.00    +0.000 C 
ENDROOT
BRANCH   1  19
ATOM     12  N   UNL     1       9.308   5.929  12.788  0.00  0.00    +0.000 N 
ATOM     13  C   UNL     1       8.175   5.423  13.303  0.00  0.00    +0.000 A 
ATOM     14  N   UNL     1       7.559   5.769  14.401  0.00  0.00    +0.000 NA
ATOM     15  C   UNL     1       6.499   4.897  14.475  0.00  0.00    +0.000 A 
ATOM     16  N   UNL     1       5.679   4.919  15.558  0.00  0.00    +0.000 N 
ATOM     17  C   UNL     1       5.677   6.063  16.463  0.00  0.00    +0.000 C 
ATOM     18  C   UNL     1       5.257   5.635  17.868  0.00  0.00    +0.000 C 
ATOM     19  C   UNL     1       3.953   4.806  17.936  0.00  0.00    +0.000 C 
ATOM     20  C   UNL     1       4.113   3.654  16.914  0.00  0.00    +0.000 C 
ATOM     21  C   UNL     1       4.442   4.148  15.513  0.00  0.00    +0.000 C 
ATOM     22  N   UNL     1       6.428   4.045  13.450  0.00  0.00    +0.000 NA
ATOM     23  N   UNL     1       7.491   4.400  12.718  0.00  0.00    +0.000 N 
ATOM     24  H   UNL     1       9.817   6.551  13.410  0.00  0.00    +0.000 HD
ATOM     25  H   UNL     1       9.925   5.347  12.233  0.00  0.00    +0.000 HD
ATOM     26  H   UNL     1       7.696   3.909  11.858  0.00  0.00    +0.000 HD
ENDBRANCH   1  19
BRANCH  11  27
ATOM     27  C   UNL     1       1.314   7.706  18.129  0.00  0.00    +0.000 C 
BRANCH  27  28
ATOM     28  C   UNL     1       1.400   9.153  18.577  0.00  0.00    +0.000 A 
ATOM     29  C   UNL     1       0.641   9.608  19.666  0.00  0.00    +0.000 A 
ATOM     30  C   UNL     1       0.594  10.969  19.975  0.00  0.00    +0.000 A 
ATOM     31  C   UNL     1       1.319  11.877  19.207  0.00  0.00    +0.000 A 
ATOM     32 CL   UNL     1       1.192  13.563  19.529  0.00  0.00    +0.000 Cl
ATOM     33  C   UNL     1       2.132  11.432  18.168  0.00  0.00    +0.000 A 
ATOM     34  C   UNL     1       2.183  10.072  17.865  0.00  0.00    +0.000 A 
ENDBRANCH  27  28
ENDBRANCH  11  27
TORSDOF 3
ENDMDL
MODEL 2
REMARK VINA RESULT:      -7.4      5.009      8.794
REMARK  Name = 
REMARK  3 active torsions:
REMARK  status: ('A' for Active; 'I' for Inactive)
REMARK    1  A    between atoms: C_8  and  N_9
REMARK    2  A    between atoms: C_19  and  C_20
REMARK    3  A    between atoms: C_20  and  C_21
REMARK                            x       y       z     vdW  Elec       q    Type
REMARK                         _______ _______ _______ _____ _____    ______ ____
ROOT
ATOM      1  N   UNL     1      -1.730  11.489  21.124  0.00  0.00    +0.000 NA
ATOM      2  C   UNL     1      -2.574  12.333  22.013  0.00  0.00    +0.000 C 
ATOM      3  C   UNL     1      -1.904  13.611  22.445  0.00  0.00    +0.000 A 
ATOM      4  C   UNL     1      -1.588  13.824  23.793  0.00  0.00    +0.000 A 
ATOM      5  C   UNL     1      -0.816  14.920  24.134  0.00  0.00    +0.000 A 
ATOM      6  N   UNL     1      -0.367  15.824  23.240  0.00  0.00    +0.000 NA
ATOM      7  C   UNL     1      -0.734  15.631  21.949  0.00  0.00    +0.000 A 
ATOM      8  C   UNL     1      -1.489  14.554  21.507  0.00  0.00    +0.000 A 
ATOM      9  O   UNL     1      -1.860  14.472  20.195  0.00  0.00    +0.000 OA
ATOM     10  C   UNL     1      -1.191  13.412  19.498  0.00  0.00    +0.000 C 
ATOM     11  C   UNL     1      -1.797  11.999  19.720  0.00  0.00    +0.000 C 
ENDROOT
BRANCH   1  19
ATOM     12  N   UNL     1       3.933   5.843  18.741  0.00  0.00    +0.000 N 
ATOM     13  C   UNL     1       2.963   6.378  19.501  0.00  0.00    +0.000 A 
ATOM     14  N   UNL     1       2.500   7.598  19.484  0.00  0.00    +0.000 NA
ATOM     15  C   UNL     1       1.570   7.614  20.495  0.00  0.00    +0.000 A 
ATOM     16  N   UNL     1       0.941   8.775  20.818  0.00  0.00    +0.000 N 
ATOM     17  C   UNL     1       0.959   9.908  19.899  0.00  0.00    +0.000 C 
ATOM     18  C   UNL     1       0.825  11.222  20.666  0.00  0.00    +0.000 C 
ATOM     19  C   UNL     1      -0.350  11.275  21.670  0.00  0.00    +0.000 C 
ATOM     20  C   UNL     1      -0.233  10.007  22.549  0.00  0.00    +0.000 C 
ATOM     21  C   UNL     1      -0.194   8.723  21.733  0.00  0.00    +0.000 C 
ATOM     22  N   UNL     1       1.427   6.442  21.117  0.00  0.00    +0.000 NA
ATOM     23  N   UNL     1       2.311   5.674  20.468  0.00  0.00    +0.000 N 
ATOM     24  H   UNL     1       4.465   6.516  18.195  0.00  0.00    +0.000 HD
ATOM     25  H   UNL     1       4.512   5.092  19.100  0.00  0.00    +0.000 HD
ATOM     26  H   UNL     1       2.425   4.705  20.734  0.00  0.00    +0.000 HD
ENDBRANCH   1  19
BRANCH  11  27
ATOM     27  C   UNL     1      -3.235  11.930  19.089  0.00  0.00    +0.000 C 
BRANCH  27  28
ATOM     28  C   UNL     1      -3.277  11.254  17.731  0.00  0.00    +0.000 A 
ATOM     29  C   UNL     1      -2.301  10.311  17.374  0.00  0.00    +0.000 A 
ATOM     30  C   UNL     1      -2.244   9.813  16.071  0.00  0.00    +0.000 A 
ATOM     31  C   UNL     1      -3.172  10.242  15.125  0.00  0.00    +0.000 A 
ATOM     32 CL   UNL     1      -3.049   9.699  13.497  0.00  0.00    +0.000 Cl
ATOM     33  C   UNL     1      -4.189  11.122  15.484  0.00  0.00    +0.000 A 
ATOM     34  C   UNL     1      -4.250  11.614  16.788  0.00  0.00    +0.000 A 
ENDBRANCH  27  28
ENDBRANCH  11  27
TORSDOF 3
ENDMDL
MODEL 3
REMARK VINA RESULT:      -7.3      3.563      6.766
REMARK  Name = 
REMARK  3 active torsions:
REMARK  status: ('A' for Active; 'I' for Inactive)
REMARK    1  A    between atoms: C_8  and  N_9
REMARK    2  A    between atoms: C_19  and  C_20
REMARK    3  A    between atoms: C_20  and  C_21
REMARK                            x       y       z     vdW  Elec       q    Type
REMARK                         _______ _______ _______ _____ _____    ______ ____
ROOT
ATOM      1  N   UNL     1       3.892   5.799  18.579  0.00  0.00    +0.000 NA
ATOM      2  C   UNL     1       4.093   4.939  19.777  0.00  0.00    +0.000 C 
ATOM      3  C   UNL     1       3.172   3.748  19.826  0.00  0.00    +0.000 A 
ATOM      4  C   UNL     1       2.210   3.641  20.839  0.00  0.00    +0.000 A 
ATOM      5  C   UNL     1       1.263   2.634  20.757  0.00  0.00    +0.000 A 
ATOM      6  N   UNL     1       1.228   1.722  19.765  0.00  0.00    +0.000 NA
ATOM      7  C   UNL     1       2.204   1.808  18.828  0.00  0.00    +0.000 A 
ATOM      8  C   UNL     1       3.184   2.791  18.814  0.00  0.00    +0.000 A 
ATOM      9  O   UNL     1       4.162   2.766  17.862  0.00  0.00    +0.000 OA
ATOM     10  C   UNL     1       4.039   3.837  16.916  0.00  0.00    +0.000 C 
ATOM     11  C   UNL     1       4.594   5.205  17.399  0.00  0.00    +0.000 C 
ENDROOT
BRANCH   1  19
ATOM     12  N   UNL     1       0.351  13.343  18.994  0.00  0.00    +0.000 N 
ATOM     13  C   UNL     1       0.702  12.116  19.414  0.00  0.00    +0.000 A 
ATOM     14  N   UNL     1       1.193  11.129  18.714  0.00  0.00    +0.000 NA
ATOM     15  C   UNL     1       1.310  10.105  19.622  0.00  0.00    +0.000 A 
ATOM     16  N   UNL     1       1.719   8.877  19.208  0.00  0.00    +0.000 N 
ATOM     17  C   UNL     1       2.372   8.710  17.914  0.00  0.00    +0.000 C 
ATOM     18  C   UNL     1       2.135   7.303  17.371  0.00  0.00    +0.000 C 
ATOM     19  C   UNL     1       2.453   6.158  18.361  0.00  0.00    +0.000 C 
ATOM     20  C   UNL     1       1.705   6.494  19.673  0.00  0.00    +0.000 C 
ATOM     21  C   UNL     1       2.050   7.874  20.214  0.00  0.00    +0.000 C 
ATOM     22  N   UNL     1       0.932  10.433  20.860  0.00  0.00    +0.000 NA
ATOM     23  N   UNL     1       0.560  11.709  20.706  0.00  0.00    +0.000 N 
ATOM     24  H   UNL     1       0.329  13.456  17.984  0.00  0.00    +0.000 HD
ATOM     25  H   UNL     1      -0.395  13.850  19.457  0.00  0.00    +0.000 HD
ATOM     26  H   UNL     1       0.215  12.231  21.501  0.00  0.00    +0.000 HD
ENDBRANCH   1  19
BRANCH  11  27
ATOM     27  C   UNL     1       6.154   5.117  17.570  0.00  0.00    +0.000 C 
BRANCH  27  28
ATOM     28  C   UNL     1       6.816   6.452  17.859  0.00  0.00    +0.000 A 
ATOM     29  C   UNL     1       6.424   7.606  17.164  0.00  0.00    +0.000 A 
ATOM     30  C   UNL     1       7.140   8.796  17.311  0.00  0.00    +0.000 A 
ATOM     31  C   UNL     1       8.240   8.841  18.164  0.00  0.00    +0.000 A 
ATOM     32 CL   UNL     1       9.179  10.278  18.278  0.00  0.00    +0.000 Cl
ATOM     33  C   UNL     1       8.596   7.723  18.914  0.00  0.00    +0.000 A 
ATOM     34  C   UNL     1       7.877   6.537  18.772  0.00  0.00    +0.000 A 
ENDBRANCH  27  28
ENDBRANCH  11  27
TORSDOF 3
ENDMDL
MODEL 4
REMARK VINA RESULT:      -7.2      6.140      9.531
REMARK  Name = 
REMARK  3 active torsions:
REMARK  status: ('A' for Active; 'I' for Inactive)
REMARK    1  A    between atoms: C_8  and  N_9
REMARK    2  A    between atoms: C_19  and  C_20
REMARK    3  A    between atoms: C_20  and  C_21
REMARK                            x       y       z     vdW  Elec       q    Type
REMARK                         _______ _______ _______ _____ _____    ______ ____
ROOT
ATOM      1  N   UNL     1       0.432  12.698  20.838  0.00  0.00    +0.000 NA
ATOM      2  C   UNL     1      -0.380  12.749  22.084  0.00  0.00    +0.000 C 
ATOM      3  C   UNL     1      -1.570  13.667  21.991  0.00  0.00    +0.000 A 
ATOM      4  C   UNL     1      -1.640  14.816  22.790  0.00  0.00    +0.000 A 
ATOM      5  C   UNL     1      -2.652  15.731  22.558  0.00  0.00    +0.000 A 
ATOM      6  N   UNL     1      -3.602  15.570  21.615  0.00  0.00    +0.000 NA
ATOM      7  C   UNL     1      -3.550  14.424  20.893  0.00  0.00    +0.000 A 
ATOM      8  C   UNL     1      -2.566  13.456  21.040  0.00  0.00    +0.000 A 
ATOM      9  O   UNL     1      -2.625  12.305  20.308  0.00  0.00    +0.000 OA
ATOM     10  C   UNL     1      -1.592  12.228  19.316  0.00  0.00    +0.000 C 
ATOM     11  C   UNL     1      -0.205  11.774  19.848  0.00  0.00    +0.000 C 
ENDROOT
BRANCH   1  19
ATOM     12  N   UNL     1       7.562  15.195  17.294  0.00  0.00    +0.000 N 
ATOM     13  C   UNL     1       6.656  15.037  18.273  0.00  0.00    +0.000 A 
ATOM     14  N   UNL     1       5.413  14.649  18.173  0.00  0.00    +0.000 NA
ATOM     15  C   UNL     1       4.939  14.721  19.460  0.00  0.00    +0.000 A 
ATOM     16  N   UNL     1       3.629  14.462  19.714  0.00  0.00    +0.000 N 
ATOM     17  C   UNL     1       2.806  13.769  18.728  0.00  0.00    +0.000 C 
ATOM     18  C   UNL     1       1.339  14.167  18.881  0.00  0.00    +0.000 C 
ATOM     19  C   UNL     1       0.779  14.061  20.319  0.00  0.00    +0.000 C 
ATOM     20  C   UNL     1       1.769  14.825  21.231  0.00  0.00    +0.000 C 
ATOM     21  C   UNL     1       3.200  14.325  21.101  0.00  0.00    +0.000 C 
ATOM     22  N   UNL     1       5.850  15.116  20.352  0.00  0.00    +0.000 NA
ATOM     23  N   UNL     1       6.929  15.302  19.581  0.00  0.00    +0.000 N 
ATOM     24  H   UNL     1       7.182  15.148  16.352  0.00  0.00    +0.000 HD
ATOM     25  H   UNL     1       8.297  15.888  17.381  0.00  0.00    +0.000 HD
ATOM     26  H   UNL     1       7.796  15.614  19.998  0.00  0.00    +0.000 HD
ENDBRANCH   1  19
BRANCH  11  27
ATOM     27  C   UNL     1      -0.283  10.282  20.336  0.00  0.00    +0.000 C 
BRANCH  27  28
ATOM     28  C   UNL     1       0.785   9.385  19.737  0.00  0.00    +0.000 A 
ATOM     29  C   UNL     1       1.203   9.564  18.410  0.00  0.00    +0.000 A 
ATOM     30  C   UNL     1       2.062   8.641  17.810  0.00  0.00    +0.000 A 
ATOM     31  C   UNL     1       2.518   7.545  18.538  0.00  0.00    +0.000 A 
ATOM     32 CL   UNL     1       3.502   6.358  17.774  0.00  0.00    +0.000 Cl
ATOM     33  C   UNL     1       2.167   7.393  19.877  0.00  0.00    +0.000 A 
ATOM     34  C   UNL     1       1.315   8.319  20.478  0.00  0.00    +0.000 A 
ENDBRANCH  27  28
ENDBRANCH  11  27
TORSDOF 3
ENDMDL
MODEL 5
REMARK VINA RESULT:      -7.2      8.683      9.730
REMARK  Name = 
REMARK  3 active torsions:
REMARK  status: ('A' for Active; 'I' for Inactive)
REMARK    1  A    between atoms: C_8  and  N_9
REMARK    2  A    between atoms: C_19  and  C_20
REMARK    3  A    between atoms: C_20  and  C_21
REMARK                            x       y       z     vdW  Elec       q    Type
REMARK                         _______ _______ _______ _____ _____    ______ ____
ROOT
ATOM      1  N   UNL     1       6.530  13.419  22.144  0.00  0.00    +0.000 NA
ATOM      2  C   UNL     1       6.048  12.575  23.271  0.00  0.00    +0.000 C 
ATOM      3  C   UNL     1       6.417  13.113  24.628  0.00  0.00    +0.000 A 
ATOM      4  C   UNL     1       7.294  12.401  25.457  0.00  0.00    +0.000 A 
ATOM      5  C   UNL     1       7.754  13.001  26.616  0.00  0.00    +0.000 A 
ATOM      6  N   UNL     1       7.383  14.234  27.016  0.00  0.00    +0.000 NA
ATOM      7  C   UNL     1       6.488  14.882  26.230  0.00  0.00    +0.000 A 
ATOM      8  C   UNL     1       5.984  14.371  25.042  0.00  0.00    +0.000 A 
ATOM      9  O   UNL     1       5.041  15.070  24.344  0.00  0.00    +0.000 OA
ATOM     10  C   UNL     1       5.546  15.596  23.108  0.00  0.00    +0.000 C 
ATOM     11  C   UNL     1       5.604  14.576  21.938  0.00  0.00    +0.000 C 
ENDROOT
BRANCH   1  19
ATOM     12  N   UNL     1      12.333  13.439  16.148  0.00  0.00    +0.000 N 
ATOM     13  C   UNL     1      11.644  12.970  17.202  0.00  0.00    +0.000 A 
ATOM     14  N   UNL     1      10.802  13.608  17.969  0.00  0.00    +0.000 NA
ATOM     15  C   UNL     1      10.442  12.677  18.913  0.00  0.00    +0.000 A 
ATOM     16  N   UNL     1       9.625  13.033  19.938  0.00  0.00    +0.000 N 
ATOM     17  C   UNL     1       8.842  14.262  19.869  0.00  0.00    +0.000 C 
ATOM     18  C   UNL     1       8.564  14.801  21.270  0.00  0.00    +0.000 C 
ATOM     19  C   UNL     1       7.984  13.768  22.264  0.00  0.00    +0.000 C 
ATOM     20  C   UNL     1       8.913  12.532  22.204  0.00  0.00    +0.000 C 
ATOM     21  C   UNL     1       9.080  11.985  20.793  0.00  0.00    +0.000 C 
ATOM     22  N   UNL     1      11.013  11.482  18.739  0.00  0.00    +0.000 NA
ATOM     23  N   UNL     1      11.762  11.688  17.649  0.00  0.00    +0.000 N 
ATOM     24  H   UNL     1      12.302  14.449  16.035  0.00  0.00    +0.000 HD
ATOM     25  H   UNL     1      13.240  13.051  15.914  0.00  0.00    +0.000 HD
ATOM     26  H   UNL     1      12.325  10.935  17.277  0.00  0.00    +0.000 HD
ENDBRANCH   1  19
BRANCH  11  27
ATOM     27  C   UNL     1       4.147  14.153  21.526  0.00  0.00    +0.000 C 
BRANCH  27  28
ATOM     28  C   UNL     1       3.616  14.889  20.310  0.00  0.00    +0.000 A 
ATOM     29  C   UNL     1       3.742  14.331  19.029  0.00  0.00    +0.000 A 
ATOM     30  C   UNL     1       3.404  15.076  17.897  0.00  0.00    +0.000 A 
ATOM     31  C   UNL     1       2.923  16.375  18.043  0.00  0.00    +0.000 A 
ATOM     32 CL   UNL     1       2.592  17.328  16.649  0.00  0.00    +0.000 Cl
ATOM     33  C   UNL     1       2.727  16.916  19.311  0.00  0.00    +0.000 A 
ATOM     34  C   UNL     1       3.058  16.169  20.441  0.00  0.00    +0.000 A 
ENDBRANCH  27  28
ENDBRANCH  11  27
TORSDOF 3
ENDMDL
MODEL 6
REMARK VINA RESULT:      -7.0      7.618     11.688
REMARK  Name = 
REMARK  3 active torsions:
REMARK  status: ('A' for Active; 'I' for Inactive)
REMARK    1  A    between atoms: C_8  and  N_9
REMARK    2  A    between atoms: C_19  and  C_20
REMARK    3  A    between atoms: C_20  and  C_21
REMARK                            x       y       z     vdW  Elec       q    Type
REMARK                         _______ _______ _______ _____ _____    ______ ____
ROOT
ATOM      1  N   UNL     1      -3.563  14.042  22.867  0.00  0.00    +0.000 NA
ATOM      2  C   UNL     1      -3.761  14.148  24.338  0.00  0.00    +0.000 C 
ATOM      3  C   UNL     1      -3.187  15.407  24.935  0.00  0.00    +0.000 A 
ATOM      4  C   UNL     1      -2.120  15.337  25.839  0.00  0.00    +0.000 A 
ATOM      5  C   UNL     1      -1.498  16.510  26.231  0.00  0.00    +0.000 A 
ATOM      6  N   UNL     1      -1.880  17.733  25.811  0.00  0.00    +0.000 NA
ATOM      7  C   UNL     1      -2.952  17.782  24.983  0.00  0.00    +0.000 A 
ATOM      8  C   UNL     1      -3.630  16.662  24.521  0.00  0.00    +0.000 A 
ATOM      9  O   UNL     1      -4.736  16.809  23.735  0.00  0.00    +0.000 OA
ATOM     10  C   UNL     1      -4.511  16.388  22.382  0.00  0.00    +0.000 C 
ATOM     11  C   UNL     1      -4.596  14.854  22.151  0.00  0.00    +0.000 C 
ENDROOT
BRANCH   1  19
ATOM     12  N   UNL     1       1.149   9.580  17.622  0.00  0.00    +0.000 N 
ATOM     13  C   UNL     1       0.684  10.011  18.807  0.00  0.00    +0.000 A 
ATOM     14  N   UNL     1      -0.069  11.048  19.053  0.00  0.00    +0.000 NA
ATOM     15  C   UNL     1      -0.191  11.051  20.422  0.00  0.00    +0.000 A 
ATOM     16  N   UNL     1      -0.854  12.064  21.040  0.00  0.00    +0.000 N 
ATOM     17  C   UNL     1      -1.736  12.944  20.281  0.00  0.00    +0.000 C 
ATOM     18  C   UNL     1      -1.822  14.318  20.943  0.00  0.00    +0.000 C 
ATOM     19  C   UNL     1      -2.143  14.295  22.456  0.00  0.00    +0.000 C 
ATOM     20  C   UNL     1      -1.139  13.312  23.102  0.00  0.00    +0.000 C 
ATOM     21  C   UNL     1      -1.163  11.933  22.459  0.00  0.00    +0.000 C 
ATOM     22  N   UNL     1       0.440  10.040  21.023  0.00  0.00    +0.000 NA
ATOM     23  N   UNL     1       0.979   9.392  19.984  0.00  0.00    +0.000 N 
ATOM     24  H   UNL     1       1.016  10.230  16.851  0.00  0.00    +0.000 HD
ATOM     25  H   UNL     1       2.034   9.088  17.565  0.00  0.00    +0.000 HD
ATOM     26  H   UNL     1       1.532   8.560  20.143  0.00  0.00    +0.000 HD
ENDBRANCH   1  19
BRANCH  11  27
ATOM     27  C   UNL     1      -6.068  14.359  22.393  0.00  0.00    +0.000 C 
BRANCH  27  28
ATOM     28  C   UNL     1      -6.458  13.160  21.548  0.00  0.00    +0.000 A 
ATOM     29  C   UNL     1      -7.475  12.291  21.971  0.00  0.00    +0.000 A 
ATOM     30  C   UNL     1      -7.722  11.103  21.280  0.00  0.00    +0.000 A 
ATOM     31  C   UNL     1      -6.965  10.788  20.154  0.00  0.00    +0.000 A 
ATOM     32 CL   UNL     1      -7.204   9.284  19.354  0.00  0.00    +0.000 Cl
ATOM     33  C   UNL     1      -6.001  11.675  19.682  0.00  0.00    +0.000 A 
ATOM     34  C   UNL     1      -5.760  12.864  20.369  0.00  0.00    +0.000 A 
ENDBRANCH  27  28
ENDBRANCH  11  27
TORSDOF 3
ENDMDL
MODEL 7
REMARK VINA RESULT:      -6.9      4.451      8.229
REMARK  Name = 
REMARK  3 active torsions:
REMARK  status: ('A' for Active; 'I' for Inactive)
REMARK    1  A    between atoms: C_8  and  N_9
REMARK    2  A    between atoms: C_19  and  C_20
REMARK    3  A    between atoms: C_20  and  C_21
REMARK                            x       y       z     vdW  Elec       q    Type
REMARK                         _______ _______ _______ _____ _____    ______ ____
ROOT
ATOM      1  N   UNL     1      -0.791  12.406  20.526  0.00  0.00    +0.000 NA
ATOM      2  C   UNL     1      -1.844  13.366  20.097  0.00  0.00    +0.000 C 
ATOM      3  C   UNL     1      -3.186  13.112  20.732  0.00  0.00    +0.000 A 
ATOM      4  C   UNL     1      -4.277  12.721  19.945  0.00  0.00    +0.000 A 
ATOM      5  C   UNL     1      -5.445  12.321  20.572  0.00  0.00    +0.000 A 
ATOM      6  N   UNL     1      -5.607  12.312  21.911  0.00  0.00    +0.000 NA
ATOM      7  C   UNL     1      -4.559  12.750  22.651  0.00  0.00    +0.000 A 
ATOM      8  C   UNL     1      -3.344  13.153  22.116  0.00  0.00    +0.000 A 
ATOM      9  O   UNL     1      -2.363  13.634  22.935  0.00  0.00    +0.000 OA
ATOM     10  C   UNL     1      -1.244  12.742  23.039  0.00  0.00    +0.000 C 
ATOM     11  C   UNL     1      -0.239  12.811  21.856  0.00  0.00    +0.000 C 
ENDROOT
BRANCH   1  19
ATOM     12  N   UNL     1       3.959   5.601  19.659  0.00  0.00    +0.000 N 
ATOM     13  C   UNL     1       3.154   6.605  19.274  0.00  0.00    +0.000 A 
ATOM     14  N   UNL     1       2.442   7.405  20.020  0.00  0.00    +0.000 NA
ATOM     15  C   UNL     1       1.774   8.194  19.117  0.00  0.00    +0.000 A 
ATOM     16  N   UNL     1       0.861   9.101  19.555  0.00  0.00    +0.000 N 
ATOM     17  C   UNL     1       0.832   9.506  20.956  0.00  0.00    +0.000 C 
ATOM     18  C   UNL     1      -0.574   9.943  21.360  0.00  0.00    +0.000 C 
ATOM     19  C   UNL     1      -1.233  10.977  20.417  0.00  0.00    +0.000 C 
ATOM     20  C   UNL     1      -1.103  10.408  18.984  0.00  0.00    +0.000 C 
ATOM     21  C   UNL     1       0.333  10.075  18.607  0.00  0.00    +0.000 C 
ATOM     22  N   UNL     1       2.068   7.926  17.842  0.00  0.00    +0.000 NA
ATOM     23  N   UNL     1       2.947   6.925  17.966  0.00  0.00    +0.000 N 
ATOM     24  H   UNL     1       3.881   5.345  20.640  0.00  0.00    +0.000 HD
ATOM     25  H   UNL     1       4.098   4.795  19.059  0.00  0.00    +0.000 HD
ATOM     26  H   UNL     1       3.350   6.506  17.138  0.00  0.00    +0.000 HD
ENDBRANCH   1  19
BRANCH  11  27
ATOM     27  C   UNL     1       0.476  14.211  21.845  0.00  0.00    +0.000 C 
BRANCH  27  28
ATOM     28  C   UNL     1       1.311  14.462  20.603  0.00  0.00    +0.000 A 
ATOM     29  C   UNL     1       2.477  13.719  20.367  0.00  0.00    +0.000 A 
ATOM     30  C   UNL     1       3.331  14.059  19.315  0.00  0.00    +0.000 A 
ATOM     31  C   UNL     1       3.014  15.132  18.486  0.00  0.00    +0.000 A 
ATOM     32 CL   UNL     1       4.107  15.610  17.247  0.00  0.00    +0.000 Cl
ATOM     33  C   UNL     1       1.824  15.833  18.665  0.00  0.00    +0.000 A 
ATOM     34  C   UNL     1       0.969  15.489  19.712  0.00  0.00    +0.000 A 
ENDBRANCH  27  28
ENDBRANCH  11  27
TORSDOF 3
ENDMDL
MODEL 8
REMARK VINA RESULT:      -6.9      4.631      8.368
REMARK  Name = 
REMARK  3 active torsions:
REMARK  status: ('A' for Active; 'I' for Inactive)
REMARK    1  A    between atoms: C_8  and  N_9
REMARK    2  A    between atoms: C_19  and  C_20
REMARK    3  A    between atoms: C_20  and  C_21
REMARK                            x       y       z     vdW  Elec       q    Type
REMARK                         _______ _______ _______ _____ _____    ______ ____
ROOT
ATOM      1  N   UNL     1      -0.894  11.358  20.473  0.00  0.00    +0.000 NA
ATOM      2  C   UNL     1      -1.462  12.479  21.271  0.00  0.00    +0.000 C 
ATOM      3  C   UNL     1      -0.628  13.733  21.228  0.00  0.00    +0.000 A 
ATOM      4  C   UNL     1      -0.010  14.211  22.390  0.00  0.00    +0.000 A 
ATOM      5  C   UNL     1       0.891  15.256  22.287  0.00  0.00    +0.000 A 
ATOM      6  N   UNL     1       1.193  15.869  21.125  0.00  0.00    +0.000 NA
ATOM      7  C   UNL     1       0.539  15.430  20.021  0.00  0.00    +0.000 A 
ATOM      8  C   UNL     1      -0.367  14.378  20.021  0.00  0.00    +0.000 A 
ATOM      9  O   UNL     1      -1.022  14.042  18.871  0.00  0.00    +0.000 OA
ATOM     10  C   UNL     1      -0.597  12.777  18.344  0.00  0.00    +0.000 C 
ATOM     11  C   UNL     1      -1.233  11.536  19.027  0.00  0.00    +0.000 C 
ENDROOT
BRANCH   1  19
ATOM     12  N   UNL     1       3.852   4.941  18.037  0.00  0.00    +0.000 N 
ATOM     13  C   UNL     1       3.087   5.670  18.868  0.00  0.00    +0.000 A 
ATOM     14  N   UNL     1       2.697   6.908  18.734  0.00  0.00    +0.000 NA
ATOM     15  C   UNL     1       1.995   7.162  19.887  0.00  0.00    +0.000 A 
ATOM     16  N   UNL     1       1.508   8.408  20.123  0.00  0.00    +0.000 N 
ATOM     17  C   UNL     1       1.400   9.379  19.040  0.00  0.00    +0.000 C 
ATOM     18  C   UNL     1       1.496  10.803  19.585  0.00  0.00    +0.000 C 
ATOM     19  C   UNL     1       0.555  11.113  20.772  0.00  0.00    +0.000 C 
ATOM     20  C   UNL     1       0.780   9.991  21.813  0.00  0.00    +0.000 C 
ATOM     21  C   UNL     1       0.582   8.598  21.234  0.00  0.00    +0.000 C 
ATOM     22  N   UNL     1       1.918   6.116  20.714  0.00  0.00    +0.000 NA
ATOM     23  N   UNL     1       2.608   5.183  20.047  0.00  0.00    +0.000 N 
ATOM     24  H   UNL     1       4.297   5.473  17.294  0.00  0.00    +0.000 HD
ATOM     25  H   UNL     1       4.450   4.208  18.400  0.00  0.00    +0.000 HD
ATOM     26  H   UNL     1       2.722   4.261  20.446  0.00  0.00    +0.000 HD
ENDBRANCH   1  19
BRANCH  11  27
ATOM     27  C   UNL     1      -2.776  11.496  18.730  0.00  0.00    +0.000 C 
BRANCH  27  28
ATOM     28  C   UNL     1      -3.121  10.966  17.350  0.00  0.00    +0.000 A 
ATOM     29  C   UNL     1      -2.315   9.995  16.738  0.00  0.00    +0.000 A 
ATOM     30  C   UNL     1      -2.537   9.628  15.409  0.00  0.00    +0.000 A 
ATOM     31  C   UNL     1      -3.574  10.219  14.693  0.00  0.00    +0.000 A 
ATOM     32 CL   UNL     1      -3.793   9.837  13.029  0.00  0.00    +0.000 Cl
ATOM     33  C   UNL     1      -4.426  11.132  15.309  0.00  0.00    +0.000 A 
ATOM     34  C   UNL     1      -4.208  11.493  16.638  0.00  0.00    +0.000 A 
ENDBRANCH  27  28
ENDBRANCH  11  27
TORSDOF 3
ENDMDL
MODEL 9
REMARK VINA RESULT:      -6.9      7.096     12.290
REMARK  Name = 
REMARK  3 active torsions:
REMARK  status: ('A' for Active; 'I' for Inactive)
REMARK    1  A    between atoms: C_8  and  N_9
REMARK    2  A    between atoms: C_19  and  C_20
REMARK    3  A    between atoms: C_20  and  C_21
REMARK                            x       y       z     vdW  Elec       q    Type
REMARK                         _______ _______ _______ _____ _____    ______ ____
ROOT
ATOM      1  N   UNL     1      -0.911  13.134  19.866  0.00  0.00    +0.000 NA
ATOM      2  C   UNL     1      -0.437  13.875  18.665  0.00  0.00    +0.000 C 
ATOM      3  C   UNL     1       0.736  14.780  18.938  0.00  0.00    +0.000 A 
ATOM      4  C   UNL     1       0.600  16.169  18.816  0.00  0.00    +0.000 A 
ATOM      5  C   UNL     1       1.635  16.982  19.245  0.00  0.00    +0.000 A 
ATOM      6  N   UNL     1       2.792  16.511  19.754  0.00  0.00    +0.000 NA
ATOM      7  C   UNL     1       2.925  15.163  19.809  0.00  0.00    +0.000 A 
ATOM      8  C   UNL     1       1.939  14.267  19.420  0.00  0.00    +0.000 A 
ATOM      9  O   UNL     1       2.182  12.925  19.457  0.00  0.00    +0.000 OA
ATOM     10  C   UNL     1       1.431  12.254  20.478  0.00  0.00    +0.000 C 
ATOM     11  C   UNL     1      -0.044  11.939  20.106  0.00  0.00    +0.000 C 
ENDROOT
BRANCH   1  19
ATOM     12  N   UNL     1      -7.632  13.673  24.781  0.00  0.00    +0.000 N 
ATOM     13  C   UNL     1      -6.792  14.020  23.792  0.00  0.00    +0.000 A 
ATOM     14  N   UNL     1      -5.581  13.585  23.568  0.00  0.00    +0.000 NA
ATOM     15  C   UNL     1      -5.167  14.308  22.476  0.00  0.00    +0.000 A 
ATOM     16  N   UNL     1      -3.896  14.168  22.014  0.00  0.00    +0.000 N 
ATOM     17  C   UNL     1      -3.083  13.025  22.415  0.00  0.00    +0.000 C 
ATOM     18  C   UNL     1      -1.599  13.381  22.371  0.00  0.00    +0.000 C 
ATOM     19  C   UNL     1      -1.122  14.029  21.050  0.00  0.00    +0.000 C 
ATOM     20  C   UNL     1      -2.091  15.201  20.763  0.00  0.00    +0.000 C 
ATOM     21  C   UNL     1      -3.549  14.769  20.731  0.00  0.00    +0.000 C 
ATOM     22  N   UNL     1      -6.087  15.153  22.005  0.00  0.00    +0.000 NA
ATOM     23  N   UNL     1      -7.107  14.948  22.847  0.00  0.00    +0.000 N 
ATOM     24  H   UNL     1      -7.212  13.118  25.522  0.00  0.00    +0.000 HD
ATOM     25  H   UNL     1      -8.313  14.337  25.134  0.00  0.00    +0.000 HD
ATOM     26  H   UNL     1      -7.966  15.470  22.731  0.00  0.00    +0.000 HD
ENDBRANCH   1  19
BRANCH  11  27
ATOM     27  C   UNL     1      -0.086  10.883  18.942  0.00  0.00    +0.000 C 
BRANCH  27  28
ATOM     28  C   UNL     1       0.850   9.707  19.148  0.00  0.00    +0.000 A 
ATOM     29  C   UNL     1       1.649   9.240  18.094  0.00  0.00    +0.000 A 
ATOM     30  C   UNL     1       2.386   8.062  18.234  0.00  0.00    +0.000 A 
ATOM     31  C   UNL     1       2.338   7.355  19.433  0.00  0.00    +0.000 A 
ATOM     32 CL   UNL     1       3.171   5.856  19.577  0.00  0.00    +0.000 Cl
ATOM     33  C   UNL     1       1.606   7.844  20.511  0.00  0.00    +0.000 A 
ATOM     34  C   UNL     1       0.876   9.025  20.372  0.00  0.00    +0.000 A 
ENDBRANCH  27  28
ENDBRANCH  11  27
TORSDOF 3
ENDMDL
