MODEL 1
REMARK VINA RESULT:      -7.7      0.000      0.000
REMARK  Name = 
REMARK  5 active torsions:
REMARK  status: ('A' for Active; 'I' for Inactive)
REMARK    1  A    between atoms: C_2  and  C_17
REMARK    2  A    between atoms: N_3  and  N_4
REMARK    3  A    between atoms: N_4  and  S_5
REMARK    4  A    between atoms: S_5  and  C_8
REMARK    5  A    between atoms: C_11  and  N_12
REMARK                            x       y       z     vdW  Elec       q    Type
REMARK                         _______ _______ _______ _____ _____    ______ ____
ROOT
ATOM      1  N   UNL     1       7.572   4.285  17.959  0.00  0.00    +0.000 NA
ATOM      2  H   UNL     1       8.019   3.464  18.380  0.00  0.00    +0.000 HD
ENDROOT
BRANCH   1   5
ATOM      3  O   UNL     1       5.520   3.655  16.163  0.00  0.00    +0.000 OA
ATOM      4  C   UNL     1       6.581   4.091  15.728  0.00  0.00    +0.000 C 
ATOM      5  N   UNL     1       7.635   4.482  16.527  0.00  0.00    +0.000 N 
ATOM      6  H   UNL     1       8.457   4.958  16.165  0.00  0.00    +0.000 HD
BRANCH   4   7
ATOM      7  C   UNL     1       6.803   4.259  14.265  0.00  0.00    +0.000 A 
ATOM      8  C   UNL     1       7.684   5.244  13.821  0.00  0.00    +0.000 A 
ATOM      9  C   UNL     1       7.879   5.366  12.455  0.00  0.00    +0.000 A 
ATOM     10  N   UNL     1       7.256   4.598  11.536  0.00  0.00    +0.000 NA
ATOM     11  C   UNL     1       6.389   3.672  11.993  0.00  0.00    +0.000 A 
ATOM     12  C   UNL     1       6.126   3.465  13.335  0.00  0.00    +0.000 A 
ENDBRANCH   4   7
ENDBRANCH   1   5
BRANCH   1  13
ATOM     13  S   UNL     1       6.827   5.489  18.875  0.00  0.00    +0.000 S 
ATOM     14  O   UNL     1       7.474   5.486  20.171  0.00  0.00    +0.000 OA
ATOM     15  O   UNL     1       6.791   6.692  18.069  0.00  0.00    +0.000 OA
BRANCH  13  16
ATOM     16  C   UNL     1       5.159   4.925  19.074  0.00  0.00    +0.000 A 
ATOM     17  C   UNL     1       4.095   5.787  18.783  0.00  0.00    +0.000 A 
ATOM     18  C   UNL     1       2.780   5.315  18.856  0.00  0.00    +0.000 A 
ATOM     19  C   UNL     1       2.542   3.982  19.223  0.00  0.00    +0.000 A 
ATOM     20  C   UNL     1       3.611   3.120  19.512  0.00  0.00    +0.000 A 
ATOM     21  C   UNL     1       4.925   3.593  19.432  0.00  0.00    +0.000 A 
BRANCH  19  22
ATOM     22  N   UNL     1       1.162   3.482  19.292  0.00  0.00    +0.000 N 
ATOM     23  O   UNL     1       0.773   2.737  18.383  0.00  0.00    +0.000 OA
ATOM     24  O   UNL     1       0.469   3.840  20.256  0.00  0.00    +0.000 OA
ENDBRANCH  19  22
ENDBRANCH  13  16
ENDBRANCH   1  13
TORSDOF 5
ENDMDL
MODEL 2
REMARK VINA RESULT:      -7.4      0.174      1.592
REMARK  Name = 
REMARK  5 active torsions:
REMARK  status: ('A' for Active; 'I' for Inactive)
REMARK    1  A    between atoms: C_2  and  C_17
REMARK    2  A    between atoms: N_3  and  N_4
REMARK    3  A    between atoms: N_4  and  S_5
REMARK    4  A    between atoms: S_5  and  C_8
REMARK    5  A    between atoms: C_11  and  N_12
REMARK                            x       y       z     vdW  Elec       q    Type
REMARK                         _______ _______ _______ _____ _____    ______ ____
ROOT
ATOM      1  N   UNL     1       7.696   4.350  17.917  0.00  0.00    +0.000 NA
ATOM      2  H   UNL     1       8.212   3.564  18.326  0.00  0.00    +0.000 HD
ENDROOT
BRANCH   1   5
ATOM      3  O   UNL     1       5.663   3.565  16.161  0.00  0.00    +0.000 OA
ATOM      4  C   UNL     1       6.677   4.082  15.706  0.00  0.00    +0.000 C 
ATOM      5  N   UNL     1       7.714   4.552  16.485  0.00  0.00    +0.000 N 
ATOM      6  H   UNL     1       8.490   5.091  16.107  0.00  0.00    +0.000 HD
BRANCH   4   7
ATOM      7  C   UNL     1       6.856   4.268  14.239  0.00  0.00    +0.000 A 
ATOM      8  C   UNL     1       6.168   3.434  13.359  0.00  0.00    +0.000 A 
ATOM      9  C   UNL     1       6.346   3.642  12.002  0.00  0.00    +0.000 A 
ATOM     10  N   UNL     1       7.155   4.592  11.487  0.00  0.00    +0.000 NA
ATOM     11  C   UNL     1       7.830   5.366  12.361  0.00  0.00    +0.000 A 
ATOM     12  C   UNL     1       7.719   5.245  13.735  0.00  0.00    +0.000 A 
ENDBRANCH   4   7
ENDBRANCH   1   5
BRANCH   1  13
ATOM     13  S   UNL     1       6.883   5.494  18.851  0.00  0.00    +0.000 S 
ATOM     14  O   UNL     1       7.438   5.411  20.186  0.00  0.00    +0.000 OA
ATOM     15  O   UNL     1       6.897   6.745  18.120  0.00  0.00    +0.000 OA
BRANCH  13  16
ATOM     16  C   UNL     1       5.209   4.919  18.898  0.00  0.00    +0.000 A 
ATOM     17  C   UNL     1       4.913   3.687  19.495  0.00  0.00    +0.000 A 
ATOM     18  C   UNL     1       3.582   3.273  19.610  0.00  0.00    +0.000 A 
ATOM     19  C   UNL     1       2.556   4.097  19.123  0.00  0.00    +0.000 A 
ATOM     20  C   UNL     1       2.855   5.332  18.527  0.00  0.00    +0.000 A 
ATOM     21  C   UNL     1       4.186   5.746  18.419  0.00  0.00    +0.000 A 
BRANCH  19  22
ATOM     22  N   UNL     1       1.156   3.668  19.250  0.00  0.00    +0.000 N 
ATOM     23  O   UNL     1       0.555   3.965  20.291  0.00  0.00    +0.000 OA
ATOM     24  O   UNL     1       0.663   3.030  18.308  0.00  0.00    +0.000 OA
ENDBRANCH  19  22
ENDBRANCH  13  16
ENDBRANCH   1  13
TORSDOF 5
ENDMDL
MODEL 3
REMARK VINA RESULT:      -7.4      4.514      8.515
REMARK  Name = 
REMARK  5 active torsions:
REMARK  status: ('A' for Active; 'I' for Inactive)
REMARK    1  A    between atoms: C_2  and  C_17
REMARK    2  A    between atoms: N_3  and  N_4
REMARK    3  A    between atoms: N_4  and  S_5
REMARK    4  A    between atoms: S_5  and  C_8
REMARK    5  A    between atoms: C_11  and  N_12
REMARK                            x       y       z     vdW  Elec       q    Type
REMARK                         _______ _______ _______ _____ _____    ______ ____
ROOT
ATOM      1  N   UNL     1       2.600   7.346  18.683  0.00  0.00    +0.000 NA
ATOM      2  H   UNL     1       2.896   7.951  17.910  0.00  0.00    +0.000 HD
ENDROOT
BRANCH   1   5
ATOM      3  O   UNL     1       1.127   9.724  18.615  0.00  0.00    +0.000 OA
ATOM      4  C   UNL     1       1.234   9.120  19.676  0.00  0.00    +0.000 C 
ATOM      5  N   UNL     1       1.892   7.914  19.809  0.00  0.00    +0.000 N 
ATOM      6  H   UNL     1       1.867   7.361  20.662  0.00  0.00    +0.000 HD
BRANCH   4   7
ATOM      7  C   UNL     1       0.624   9.646  20.928  0.00  0.00    +0.000 A 
ATOM      8  C   UNL     1      -0.066  10.857  20.892  0.00  0.00    +0.000 A 
ATOM      9  C   UNL     1      -0.633  11.312  22.070  0.00  0.00    +0.000 A 
ATOM     10  N   UNL     1      -0.543  10.658  23.248  0.00  0.00    +0.000 NA
ATOM     11  C   UNL     1       0.153   9.503  23.260  0.00  0.00    +0.000 A 
ATOM     12  C   UNL     1       0.753   8.959  22.138  0.00  0.00    +0.000 A 
ENDBRANCH   4   7
ENDBRANCH   1   5
BRANCH   1  13
ATOM     13  S   UNL     1       2.979   5.704  18.754  0.00  0.00    +0.000 S 
ATOM     14  O   UNL     1       3.750   5.509  19.965  0.00  0.00    +0.000 OA
ATOM     15  O   UNL     1       1.756   4.963  18.527  0.00  0.00    +0.000 OA
BRANCH  13  16
ATOM     16  C   UNL     1       4.038   5.434  17.360  0.00  0.00    +0.000 A 
ATOM     17  C   UNL     1       4.597   6.528  16.688  0.00  0.00    +0.000 A 
ATOM     18  C   UNL     1       5.500   6.313  15.643  0.00  0.00    +0.000 A 
ATOM     19  C   UNL     1       5.837   5.001  15.277  0.00  0.00    +0.000 A 
ATOM     20  C   UNL     1       5.277   3.906  15.953  0.00  0.00    +0.000 A 
ATOM     21  C   UNL     1       4.379   4.125  17.002  0.00  0.00    +0.000 A 
BRANCH  19  22
ATOM     22  N   UNL     1       6.793   4.773  14.184  0.00  0.00    +0.000 N 
ATOM     23  O   UNL     1       6.533   3.879  13.369  0.00  0.00    +0.000 OA
ATOM     24  O   UNL     1       7.806   5.487  14.149  0.00  0.00    +0.000 OA
ENDBRANCH  19  22
ENDBRANCH  13  16
ENDBRANCH   1  13
TORSDOF 5
ENDMDL
MODEL 4
REMARK VINA RESULT:      -7.4      2.924      6.793
REMARK  Name = 
REMARK  5 active torsions:
REMARK  status: ('A' for Active; 'I' for Inactive)
REMARK    1  A    between atoms: C_2  and  C_17
REMARK    2  A    between atoms: N_3  and  N_4
REMARK    3  A    between atoms: N_4  and  S_5
REMARK    4  A    between atoms: S_5  and  C_8
REMARK    5  A    between atoms: C_11  and  N_12
REMARK                            x       y       z     vdW  Elec       q    Type
REMARK                         _______ _______ _______ _____ _____    ______ ____
ROOT
ATOM      1  N   UNL     1       2.117   3.042  19.460  0.00  0.00    +0.000 NA
ATOM      2  H   UNL     1       1.269   2.505  19.664  0.00  0.00    +0.000 HD
ENDROOT
BRANCH   1   5
ATOM      3  O   UNL     1       2.358   5.055  21.390  0.00  0.00    +0.000 OA
ATOM      4  C   UNL     1       2.107   5.367  20.232  0.00  0.00    +0.000 C 
ATOM      5  N   UNL     1       2.020   4.461  19.195  0.00  0.00    +0.000 N 
ATOM      6  H   UNL     1       1.938   4.742  18.220  0.00  0.00    +0.000 HD
BRANCH   4   7
ATOM      7  C   UNL     1       1.899   6.790  19.845  0.00  0.00    +0.000 A 
ATOM      8  C   UNL     1       2.288   7.213  18.575  0.00  0.00    +0.000 A 
ATOM      9  C   UNL     1       2.069   8.539  18.241  0.00  0.00    +0.000 A 
ATOM     10  N   UNL     1       1.515   9.442  19.078  0.00  0.00    +0.000 NA
ATOM     11  C   UNL     1       1.173   9.012  20.309  0.00  0.00    +0.000 A 
ATOM     12  C   UNL     1       1.345   7.708  20.740  0.00  0.00    +0.000 A 
ENDBRANCH   4   7
ENDBRANCH   1   5
BRANCH   1  13
ATOM     13  S   UNL     1       3.640   2.331  19.327  0.00  0.00    +0.000 S 
ATOM     14  O   UNL     1       4.152   2.191  20.675  0.00  0.00    +0.000 OA
ATOM     15  O   UNL     1       3.510   1.178  18.461  0.00  0.00    +0.000 OA
BRANCH  13  16
ATOM     16  C   UNL     1       4.618   3.536  18.473  0.00  0.00    +0.000 A 
ATOM     17  C   UNL     1       5.475   4.376  19.196  0.00  0.00    +0.000 A 
ATOM     18  C   UNL     1       6.311   5.266  18.515  0.00  0.00    +0.000 A 
ATOM     19  C   UNL     1       6.281   5.311  17.113  0.00  0.00    +0.000 A 
ATOM     20  C   UNL     1       5.423   4.467  16.391  0.00  0.00    +0.000 A 
ATOM     21  C   UNL     1       4.593   3.573  17.074  0.00  0.00    +0.000 A 
BRANCH  19  22
ATOM     22  N   UNL     1       7.164   6.240  16.395  0.00  0.00    +0.000 N 
ATOM     23  O   UNL     1       7.648   5.861  15.321  0.00  0.00    +0.000 OA
ATOM     24  O   UNL     1       7.375   7.348  16.912  0.00  0.00    +0.000 OA
ENDBRANCH  19  22
ENDBRANCH  13  16
ENDBRANCH   1  13
TORSDOF 5
ENDMDL
MODEL 5
REMARK VINA RESULT:      -7.4      2.909      6.816
REMARK  Name = 
REMARK  5 active torsions:
REMARK  status: ('A' for Active; 'I' for Inactive)
REMARK    1  A    between atoms: C_2  and  C_17
REMARK    2  A    between atoms: N_3  and  N_4
REMARK    3  A    between atoms: N_4  and  S_5
REMARK    4  A    between atoms: S_5  and  C_8
REMARK    5  A    between atoms: C_11  and  N_12
REMARK                            x       y       z     vdW  Elec       q    Type
REMARK                         _______ _______ _______ _____ _____    ______ ____
ROOT
ATOM      1  N   UNL     1       1.962   3.172  19.306  0.00  0.00    +0.000 NA
ATOM      2  H   UNL     1       1.094   2.650  19.466  0.00  0.00    +0.000 HD
ENDROOT
BRANCH   1   5
ATOM      3  O   UNL     1       2.342   5.175  21.223  0.00  0.00    +0.000 OA
ATOM      4  C   UNL     1       2.062   5.496  20.073  0.00  0.00    +0.000 C 
ATOM      5  N   UNL     1       1.907   4.593  19.042  0.00  0.00    +0.000 N 
ATOM      6  H   UNL     1       1.801   4.875  18.070  0.00  0.00    +0.000 HD
BRANCH   4   7
ATOM      7  C   UNL     1       1.892   6.925  19.691  0.00  0.00    +0.000 A 
ATOM      8  C   UNL     1       1.329   7.811  20.608  0.00  0.00    +0.000 A 
ATOM      9  C   UNL     1       1.195   9.136  20.226  0.00  0.00    +0.000 A 
ATOM     10  N   UNL     1       1.566   9.609  19.017  0.00  0.00    +0.000 NA
ATOM     11  C   UNL     1       2.082   8.725  18.140  0.00  0.00    +0.000 A 
ATOM     12  C   UNL     1       2.263   7.383  18.424  0.00  0.00    +0.000 A 
ENDBRANCH   4   7
ENDBRANCH   1   5
BRANCH   1  13
ATOM     13  S   UNL     1       3.475   2.430  19.247  0.00  0.00    +0.000 S 
ATOM     14  O   UNL     1       3.928   2.299  20.616  0.00  0.00    +0.000 OA
ATOM     15  O   UNL     1       3.359   1.268  18.390  0.00  0.00    +0.000 OA
BRANCH  13  16
ATOM     16  C   UNL     1       4.511   3.606  18.420  0.00  0.00    +0.000 A 
ATOM     17  C   UNL     1       5.407   4.387  19.161  0.00  0.00    +0.000 A 
ATOM     18  C   UNL     1       6.285   5.250  18.500  0.00  0.00    +0.000 A 
ATOM     19  C   UNL     1       6.259   5.328  17.099  0.00  0.00    +0.000 A 
ATOM     20  C   UNL     1       5.362   4.542  16.359  0.00  0.00    +0.000 A 
ATOM     21  C   UNL     1       4.489   3.674  17.022  0.00  0.00    +0.000 A 
BRANCH  19  22
ATOM     22  N   UNL     1       7.187   6.229  16.402  0.00  0.00    +0.000 N 
ATOM     23  O   UNL     1       7.431   7.323  16.927  0.00  0.00    +0.000 OA
ATOM     24  O   UNL     1       7.667   5.839  15.327  0.00  0.00    +0.000 OA
ENDBRANCH  19  22
ENDBRANCH  13  16
ENDBRANCH   1  13
TORSDOF 5
ENDMDL
MODEL 6
REMARK VINA RESULT:      -7.3      3.291      7.169
REMARK  Name = 
REMARK  5 active torsions:
REMARK  status: ('A' for Active; 'I' for Inactive)
REMARK    1  A    between atoms: C_2  and  C_17
REMARK    2  A    between atoms: N_3  and  N_4
REMARK    3  A    between atoms: N_4  and  S_5
REMARK    4  A    between atoms: S_5  and  C_8
REMARK    5  A    between atoms: C_11  and  N_12
REMARK                            x       y       z     vdW  Elec       q    Type
REMARK                         _______ _______ _______ _____ _____    ______ ____
ROOT
ATOM      1  N   UNL     1       3.332   4.643  18.716  0.00  0.00    +0.000 NA
ATOM      2  H   UNL     1       2.628   3.919  18.544  0.00  0.00    +0.000 HD
ENDROOT
BRANCH   1   5
ATOM      3  O   UNL     1       1.888   5.965  20.717  0.00  0.00    +0.000 OA
ATOM      4  C   UNL     1       2.196   6.578  19.701  0.00  0.00    +0.000 C 
ATOM      5  N   UNL     1       2.951   6.039  18.679  0.00  0.00    +0.000 N 
ATOM      6  H   UNL     1       3.307   6.591  17.903  0.00  0.00    +0.000 HD
BRANCH   4   7
ATOM      7  C   UNL     1       1.789   7.996  19.502  0.00  0.00    +0.000 A 
ATOM      8  C   UNL     1       2.048   8.613  18.279  0.00  0.00    +0.000 A 
ATOM      9  C   UNL     1       1.645   9.928  18.122  0.00  0.00    +0.000 A 
ATOM     10  N   UNL     1       1.031  10.646  19.087  0.00  0.00    +0.000 NA
ATOM     11  C   UNL     1       0.817  10.033  20.269  0.00  0.00    +0.000 A 
ATOM     12  C   UNL     1       1.176   8.722  20.527  0.00  0.00    +0.000 A 
ENDBRANCH   4   7
ENDBRANCH   1   5
BRANCH   1  13
ATOM     13  S   UNL     1       4.963   4.292  18.960  0.00  0.00    +0.000 S 
ATOM     14  O   UNL     1       5.505   5.369  19.762  0.00  0.00    +0.000 OA
ATOM     15  O   UNL     1       5.052   2.917  19.408  0.00  0.00    +0.000 OA
BRANCH  13  16
ATOM     16  C   UNL     1       5.680   4.376  17.342  0.00  0.00    +0.000 A 
ATOM     17  C   UNL     1       4.875   4.178  16.213  0.00  0.00    +0.000 A 
ATOM     18  C   UNL     1       5.422   4.330  14.935  0.00  0.00    +0.000 A 
ATOM     19  C   UNL     1       6.773   4.679  14.797  0.00  0.00    +0.000 A 
ATOM     20  C   UNL     1       7.577   4.880  15.930  0.00  0.00    +0.000 A 
ATOM     21  C   UNL     1       7.026   4.733  17.207  0.00  0.00    +0.000 A 
BRANCH  19  22
ATOM     22  N   UNL     1       7.348   4.849  13.455  0.00  0.00    +0.000 N 
ATOM     23  O   UNL     1       6.906   4.135  12.545  0.00  0.00    +0.000 OA
ATOM     24  O   UNL     1       8.244   5.694  13.317  0.00  0.00    +0.000 OA
ENDBRANCH  19  22
ENDBRANCH  13  16
ENDBRANCH   1  13
TORSDOF 5
ENDMDL
MODEL 7
REMARK VINA RESULT:      -7.3      1.710      2.220
REMARK  Name = 
REMARK  5 active torsions:
REMARK  status: ('A' for Active; 'I' for Inactive)
REMARK    1  A    between atoms: C_2  and  C_17
REMARK    2  A    between atoms: N_3  and  N_4
REMARK    3  A    between atoms: N_4  and  S_5
REMARK    4  A    between atoms: S_5  and  C_8
REMARK    5  A    between atoms: C_11  and  N_12
REMARK                            x       y       z     vdW  Elec       q    Type
REMARK                         _______ _______ _______ _____ _____    ______ ____
ROOT
ATOM      1  N   UNL     1       7.102   6.136  15.901  0.00  0.00    +0.000 NA
ATOM      2  H   UNL     1       7.314   7.080  15.564  0.00  0.00    +0.000 HD
ENDROOT
BRANCH   1   5
ATOM      3  O   UNL     1       8.205   5.593  13.386  0.00  0.00    +0.000 OA
ATOM      4  C   UNL     1       7.200   4.986  13.740  0.00  0.00    +0.000 C 
ATOM      5  N   UNL     1       6.607   5.139  14.976  0.00  0.00    +0.000 N 
ATOM      6  H   UNL     1       5.852   4.542  15.305  0.00  0.00    +0.000 HD
BRANCH   4   7
ATOM      7  C   UNL     1       6.542   3.995  12.844  0.00  0.00    +0.000 A 
ATOM      8  C   UNL     1       5.151   3.966  12.768  0.00  0.00    +0.000 A 
ATOM      9  C   UNL     1       4.571   3.041  11.916  0.00  0.00    +0.000 A 
ATOM     10  N   UNL     1       5.274   2.163  11.170  0.00  0.00    +0.000 NA
ATOM     11  C   UNL     1       6.617   2.195  11.283  0.00  0.00    +0.000 A 
ATOM     12  C   UNL     1       7.295   3.082  12.101  0.00  0.00    +0.000 A 
ENDBRANCH   4   7
ENDBRANCH   1   5
BRANCH   1  13
ATOM     13  S   UNL     1       7.218   5.697  17.525  0.00  0.00    +0.000 S 
ATOM     14  O   UNL     1       8.057   4.518  17.578  0.00  0.00    +0.000 OA
ATOM     15  O   UNL     1       7.563   6.887  18.275  0.00  0.00    +0.000 OA
BRANCH  13  16
ATOM     16  C   UNL     1       5.567   5.237  17.977  0.00  0.00    +0.000 A 
ATOM     17  C   UNL     1       4.517   6.145  17.793  0.00  0.00    +0.000 A 
ATOM     18  C   UNL     1       3.204   5.752  18.068  0.00  0.00    +0.000 A 
ATOM     19  C   UNL     1       2.952   4.451  18.528  0.00  0.00    +0.000 A 
ATOM     20  C   UNL     1       4.006   3.542  18.709  0.00  0.00    +0.000 A 
ATOM     21  C   UNL     1       5.318   3.936  18.427  0.00  0.00    +0.000 A 
BRANCH  19  22
ATOM     22  N   UNL     1       1.572   4.032  18.810  0.00  0.00    +0.000 N 
ATOM     23  O   UNL     1       1.061   4.410  19.872  0.00  0.00    +0.000 OA
ATOM     24  O   UNL     1       1.004   3.322  17.967  0.00  0.00    +0.000 OA
ENDBRANCH  19  22
ENDBRANCH  13  16
ENDBRANCH   1  13
TORSDOF 5
ENDMDL
MODEL 8
REMARK VINA RESULT:      -7.2      2.825      4.517
REMARK  Name = 
REMARK  5 active torsions:
REMARK  status: ('A' for Active; 'I' for Inactive)
REMARK    1  A    between atoms: C_2  and  C_17
REMARK    2  A    between atoms: N_3  and  N_4
REMARK    3  A    between atoms: N_4  and  S_5
REMARK    4  A    between atoms: S_5  and  C_8
REMARK    5  A    between atoms: C_11  and  N_12
REMARK                            x       y       z     vdW  Elec       q    Type
REMARK                         _______ _______ _______ _____ _____    ______ ____
ROOT
ATOM      1  N   UNL     1       3.910   2.285  19.693  0.00  0.00    +0.000 NA
ATOM      2  H   UNL     1       4.400   1.716  20.391  0.00  0.00    +0.000 HD
ENDROOT
BRANCH   1   5
ATOM      3  O   UNL     1       5.597   4.492  20.029  0.00  0.00    +0.000 OA
ATOM      4  C   UNL     1       5.427   4.038  18.903  0.00  0.00    +0.000 C 
ATOM      5  N   UNL     1       4.660   2.923  18.634  0.00  0.00    +0.000 N 
ATOM      6  H   UNL     1       4.628   2.482  17.718  0.00  0.00    +0.000 HD
BRANCH   4   7
ATOM      7  C   UNL     1       6.074   4.659  17.715  0.00  0.00    +0.000 A 
ATOM      8  C   UNL     1       6.745   5.872  17.863  0.00  0.00    +0.000 A 
ATOM      9  C   UNL     1       7.348   6.417  16.742  0.00  0.00    +0.000 A 
ATOM     10  N   UNL     1       7.309   5.848  15.518  0.00  0.00    +0.000 NA
ATOM     11  C   UNL     1       6.631   4.689  15.398  0.00  0.00    +0.000 A 
ATOM     12  C   UNL     1       5.999   4.059  16.455  0.00  0.00    +0.000 A 
ENDBRANCH   4   7
ENDBRANCH   1   5
BRANCH   1  13
ATOM     13  S   UNL     1       2.254   2.594  19.766  0.00  0.00    +0.000 S 
ATOM     14  O   UNL     1       1.642   1.837  18.693  0.00  0.00    +0.000 OA
ATOM     15  O   UNL     1       1.834   2.403  21.139  0.00  0.00    +0.000 OA
BRANCH  13  16
ATOM     16  C   UNL     1       2.109   4.320  19.395  0.00  0.00    +0.000 A 
ATOM     17  C   UNL     1       2.203   5.263  20.426  0.00  0.00    +0.000 A 
ATOM     18  C   UNL     1       2.176   6.628  20.122  0.00  0.00    +0.000 A 
ATOM     19  C   UNL     1       2.054   7.038  18.786  0.00  0.00    +0.000 A 
ATOM     20  C   UNL     1       1.963   6.091  17.755  0.00  0.00    +0.000 A 
ATOM     21  C   UNL     1       1.996   4.727  18.061  0.00  0.00    +0.000 A 
BRANCH  19  22
ATOM     22  N   UNL     1       2.035   8.472  18.464  0.00  0.00    +0.000 N 
ATOM     23  O   UNL     1       1.509   9.239  19.281  0.00  0.00    +0.000 OA
ATOM     24  O   UNL     1       2.543   8.826  17.390  0.00  0.00    +0.000 OA
ENDBRANCH  19  22
ENDBRANCH  13  16
ENDBRANCH   1  13
TORSDOF 5
ENDMDL
MODEL 9
REMARK VINA RESULT:      -7.2      3.351      7.087
REMARK  Name = 
REMARK  5 active torsions:
REMARK  status: ('A' for Active; 'I' for Inactive)
REMARK    1  A    between atoms: C_2  and  C_17
REMARK    2  A    between atoms: N_3  and  N_4
REMARK    3  A    between atoms: N_4  and  S_5
REMARK    4  A    between atoms: S_5  and  C_8
REMARK    5  A    between atoms: C_11  and  N_12
REMARK                            x       y       z     vdW  Elec       q    Type
REMARK                         _______ _______ _______ _____ _____    ______ ____
ROOT
ATOM      1  N   UNL     1       4.527   5.443  19.787  0.00  0.00    +0.000 NA
ATOM      2  H   UNL     1       5.396   5.681  20.276  0.00  0.00    +0.000 HD
ENDROOT
BRANCH   1   5
ATOM      3  O   UNL     1       3.841   7.255  17.767  0.00  0.00    +0.000 OA
ATOM      4  C   UNL     1       3.185   7.240  18.802  0.00  0.00    +0.000 C 
ATOM      5  N   UNL     1       3.404   6.354  19.837  0.00  0.00    +0.000 N 
ATOM      6  H   UNL     1       2.777   6.267  20.633  0.00  0.00    +0.000 HD
BRANCH   4   7
ATOM      7  C   UNL     1       2.055   8.187  19.013  0.00  0.00    +0.000 A 
ATOM      8  C   UNL     1       1.502   8.313  20.286  0.00  0.00    +0.000 A 
ATOM      9  C   UNL     1       0.462   9.212  20.451  0.00  0.00    +0.000 A 
ATOM     10  N   UNL     1      -0.052   9.958  19.450  0.00  0.00    +0.000 NA
ATOM     11  C   UNL     1       0.484   9.796  18.223  0.00  0.00    +0.000 A 
ATOM     12  C   UNL     1       1.528   8.930  17.952  0.00  0.00    +0.000 A 
ENDBRANCH   4   7
ENDBRANCH   1   5
BRANCH   1  13
ATOM     13  S   UNL     1       4.302   3.978  18.985  0.00  0.00    +0.000 S 
ATOM     14  O   UNL     1       4.955   2.962  19.785  0.00  0.00    +0.000 OA
ATOM     15  O   UNL     1       2.895   3.871  18.657  0.00  0.00    +0.000 OA
BRANCH  13  16
ATOM     16  C   UNL     1       5.195   4.162  17.467  0.00  0.00    +0.000 A 
ATOM     17  C   UNL     1       4.522   4.037  16.244  0.00  0.00    +0.000 A 
ATOM     18  C   UNL     1       5.208   4.269  15.048  0.00  0.00    +0.000 A 
ATOM     19  C   UNL     1       6.565   4.624  15.085  0.00  0.00    +0.000 A 
ATOM     20  C   UNL     1       7.236   4.751  16.311  0.00  0.00    +0.000 A 
ATOM     21  C   UNL     1       6.546   4.525  17.506  0.00  0.00    +0.000 A 
BRANCH  19  22
ATOM     22  N   UNL     1       7.285   4.876  13.829  0.00  0.00    +0.000 N 
ATOM     23  O   UNL     1       8.212   5.697  13.852  0.00  0.00    +0.000 OA
ATOM     24  O   UNL     1       6.917   4.255  12.821  0.00  0.00    +0.000 OA
ENDBRANCH  19  22
ENDBRANCH  13  16
ENDBRANCH   1  13
TORSDOF 5
ENDMDL
