MODEL 1
REMARK VINA RESULT:      -7.9      0.000      0.000
REMARK  Name = 
REMARK  4 active torsions:
REMARK  status: ('A' for Active; 'I' for Inactive)
REMARK    1  A    between atoms: C_2  and  C_16
REMARK    2  A    between atoms: N_3  and  C_4
REMARK    3  A    between atoms: C_4  and  C_5
REMARK    4  A    between atoms: C_5  and  O_7
REMARK                            x       y       z     vdW  Elec       q    Type
REMARK                         _______ _______ _______ _____ _____    ______ ____
ROOT
ATOM      1  O   UNL     1       1.810   8.288  21.003  0.00  0.00    +0.000 OA
ATOM      2  C   UNL     1       1.751   8.226  19.782  0.00  0.00    +0.000 C 
ATOM      3  N   UNL     1       1.044   9.137  19.025  0.00  0.00    +0.000 N 
ATOM      4  H   UNL     1       0.989   9.033  18.014  0.00  0.00    +0.000 HD
ENDROOT
BRANCH   2   5
ATOM      5  C   UNL     1       2.448   7.140  19.028  0.00  0.00    +0.000 A 
ATOM      6  C   UNL     1       3.322   7.519  17.994  0.00  0.00    +0.000 A 
ATOM      7  C   UNL     1       3.978   6.554  17.240  0.00  0.00    +0.000 A 
ATOM      8  C   UNL     1       3.775   5.208  17.516  0.00  0.00    +0.000 A 
ATOM      9  C   UNL     1       2.935   4.797  18.561  0.00  0.00    +0.000 A 
ATOM     10  C   UNL     1       2.773   3.423  18.824  0.00  0.00    +0.000 A 
ATOM     11  C   UNL     1       1.952   2.981  19.860  0.00  0.00    +0.000 A 
ATOM     12  C   UNL     1       1.283   3.905  20.648  0.00  0.00    +0.000 A 
ATOM     13  C   UNL     1       1.427   5.271  20.394  0.00  0.00    +0.000 A 
ATOM     14  C   UNL     1       2.255   5.764  19.351  0.00  0.00    +0.000 A 
ENDBRANCH   2   5
BRANCH   3  15
ATOM     15  C   UNL     1       0.256  10.248  19.597  0.00  0.00    +0.000 C 
ATOM     16  C   UNL     1      -0.455   9.856  20.920  0.00  0.00    +0.000 C 
ATOM     17  C   UNL     1      -0.512  11.179  21.625  0.00  0.00    +0.000 A 
ATOM     18  C   UNL     1      -1.353  11.547  22.658  0.00  0.00    +0.000 A 
ATOM     19  C   UNL     1      -1.318  12.874  23.091  0.00  0.00    +0.000 A 
ATOM     20  C   UNL     1      -0.436  13.798  22.509  0.00  0.00    +0.000 A 
ATOM     21  C   UNL     1       0.427  13.412  21.485  0.00  0.00    +0.000 A 
ATOM     22  C   UNL     1       0.369  12.101  21.046  0.00  0.00    +0.000 A 
ATOM     23  C   UNL     1       1.120  11.496  19.898  0.00  0.00    +0.000 C 
BRANCH  15  24
ATOM     24  C   UNL     1      -0.806  10.610  18.517  0.00  0.00    +0.000 C 
ATOM     25  O   UNL     1      -1.801   9.913  18.321  0.00  0.00    +0.000 OA
BRANCH  24  26
ATOM     26  O   UNL     1      -0.599  11.728  17.783  0.00  0.00    +0.000 OA
ATOM     27  H   UNL     1       0.064  11.675  17.065  0.00  0.00    +0.000 HD
ENDBRANCH  24  26
ENDBRANCH  15  24
ENDBRANCH   3  15
TORSDOF 4
ENDMDL
MODEL 2
REMARK VINA RESULT:      -7.8      2.260      7.840
REMARK  Name = 
REMARK  4 active torsions:
REMARK  status: ('A' for Active; 'I' for Inactive)
REMARK    1  A    between atoms: C_2  and  C_16
REMARK    2  A    between atoms: N_3  and  C_4
REMARK    3  A    between atoms: C_4  and  C_5
REMARK    4  A    between atoms: C_5  and  O_7
REMARK                            x       y       z     vdW  Elec       q    Type
REMARK                         _______ _______ _______ _____ _____    ______ ____
ROOT
ATOM      1  O   UNL     1       1.727   8.422  18.078  0.00  0.00    +0.000 OA
ATOM      2  C   UNL     1       1.812   8.124  19.262  0.00  0.00    +0.000 C 
ATOM      3  N   UNL     1       2.567   7.059  19.708  0.00  0.00    +0.000 N 
ATOM      4  H   UNL     1       2.587   6.821  20.697  0.00  0.00    +0.000 HD
ENDROOT
BRANCH   2   5
ATOM      5  C   UNL     1       1.092   8.908  20.311  0.00  0.00    +0.000 A 
ATOM      6  C   UNL     1       1.339   8.582  21.656  0.00  0.00    +0.000 A 
ATOM      7  C   UNL     1       0.677   9.257  22.675  0.00  0.00    +0.000 A 
ATOM      8  C   UNL     1      -0.225  10.265  22.361  0.00  0.00    +0.000 A 
ATOM      9  C   UNL     1      -0.470  10.636  21.031  0.00  0.00    +0.000 A 
ATOM     10  C   UNL     1      -1.376  11.678  20.755  0.00  0.00    +0.000 A 
ATOM     11  C   UNL     1      -1.636  12.078  19.445  0.00  0.00    +0.000 A 
ATOM     12  C   UNL     1      -0.995  11.441  18.394  0.00  0.00    +0.000 A 
ATOM     13  C   UNL     1      -0.100  10.400  18.651  0.00  0.00    +0.000 A 
ATOM     14  C   UNL     1       0.196   9.964  19.970  0.00  0.00    +0.000 A 
ENDBRANCH   2   5
BRANCH   3  15
ATOM     15  C   UNL     1       3.310   6.145  18.816  0.00  0.00    +0.000 C 
ATOM     16  C   UNL     1       3.639   6.789  17.442  0.00  0.00    +0.000 C 
ATOM     17  C   UNL     1       4.907   6.073  17.080  0.00  0.00    +0.000 A 
ATOM     18  C   UNL     1       5.466   5.935  15.823  0.00  0.00    +0.000 A 
ATOM     19  C   UNL     1       6.596   5.125  15.694  0.00  0.00    +0.000 A 
ATOM     20  C   UNL     1       7.159   4.491  16.814  0.00  0.00    +0.000 A 
ATOM     21  C   UNL     1       6.604   4.658  18.081  0.00  0.00    +0.000 A 
ATOM     22  C   UNL     1       5.470   5.442  18.196  0.00  0.00    +0.000 A 
ATOM     23  C   UNL     1       4.650   5.674  19.430  0.00  0.00    +0.000 C 
BRANCH  15  24
ATOM     24  C   UNL     1       2.380   4.912  18.609  0.00  0.00    +0.000 C 
ATOM     25  O   UNL     1       1.612   4.828  17.651  0.00  0.00    +0.000 OA
BRANCH  24  26
ATOM     26  O   UNL     1       2.437   3.922  19.530  0.00  0.00    +0.000 OA
ATOM     27  H   UNL     1       3.313   3.522  19.704  0.00  0.00    +0.000 HD
ENDBRANCH  24  26
ENDBRANCH  15  24
ENDBRANCH   3  15
TORSDOF 4
ENDMDL
MODEL 3
REMARK VINA RESULT:      -7.8      1.529      2.005
REMARK  Name = 
REMARK  4 active torsions:
REMARK  status: ('A' for Active; 'I' for Inactive)
REMARK    1  A    between atoms: C_2  and  C_16
REMARK    2  A    between atoms: N_3  and  C_4
REMARK    3  A    between atoms: C_4  and  C_5
REMARK    4  A    between atoms: C_5  and  O_7
REMARK                            x       y       z     vdW  Elec       q    Type
REMARK                         _______ _______ _______ _____ _____    ______ ____
ROOT
ATOM      1  O   UNL     1       1.828   7.988  20.524  0.00  0.00    +0.000 OA
ATOM      2  C   UNL     1       2.006   7.913  19.316  0.00  0.00    +0.000 C 
ATOM      3  N   UNL     1       1.606   8.903  18.442  0.00  0.00    +0.000 N 
ATOM      4  H   UNL     1       1.741   8.790  17.440  0.00  0.00    +0.000 HD
ENDROOT
BRANCH   2   5
ATOM      5  C   UNL     1       2.675   6.724  18.705  0.00  0.00    +0.000 A 
ATOM      6  C   UNL     1       3.670   6.958  17.740  0.00  0.00    +0.000 A 
ATOM      7  C   UNL     1       4.308   5.892  17.117  0.00  0.00    +0.000 A 
ATOM      8  C   UNL     1       3.967   4.590  17.458  0.00  0.00    +0.000 A 
ATOM      9  C   UNL     1       3.002   4.322  18.440  0.00  0.00    +0.000 A 
ATOM     10  C   UNL     1       2.700   2.988  18.773  0.00  0.00    +0.000 A 
ATOM     11  C   UNL     1       1.752   2.688  19.750  0.00  0.00    +0.000 A 
ATOM     12  C   UNL     1       1.094   3.716  20.407  0.00  0.00    +0.000 A 
ATOM     13  C   UNL     1       1.376   5.045  20.081  0.00  0.00    +0.000 A 
ATOM     14  C   UNL     1       2.337   5.394  19.095  0.00  0.00    +0.000 A 
ENDBRANCH   2   5
BRANCH   3  15
ATOM     15  C   UNL     1       0.889  10.127  18.857  0.00  0.00    +0.000 C 
ATOM     16  C   UNL     1      -0.486  10.280  18.154  0.00  0.00    +0.000 C 
ATOM     17  C   UNL     1      -1.260  11.045  19.186  0.00  0.00    +0.000 A 
ATOM     18  C   UNL     1      -2.402  11.799  18.995  0.00  0.00    +0.000 A 
ATOM     19  C   UNL     1      -2.896  12.527  20.080  0.00  0.00    +0.000 A 
ATOM     20  C   UNL     1      -2.263  12.472  21.332  0.00  0.00    +0.000 A 
ATOM     21  C   UNL     1      -1.126  11.688  21.522  0.00  0.00    +0.000 A 
ATOM     22  C   UNL     1      -0.630  10.989  20.437  0.00  0.00    +0.000 A 
ATOM     23  C   UNL     1       0.627  10.174  20.382  0.00  0.00    +0.000 C 
BRANCH  15  24
ATOM     24  C   UNL     1       1.818  11.312  18.461  0.00  0.00    +0.000 C 
ATOM     25  O   UNL     1       1.967  12.295  19.187  0.00  0.00    +0.000 OA
BRANCH  24  26
ATOM     26  O   UNL     1       2.464  11.234  17.275  0.00  0.00    +0.000 OA
ATOM     27  H   UNL     1       2.806  12.069  16.896  0.00  0.00    +0.000 HD
ENDBRANCH  24  26
ENDBRANCH  15  24
ENDBRANCH   3  15
TORSDOF 4
ENDMDL
MODEL 4
REMARK VINA RESULT:      -7.6      2.444      7.548
REMARK  Name = 
REMARK  4 active torsions:
REMARK  status: ('A' for Active; 'I' for Inactive)
REMARK    1  A    between atoms: C_2  and  C_16
REMARK    2  A    between atoms: N_3  and  C_4
REMARK    3  A    between atoms: C_4  and  C_5
REMARK    4  A    between atoms: C_5  and  O_7
REMARK                            x       y       z     vdW  Elec       q    Type
REMARK                         _______ _______ _______ _____ _____    ______ ____
ROOT
ATOM      1  O   UNL     1       3.147   8.808  17.855  0.00  0.00    +0.000 OA
ATOM      2  C   UNL     1       2.193   8.314  18.442  0.00  0.00    +0.000 C 
ATOM      3  N   UNL     1       2.120   6.969  18.740  0.00  0.00    +0.000 N 
ATOM      4  H   UNL     1       1.295   6.588  19.199  0.00  0.00    +0.000 HD
ENDROOT
BRANCH   2   5
ATOM      5  C   UNL     1       1.033   9.151  18.875  0.00  0.00    +0.000 A 
ATOM      6  C   UNL     1       0.233   9.728  17.873  0.00  0.00    +0.000 A 
ATOM      7  C   UNL     1      -0.842  10.539  18.215  0.00  0.00    +0.000 A 
ATOM      8  C   UNL     1      -1.133  10.771  19.552  0.00  0.00    +0.000 A 
ATOM      9  C   UNL     1      -0.375  10.184  20.576  0.00  0.00    +0.000 A 
ATOM     10  C   UNL     1      -0.715  10.426  21.921  0.00  0.00    +0.000 A 
ATOM     11  C   UNL     1       0.012   9.852  22.962  0.00  0.00    +0.000 A 
ATOM     12  C   UNL     1       1.089   9.028  22.673  0.00  0.00    +0.000 A 
ATOM     13  C   UNL     1       1.445   8.786  21.344  0.00  0.00    +0.000 A 
ATOM     14  C   UNL     1       0.729   9.348  20.255  0.00  0.00    +0.000 A 
ENDBRANCH   2   5
BRANCH   3  15
ATOM     15  C   UNL     1       3.148   5.982  18.350  0.00  0.00    +0.000 C 
ATOM     16  C   UNL     1       3.691   6.220  16.916  0.00  0.00    +0.000 C 
ATOM     17  C   UNL     1       5.086   5.681  17.037  0.00  0.00    +0.000 A 
ATOM     18  C   UNL     1       5.922   5.270  16.016  0.00  0.00    +0.000 A 
ATOM     19  C   UNL     1       7.143   4.689  16.363  0.00  0.00    +0.000 A 
ATOM     20  C   UNL     1       7.519   4.551  17.708  0.00  0.00    +0.000 A 
ATOM     21  C   UNL     1       6.681   4.993  18.731  0.00  0.00    +0.000 A 
ATOM     22  C   UNL     1       5.462   5.545  18.380  0.00  0.00    +0.000 A 
ATOM     23  C   UNL     1       4.367   5.986  19.304  0.00  0.00    +0.000 C 
BRANCH  15  24
ATOM     24  C   UNL     1       2.447   4.593  18.423  0.00  0.00    +0.000 C 
ATOM     25  O   UNL     1       2.654   3.806  19.346  0.00  0.00    +0.000 OA
BRANCH  24  26
ATOM     26  O   UNL     1       1.593   4.268  17.426  0.00  0.00    +0.000 OA
ATOM     27  H   UNL     1       0.659   4.105  17.670  0.00  0.00    +0.000 HD
ENDBRANCH  24  26
ENDBRANCH  15  24
ENDBRANCH   3  15
TORSDOF 4
ENDMDL
MODEL 5
REMARK VINA RESULT:      -7.6      2.188      7.606
REMARK  Name = 
REMARK  4 active torsions:
REMARK  status: ('A' for Active; 'I' for Inactive)
REMARK    1  A    between atoms: C_2  and  C_16
REMARK    2  A    between atoms: N_3  and  C_4
REMARK    3  A    between atoms: C_4  and  C_5
REMARK    4  A    between atoms: C_5  and  O_7
REMARK                            x       y       z     vdW  Elec       q    Type
REMARK                         _______ _______ _______ _____ _____    ______ ____
ROOT
ATOM      1  O   UNL     1       1.595   6.957  20.548  0.00  0.00    +0.000 OA
ATOM      2  C   UNL     1       1.848   7.772  19.671  0.00  0.00    +0.000 C 
ATOM      3  N   UNL     1       2.642   7.471  18.583  0.00  0.00    +0.000 N 
ATOM      4  H   UNL     1       2.858   8.185  17.891  0.00  0.00    +0.000 HD
ENDROOT
BRANCH   2   5
ATOM      5  C   UNL     1       1.306   9.163  19.728  0.00  0.00    +0.000 A 
ATOM      6  C   UNL     1       1.514   9.992  18.612  0.00  0.00    +0.000 A 
ATOM      7  C   UNL     1       1.058  11.305  18.618  0.00  0.00    +0.000 A 
ATOM      8  C   UNL     1       0.384  11.796  19.729  0.00  0.00    +0.000 A 
ATOM      9  C   UNL     1       0.131  10.985  20.845  0.00  0.00    +0.000 A 
ATOM     10  C   UNL     1      -0.575  11.512  21.943  0.00  0.00    +0.000 A 
ATOM     11  C   UNL     1      -0.850  10.732  23.064  0.00  0.00    +0.000 A 
ATOM     12  C   UNL     1      -0.423   9.413  23.103  0.00  0.00    +0.000 A 
ATOM     13  C   UNL     1       0.286   8.878  22.026  0.00  0.00    +0.000 A 
ATOM     14  C   UNL     1       0.584   9.637  20.864  0.00  0.00    +0.000 A 
ENDBRANCH   2   5
BRANCH   3  15
ATOM     15  C   UNL     1       3.301   6.164  18.381  0.00  0.00    +0.000 C 
ATOM     16  C   UNL     1       3.772   5.521  19.713  0.00  0.00    +0.000 C 
ATOM     17  C   UNL     1       3.686   4.061  19.381  0.00  0.00    +0.000 A 
ATOM     18  C   UNL     1       4.326   3.013  20.016  0.00  0.00    +0.000 A 
ATOM     19  C   UNL     1       4.197   1.736  19.466  0.00  0.00    +0.000 A 
ATOM     20  C   UNL     1       3.419   1.522  18.317  0.00  0.00    +0.000 A 
ATOM     21  C   UNL     1       2.756   2.581  17.698  0.00  0.00    +0.000 A 
ATOM     22  C   UNL     1       2.908   3.846  18.235  0.00  0.00    +0.000 A 
ATOM     23  C   UNL     1       2.380   5.135  17.682  0.00  0.00    +0.000 C 
BRANCH  15  24
ATOM     24  C   UNL     1       4.532   6.450  17.471  0.00  0.00    +0.000 C 
ATOM     25  O   UNL     1       4.410   6.901  16.333  0.00  0.00    +0.000 OA
BRANCH  24  26
ATOM     26  O   UNL     1       5.759   6.181  17.972  0.00  0.00    +0.000 OA
ATOM     27  H   UNL     1       6.457   5.926  17.335  0.00  0.00    +0.000 HD
ENDBRANCH  24  26
ENDBRANCH  15  24
ENDBRANCH   3  15
TORSDOF 4
ENDMDL
MODEL 6
REMARK VINA RESULT:      -7.5      2.295      7.942
REMARK  Name = 
REMARK  4 active torsions:
REMARK  status: ('A' for Active; 'I' for Inactive)
REMARK    1  A    between atoms: C_2  and  C_16
REMARK    2  A    between atoms: N_3  and  C_4
REMARK    3  A    between atoms: C_4  and  C_5
REMARK    4  A    between atoms: C_5  and  O_7
REMARK                            x       y       z     vdW  Elec       q    Type
REMARK                         _______ _______ _______ _____ _____    ______ ____
ROOT
ATOM      1  O   UNL     1       1.610   8.207  17.976  0.00  0.00    +0.000 OA
ATOM      2  C   UNL     1       1.843   8.050  19.167  0.00  0.00    +0.000 C 
ATOM      3  N   UNL     1       2.736   7.107  19.632  0.00  0.00    +0.000 N 
ATOM      4  H   UNL     1       2.878   6.982  20.632  0.00  0.00    +0.000 HD
ENDROOT
BRANCH   2   5
ATOM      5  C   UNL     1       1.161   8.882  20.205  0.00  0.00    +0.000 A 
ATOM      6  C   UNL     1       0.774   8.249  21.399  0.00  0.00    +0.000 A 
ATOM      7  C   UNL     1       0.111   8.964  22.389  0.00  0.00    +0.000 A 
ATOM      8  C   UNL     1      -0.161  10.313  22.201  0.00  0.00    +0.000 A 
ATOM      9  C   UNL     1       0.241  10.981  21.036  0.00  0.00    +0.000 A 
ATOM     10  C   UNL     1      -0.033  12.355  20.891  0.00  0.00    +0.000 A 
ATOM     11  C   UNL     1       0.359  13.051  19.750  0.00  0.00    +0.000 A 
ATOM     12  C   UNL     1       1.031  12.385  18.737  0.00  0.00    +0.000 A 
ATOM     13  C   UNL     1       1.303  11.020  18.861  0.00  0.00    +0.000 A 
ATOM     14  C   UNL     1       0.924  10.275  20.008  0.00  0.00    +0.000 A 
ENDBRANCH   2   5
BRANCH   3  15
ATOM     15  C   UNL     1       3.468   6.165  18.759  0.00  0.00    +0.000 C 
ATOM     16  C   UNL     1       3.790   6.770  17.367  0.00  0.00    +0.000 C 
ATOM     17  C   UNL     1       5.052   6.038  17.015  0.00  0.00    +0.000 A 
ATOM     18  C   UNL     1       5.601   5.863  15.758  0.00  0.00    +0.000 A 
ATOM     19  C   UNL     1       6.726   5.044  15.643  0.00  0.00    +0.000 A 
ATOM     20  C   UNL     1       7.294   4.438  16.775  0.00  0.00    +0.000 A 
ATOM     21  C   UNL     1       6.749   4.642  18.042  0.00  0.00    +0.000 A 
ATOM     22  C   UNL     1       5.620   5.435  18.144  0.00  0.00    +0.000 A 
ATOM     23  C   UNL     1       4.810   5.704  19.376  0.00  0.00    +0.000 C 
BRANCH  15  24
ATOM     24  C   UNL     1       2.531   4.932  18.593  0.00  0.00    +0.000 C 
ATOM     25  O   UNL     1       2.625   3.940  19.315  0.00  0.00    +0.000 OA
BRANCH  24  26
ATOM     26  O   UNL     1       1.598   4.980  17.615  0.00  0.00    +0.000 OA
ATOM     27  H   UNL     1       1.889   5.288  16.733  0.00  0.00    +0.000 HD
ENDBRANCH  24  26
ENDBRANCH  15  24
ENDBRANCH   3  15
TORSDOF 4
ENDMDL
MODEL 7
REMARK VINA RESULT:      -7.5      2.882      8.381
REMARK  Name = 
REMARK  4 active torsions:
REMARK  status: ('A' for Active; 'I' for Inactive)
REMARK    1  A    between atoms: C_2  and  C_16
REMARK    2  A    between atoms: N_3  and  C_4
REMARK    3  A    between atoms: C_4  and  C_5
REMARK    4  A    between atoms: C_5  and  O_7
REMARK                            x       y       z     vdW  Elec       q    Type
REMARK                         _______ _______ _______ _____ _____    ______ ____
ROOT
ATOM      1  O   UNL     1       2.979   7.720  17.412  0.00  0.00    +0.000 OA
ATOM      2  C   UNL     1       2.913   7.290  18.556  0.00  0.00    +0.000 C 
ATOM      3  N   UNL     1       3.714   6.263  19.011  0.00  0.00    +0.000 N 
ATOM      4  H   UNL     1       3.606   5.909  19.959  0.00  0.00    +0.000 HD
ENDROOT
BRANCH   2   5
ATOM      5  C   UNL     1       1.945   7.860  19.542  0.00  0.00    +0.000 A 
ATOM      6  C   UNL     1       1.592   7.065  20.646  0.00  0.00    +0.000 A 
ATOM      7  C   UNL     1       0.676   7.530  21.581  0.00  0.00    +0.000 A 
ATOM      8  C   UNL     1       0.114   8.790  21.428  0.00  0.00    +0.000 A 
ATOM      9  C   UNL     1       0.469   9.621  20.356  0.00  0.00    +0.000 A 
ATOM     10  C   UNL     1      -0.107  10.902  20.247  0.00  0.00    +0.000 A 
ATOM     11  C   UNL     1       0.230  11.756  19.199  0.00  0.00    +0.000 A 
ATOM     12  C   UNL     1       1.147  11.342  18.244  0.00  0.00    +0.000 A 
ATOM     13  C   UNL     1       1.720  10.071  18.333  0.00  0.00    +0.000 A 
ATOM     14  C   UNL     1       1.407   9.172  19.386  0.00  0.00    +0.000 A 
ENDBRANCH   2   5
BRANCH   3  15
ATOM     15  C   UNL     1       4.694   5.547  18.169  0.00  0.00    +0.000 C 
ATOM     16  C   UNL     1       4.019   4.605  17.137  0.00  0.00    +0.000 C 
ATOM     17  C   UNL     1       5.029   4.613  16.027  0.00  0.00    +0.000 A 
ATOM     18  C   UNL     1       5.177   3.683  15.016  0.00  0.00    +0.000 A 
ATOM     19  C   UNL     1       6.264   3.823  14.150  0.00  0.00    +0.000 A 
ATOM     20  C   UNL     1       7.163   4.893  14.290  0.00  0.00    +0.000 A 
ATOM     21  C   UNL     1       6.990   5.841  15.297  0.00  0.00    +0.000 A 
ATOM     22  C   UNL     1       5.925   5.681  16.165  0.00  0.00    +0.000 A 
ATOM     23  C   UNL     1       5.609   6.510  17.374  0.00  0.00    +0.000 C 
BRANCH  15  24
ATOM     24  C   UNL     1       5.564   4.712  19.154  0.00  0.00    +0.000 C 
ATOM     25  O   UNL     1       6.494   5.211  19.786  0.00  0.00    +0.000 OA
BRANCH  24  26
ATOM     26  O   UNL     1       5.268   3.399  19.294  0.00  0.00    +0.000 OA
ATOM     27  H   UNL     1       5.911   2.754  18.934  0.00  0.00    +0.000 HD
ENDBRANCH  24  26
ENDBRANCH  15  24
ENDBRANCH   3  15
TORSDOF 4
ENDMDL
MODEL 8
REMARK VINA RESULT:      -7.4      2.076      7.823
REMARK  Name = 
REMARK  4 active torsions:
REMARK  status: ('A' for Active; 'I' for Inactive)
REMARK    1  A    between atoms: C_2  and  C_16
REMARK    2  A    between atoms: N_3  and  C_4
REMARK    3  A    between atoms: C_4  and  C_5
REMARK    4  A    between atoms: C_5  and  O_7
REMARK                            x       y       z     vdW  Elec       q    Type
REMARK                         _______ _______ _______ _____ _____    ______ ____
ROOT
ATOM      1  O   UNL     1       2.187   8.291  19.231  0.00  0.00    +0.000 OA
ATOM      2  C   UNL     1       1.534   7.961  20.213  0.00  0.00    +0.000 C 
ATOM      3  N   UNL     1       1.492   6.661  20.673  0.00  0.00    +0.000 N 
ATOM      4  H   UNL     1       0.911   6.417  21.472  0.00  0.00    +0.000 HD
ENDROOT
BRANCH   2   5
ATOM      5  C   UNL     1       0.731   8.960  20.980  0.00  0.00    +0.000 A 
ATOM      6  C   UNL     1       0.772   8.893  22.384  0.00  0.00    +0.000 A 
ATOM      7  C   UNL     1       0.024   9.777  23.151  0.00  0.00    +0.000 A 
ATOM      8  C   UNL     1      -0.760  10.739  22.527  0.00  0.00    +0.000 A 
ATOM      9  C   UNL     1      -0.798  10.853  21.129  0.00  0.00    +0.000 A 
ATOM     10  C   UNL     1      -1.589  11.855  20.534  0.00  0.00    +0.000 A 
ATOM     11  C   UNL     1      -1.643  12.002  19.149  0.00  0.00    +0.000 A 
ATOM     12  C   UNL     1      -0.908  11.149  18.340  0.00  0.00    +0.000 A 
ATOM     13  C   UNL     1      -0.125  10.144  18.915  0.00  0.00    +0.000 A 
ATOM     14  C   UNL     1      -0.040   9.963  20.321  0.00  0.00    +0.000 A 
ENDBRANCH   2   5
BRANCH   3  15
ATOM     15  C   UNL     1       2.184   5.531  20.017  0.00  0.00    +0.000 C 
ATOM     16  C   UNL     1       1.803   5.388  18.520  0.00  0.00    +0.000 C 
ATOM     17  C   UNL     1       3.055   4.782  17.956  0.00  0.00    +0.000 A 
ATOM     18  C   UNL     1       3.192   4.081  16.773  0.00  0.00    +0.000 A 
ATOM     19  C   UNL     1       4.432   3.500  16.496  0.00  0.00    +0.000 A 
ATOM     20  C   UNL     1       5.510   3.648  17.382  0.00  0.00    +0.000 A 
ATOM     21  C   UNL     1       5.370   4.379  18.560  0.00  0.00    +0.000 A 
ATOM     22  C   UNL     1       4.132   4.930  18.839  0.00  0.00    +0.000 A 
ATOM     23  C   UNL     1       3.725   5.659  20.084  0.00  0.00    +0.000 C 
BRANCH  15  24
ATOM     24  C   UNL     1       1.742   4.258  20.797  0.00  0.00    +0.000 C 
ATOM     25  O   UNL     1       2.380   3.826  21.756  0.00  0.00    +0.000 OA
BRANCH  24  26
ATOM     26  O   UNL     1       0.620   3.626  20.382  0.00  0.00    +0.000 OA
ATOM     27  H   UNL     1       0.647   3.198  19.502  0.00  0.00    +0.000 HD
ENDBRANCH  24  26
ENDBRANCH  15  24
ENDBRANCH   3  15
TORSDOF 4
ENDMDL
MODEL 9
REMARK VINA RESULT:      -7.4      1.551      2.446
REMARK  Name = 
REMARK  4 active torsions:
REMARK  status: ('A' for Active; 'I' for Inactive)
REMARK    1  A    between atoms: C_2  and  C_16
REMARK    2  A    between atoms: N_3  and  C_4
REMARK    3  A    between atoms: C_4  and  C_5
REMARK    4  A    between atoms: C_5  and  O_7
REMARK                            x       y       z     vdW  Elec       q    Type
REMARK                         _______ _______ _______ _____ _____    ______ ____
ROOT
ATOM      1  O   UNL     1       1.281   9.119  18.122  0.00  0.00    +0.000 OA
ATOM      2  C   UNL     1       1.729   8.393  18.999  0.00  0.00    +0.000 C 
ATOM      3  N   UNL     1       1.433   8.571  20.335  0.00  0.00    +0.000 N 
ATOM      4  H   UNL     1       1.851   7.968  21.039  0.00  0.00    +0.000 HD
ENDROOT
BRANCH   2   5
ATOM      5  C   UNL     1       2.638   7.253  18.670  0.00  0.00    +0.000 A 
ATOM      6  C   UNL     1       3.608   7.457  17.673  0.00  0.00    +0.000 A 
ATOM      7  C   UNL     1       4.463   6.426  17.305  0.00  0.00    +0.000 A 
ATOM      8  C   UNL     1       4.366   5.192  17.933  0.00  0.00    +0.000 A 
ATOM      9  C   UNL     1       3.432   4.965  18.954  0.00  0.00    +0.000 A 
ATOM     10  C   UNL     1       3.378   3.707  19.582  0.00  0.00    +0.000 A 
ATOM     11  C   UNL     1       2.468   3.451  20.606  0.00  0.00    +0.000 A 
ATOM     12  C   UNL     1       1.598   4.449  21.016  0.00  0.00    +0.000 A 
ATOM     13  C   UNL     1       1.632   5.701  20.396  0.00  0.00    +0.000 A 
ATOM     14  C   UNL     1       2.546   6.004  19.353  0.00  0.00    +0.000 A 
ENDBRANCH   2   5
BRANCH   3  15
ATOM     15  C   UNL     1       0.590   9.670  20.852  0.00  0.00    +0.000 C 
ATOM     16  C   UNL     1       1.329  11.035  20.859  0.00  0.00    +0.000 C 
ATOM     17  C   UNL     1       0.184  11.988  20.681  0.00  0.00    +0.000 A 
ATOM     18  C   UNL     1       0.155  13.336  20.986  0.00  0.00    +0.000 A 
ATOM     19  C   UNL     1      -1.059  14.013  20.849  0.00  0.00    +0.000 A 
ATOM     20  C   UNL     1      -2.207  13.347  20.390  0.00  0.00    +0.000 A 
ATOM     21  C   UNL     1      -2.161  11.994  20.060  0.00  0.00    +0.000 A 
ATOM     22  C   UNL     1      -0.961  11.325  20.222  0.00  0.00    +0.000 A 
ATOM     23  C   UNL     1      -0.708   9.860  20.031  0.00  0.00    +0.000 C 
BRANCH  15  24
ATOM     24  C   UNL     1       0.220   9.264  22.309  0.00  0.00    +0.000 C 
ATOM     25  O   UNL     1       0.853   9.675  23.281  0.00  0.00    +0.000 OA
BRANCH  24  26
ATOM     26  O   UNL     1      -0.831   8.430  22.481  0.00  0.00    +0.000 OA
ATOM     27  H   UNL     1      -1.123   8.261  23.399  0.00  0.00    +0.000 HD
ENDBRANCH  24  26
ENDBRANCH  15  24
ENDBRANCH   3  15
TORSDOF 4
ENDMDL
