MODEL 1
REMARK VINA RESULT:      -5.7      0.000      0.000
REMARK  Name = 
REMARK  7 active torsions:
REMARK  status: ('A' for Active; 'I' for Inactive)
REMARK    1  A    between atoms: C_1  and  C_2
REMARK    2  A    between atoms: C_2  and  N_3
REMARK    3  A    between atoms: C_7  and  C_8
REMARK    4  A    between atoms: N_10  and  C_11
REMARK    5  A    between atoms: C_11  and  C_12
REMARK    6  A    between atoms: C_12  and  C_13
REMARK    7  A    between atoms: C_13  and  O_14
REMARK                            x       y       z     vdW  Elec       q    Type
REMARK                         _______ _______ _______ _____ _____    ______ ____
ROOT
ATOM      1  C   UNL     1       4.517   3.599  19.697  0.00  0.00    +0.000 C 
ATOM      2  O   UNL     1       4.786   2.430  19.958  0.00  0.00    +0.000 OA
ATOM      3  N   UNL     1       3.340   4.190  20.121  0.00  0.00    +0.000 N 
ATOM      4  H   UNL     1       3.193   5.156  19.837  0.00  0.00    +0.000 HD
ENDROOT
BRANCH   1   9
ATOM      5  N   UNL     1       6.923   5.876  18.429  0.00  0.00    +0.000 N 
ATOM      6  C   UNL     1       6.388   5.540  17.224  0.00  0.00    +0.000 A 
ATOM      7  C   UNL     1       5.397   4.631  17.492  0.00  0.00    +0.000 A 
ATOM      8 CL   UNL     1       4.401   3.875  16.347  0.00  0.00    +0.000 Cl
ATOM      9  C   UNL     1       5.394   4.473  18.905  0.00  0.00    +0.000 A 
ATOM     10  N   UNL     1       6.337   5.261  19.478  0.00  0.00    +0.000 NA
BRANCH   5  12
ATOM     11  C   UNL     1       7.892   8.046  17.785  0.00  0.00    +0.000 C 
ATOM     12  C   UNL     1       8.028   6.795  18.634  0.00  0.00    +0.000 C 
ENDBRANCH   5  12
ENDBRANCH   1   9
BRANCH   3  13
ATOM     13  C   UNL     1       2.349   3.461  20.878  0.00  0.00    +0.000 C 
BRANCH  13  14
ATOM     14  C   UNL     1       0.984   3.392  20.196  0.00  0.00    +0.000 C 
BRANCH  14  15
ATOM     15  C   UNL     1       0.968   2.567  18.915  0.00  0.00    +0.000 C 
BRANCH  15  16
ATOM     16  O   UNL     1       1.342   3.393  17.816  0.00  0.00    +0.000 OA
ATOM     17  H   UNL     1       2.195   3.800  18.039  0.00  0.00    +0.000 HD
ENDBRANCH  15  16
ENDBRANCH  14  15
ENDBRANCH  13  14
ENDBRANCH   3  13
TORSDOF 6
ENDMDL
MODEL 2
REMARK VINA RESULT:      -5.6      2.392      5.674
REMARK  Name = 
REMARK  7 active torsions:
REMARK  status: ('A' for Active; 'I' for Inactive)
REMARK    1  A    between atoms: C_1  and  C_2
REMARK    2  A    between atoms: C_2  and  N_3
REMARK    3  A    between atoms: C_7  and  C_8
REMARK    4  A    between atoms: N_10  and  C_11
REMARK    5  A    between atoms: C_11  and  C_12
REMARK    6  A    between atoms: C_12  and  C_13
REMARK    7  A    between atoms: C_13  and  O_14
REMARK                            x       y       z     vdW  Elec       q    Type
REMARK                         _______ _______ _______ _____ _____    ______ ____
ROOT
ATOM      1  C   UNL     1       5.493   4.604  18.197  0.00  0.00    +0.000 C 
ATOM      2  O   UNL     1       5.895   4.270  17.087  0.00  0.00    +0.000 OA
ATOM      3  N   UNL     1       6.326   5.192  19.131  0.00  0.00    +0.000 N 
ATOM      4  H   UNL     1       5.909   5.413  20.032  0.00  0.00    +0.000 HD
ENDROOT
BRANCH   1   9
ATOM      5  N   UNL     1       2.396   3.460  19.498  0.00  0.00    +0.000 N 
ATOM      6  C   UNL     1       1.955   4.692  19.127  0.00  0.00    +0.000 A 
ATOM      7  C   UNL     1       3.036   5.330  18.577  0.00  0.00    +0.000 A 
ATOM      8 CL   UNL     1       3.051   6.905  17.948  0.00  0.00    +0.000 Cl
ATOM      9  C   UNL     1       4.109   4.400  18.650  0.00  0.00    +0.000 A 
ATOM     10  N   UNL     1       3.697   3.237  19.212  0.00  0.00    +0.000 NA
BRANCH   5  12
ATOM     11  C   UNL     1       1.599   2.603  21.664  0.00  0.00    +0.000 C 
ATOM     12  C   UNL     1       1.598   2.440  20.154  0.00  0.00    +0.000 C 
ENDBRANCH   5  12
ENDBRANCH   1   9
BRANCH   3  13
ATOM     13  C   UNL     1       7.726   5.429  18.862  0.00  0.00    +0.000 C 
BRANCH  13  14
ATOM     14  C   UNL     1       8.080   6.907  18.703  0.00  0.00    +0.000 C 
BRANCH  14  15
ATOM     15  C   UNL     1       7.565   7.537  17.415  0.00  0.00    +0.000 C 
BRANCH  15  16
ATOM     16  O   UNL     1       7.552   6.556  16.381  0.00  0.00    +0.000 OA
ATOM     17  H   UNL     1       6.954   5.845  16.666  0.00  0.00    +0.000 HD
ENDBRANCH  15  16
ENDBRANCH  14  15
ENDBRANCH  13  14
ENDBRANCH   3  13
TORSDOF 6
ENDMDL
MODEL 3
REMARK VINA RESULT:      -5.6      2.525      3.097
REMARK  Name = 
REMARK  7 active torsions:
REMARK  status: ('A' for Active; 'I' for Inactive)
REMARK    1  A    between atoms: C_1  and  C_2
REMARK    2  A    between atoms: C_2  and  N_3
REMARK    3  A    between atoms: C_7  and  C_8
REMARK    4  A    between atoms: N_10  and  C_11
REMARK    5  A    between atoms: C_11  and  C_12
REMARK    6  A    between atoms: C_12  and  C_13
REMARK    7  A    between atoms: C_13  and  O_14
REMARK                            x       y       z     vdW  Elec       q    Type
REMARK                         _______ _______ _______ _____ _____    ______ ____
ROOT
ATOM      1  C   UNL     1       4.373   3.535  18.477  0.00  0.00    +0.000 C 
ATOM      2  O   UNL     1       5.056   3.276  19.464  0.00  0.00    +0.000 OA
ATOM      3  N   UNL     1       3.084   3.054  18.333  0.00  0.00    +0.000 N 
ATOM      4  H   UNL     1       2.605   3.302  17.471  0.00  0.00    +0.000 HD
ENDROOT
BRANCH   1   9
ATOM      5  N   UNL     1       5.895   4.918  15.586  0.00  0.00    +0.000 N 
ATOM      6  C   UNL     1       5.189   6.030  15.927  0.00  0.00    +0.000 A 
ATOM      7  C   UNL     1       4.500   5.703  17.067  0.00  0.00    +0.000 A 
ATOM      8 CL   UNL     1       3.452   6.723  17.925  0.00  0.00    +0.000 Cl
ATOM      9  C   UNL     1       4.852   4.357  17.356  0.00  0.00    +0.000 A 
ATOM     10  N   UNL     1       5.730   3.883  16.437  0.00  0.00    +0.000 NA
BRANCH   5  12
ATOM     11  C   UNL     1       6.184   3.820  13.402  0.00  0.00    +0.000 C 
ATOM     12  C   UNL     1       6.754   4.788  14.423  0.00  0.00    +0.000 C 
ENDBRANCH   5  12
ENDBRANCH   1   9
BRANCH   3  13
ATOM     13  C   UNL     1       2.473   2.200  19.324  0.00  0.00    +0.000 C 
BRANCH  13  14
ATOM     14  C   UNL     1       1.327   2.863  20.086  0.00  0.00    +0.000 C 
BRANCH  14  15
ATOM     15  C   UNL     1       1.652   3.195  21.536  0.00  0.00    +0.000 C 
BRANCH  15  16
ATOM     16  O   UNL     1       2.820   2.484  21.934  0.00  0.00    +0.000 OA
ATOM     17  H   UNL     1       2.714   2.258  22.873  0.00  0.00    +0.000 HD
ENDBRANCH  15  16
ENDBRANCH  14  15
ENDBRANCH  13  14
ENDBRANCH   3  13
TORSDOF 6
ENDMDL
MODEL 4
REMARK VINA RESULT:      -5.6      4.398      6.155
REMARK  Name = 
REMARK  7 active torsions:
REMARK  status: ('A' for Active; 'I' for Inactive)
REMARK    1  A    between atoms: C_1  and  C_2
REMARK    2  A    between atoms: C_2  and  N_3
REMARK    3  A    between atoms: C_7  and  C_8
REMARK    4  A    between atoms: N_10  and  C_11
REMARK    5  A    between atoms: C_11  and  C_12
REMARK    6  A    between atoms: C_12  and  C_13
REMARK    7  A    between atoms: C_13  and  O_14
REMARK                            x       y       z     vdW  Elec       q    Type
REMARK                         _______ _______ _______ _____ _____    ______ ____
ROOT
ATOM      1  C   UNL     1       6.429   4.575  15.334  0.00  0.00    +0.000 C 
ATOM      2  O   UNL     1       7.315   5.389  15.091  0.00  0.00    +0.000 OA
ATOM      3  N   UNL     1       5.979   3.678  14.382  0.00  0.00    +0.000 N 
ATOM      4  H   UNL     1       5.225   3.057  14.667  0.00  0.00    +0.000 HD
ENDROOT
BRANCH   1   9
ATOM      5  N   UNL     1       4.205   4.212  18.074  0.00  0.00    +0.000 N 
ATOM      6  C   UNL     1       5.319   4.445  18.818  0.00  0.00    +0.000 A 
ATOM      7  C   UNL     1       6.341   4.621  17.921  0.00  0.00    +0.000 A 
ATOM      8 CL   UNL     1       7.962   4.940  18.306  0.00  0.00    +0.000 Cl
ATOM      9  C   UNL     1       5.752   4.481  16.635  0.00  0.00    +0.000 A 
ATOM     10  N   UNL     1       4.421   4.240  16.742  0.00  0.00    +0.000 NA
BRANCH   5  12
ATOM     11  C   UNL     1       1.792   4.235  17.583  0.00  0.00    +0.000 C 
ATOM     12  C   UNL     1       2.880   3.940  18.601  0.00  0.00    +0.000 C 
ENDBRANCH   5  12
ENDBRANCH   1   9
BRANCH   3  13
ATOM     13  C   UNL     1       6.510   3.661  13.038  0.00  0.00    +0.000 C 
BRANCH  13  14
ATOM     14  C   UNL     1       5.514   3.171  11.989  0.00  0.00    +0.000 C 
BRANCH  14  15
ATOM     15  C   UNL     1       5.838   1.799  11.413  0.00  0.00    +0.000 C 
BRANCH  15  16
ATOM     16  O   UNL     1       7.251   1.656  11.298  0.00  0.00    +0.000 OA
ATOM     17  H   UNL     1       7.655   2.423  11.736  0.00  0.00    +0.000 HD
ENDBRANCH  15  16
ENDBRANCH  14  15
ENDBRANCH  13  14
ENDBRANCH   3  13
TORSDOF 6
ENDMDL
MODEL 5
REMARK VINA RESULT:      -5.5      2.184      2.697
REMARK  Name = 
REMARK  7 active torsions:
REMARK  status: ('A' for Active; 'I' for Inactive)
REMARK    1  A    between atoms: C_1  and  C_2
REMARK    2  A    between atoms: C_2  and  N_3
REMARK    3  A    between atoms: C_7  and  C_8
REMARK    4  A    between atoms: N_10  and  C_11
REMARK    5  A    between atoms: C_11  and  C_12
REMARK    6  A    between atoms: C_12  and  C_13
REMARK    7  A    between atoms: C_13  and  O_14
REMARK                            x       y       z     vdW  Elec       q    Type
REMARK                         _______ _______ _______ _____ _____    ______ ____
ROOT
ATOM      1  C   UNL     1       4.455   4.122  18.831  0.00  0.00    +0.000 C 
ATOM      2  O   UNL     1       5.186   3.432  19.535  0.00  0.00    +0.000 OA
ATOM      3  N   UNL     1       3.125   4.336  19.145  0.00  0.00    +0.000 N 
ATOM      4  H   UNL     1       2.592   4.902  18.489  0.00  0.00    +0.000 HD
ENDROOT
BRANCH   1   9
ATOM      5  N   UNL     1       5.913   5.066  15.737  0.00  0.00    +0.000 N 
ATOM      6  C   UNL     1       5.193   6.207  15.916  0.00  0.00    +0.000 A 
ATOM      7  C   UNL     1       4.525   6.049  17.103  0.00  0.00    +0.000 A 
ATOM      8 CL   UNL     1       3.473   7.174  17.812  0.00  0.00    +0.000 Cl
ATOM      9  C   UNL     1       4.905   4.768  17.589  0.00  0.00    +0.000 A 
ATOM     10  N   UNL     1       5.777   4.172  16.739  0.00  0.00    +0.000 NA
BRANCH   5  12
ATOM     11  C   UNL     1       6.071   3.847  13.604  0.00  0.00    +0.000 C 
ATOM     12  C   UNL     1       6.758   4.772  14.594  0.00  0.00    +0.000 C 
ENDBRANCH   5  12
ENDBRANCH   1   9
BRANCH   3  13
ATOM     13  C   UNL     1       2.512   3.742  20.311  0.00  0.00    +0.000 C 
BRANCH  13  14
ATOM     14  C   UNL     1       1.090   3.240  20.069  0.00  0.00    +0.000 C 
BRANCH  14  15
ATOM     15  C   UNL     1       0.906   2.499  18.751  0.00  0.00    +0.000 C 
BRANCH  15  16
ATOM     16  O   UNL     1       1.963   1.558  18.585  0.00  0.00    +0.000 OA
ATOM     17  H   UNL     1       2.729   1.897  19.076  0.00  0.00    +0.000 HD
ENDBRANCH  15  16
ENDBRANCH  14  15
ENDBRANCH  13  14
ENDBRANCH   3  13
TORSDOF 6
ENDMDL
MODEL 6
REMARK VINA RESULT:      -5.5      1.084      1.226
REMARK  Name = 
REMARK  7 active torsions:
REMARK  status: ('A' for Active; 'I' for Inactive)
REMARK    1  A    between atoms: C_1  and  C_2
REMARK    2  A    between atoms: C_2  and  N_3
REMARK    3  A    between atoms: C_7  and  C_8
REMARK    4  A    between atoms: N_10  and  C_11
REMARK    5  A    between atoms: C_11  and  C_12
REMARK    6  A    between atoms: C_12  and  C_13
REMARK    7  A    between atoms: C_13  and  O_14
REMARK                            x       y       z     vdW  Elec       q    Type
REMARK                         _______ _______ _______ _____ _____    ______ ____
ROOT
ATOM      1  C   UNL     1       4.405   3.179  19.764  0.00  0.00    +0.000 C 
ATOM      2  O   UNL     1       4.920   2.138  20.162  0.00  0.00    +0.000 OA
ATOM      3  N   UNL     1       3.264   3.700  20.347  0.00  0.00    +0.000 N 
ATOM      4  H   UNL     1       2.896   4.554  19.934  0.00  0.00    +0.000 HD
ENDROOT
BRANCH   1   9
ATOM      5  N   UNL     1       6.223   5.193  17.478  0.00  0.00    +0.000 N 
ATOM      6  C   UNL     1       5.185   4.920  16.642  0.00  0.00    +0.000 A 
ATOM      7  C   UNL     1       4.328   4.121  17.353  0.00  0.00    +0.000 A 
ATOM      8 CL   UNL     1       2.864   3.479  16.789  0.00  0.00    +0.000 Cl
ATOM      9  C   UNL     1       4.927   3.958  18.632  0.00  0.00    +0.000 A 
ATOM     10  N   UNL     1       6.098   4.640  18.703  0.00  0.00    +0.000 NA
BRANCH   5  12
ATOM     11  C   UNL     1       7.834   6.863  18.302  0.00  0.00    +0.000 C 
ATOM     12  C   UNL     1       7.390   5.988  17.143  0.00  0.00    +0.000 C 
ENDBRANCH   5  12
ENDBRANCH   1   9
BRANCH   3  13
ATOM     13  C   UNL     1       2.599   3.039  21.446  0.00  0.00    +0.000 C 
BRANCH  13  14
ATOM     14  C   UNL     1       1.142   2.683  21.158  0.00  0.00    +0.000 C 
BRANCH  14  15
ATOM     15  C   UNL     1       0.763   2.749  19.684  0.00  0.00    +0.000 C 
BRANCH  15  16
ATOM     16  O   UNL     1       1.328   1.634  19.001  0.00  0.00    +0.000 OA
ATOM     17  H   UNL     1       1.827   1.982  18.244  0.00  0.00    +0.000 HD
ENDBRANCH  15  16
ENDBRANCH  14  15
ENDBRANCH  13  14
ENDBRANCH   3  13
TORSDOF 6
ENDMDL
MODEL 7
REMARK VINA RESULT:      -5.4      2.462      3.188
REMARK  Name = 
REMARK  7 active torsions:
REMARK  status: ('A' for Active; 'I' for Inactive)
REMARK    1  A    between atoms: C_1  and  C_2
REMARK    2  A    between atoms: C_2  and  N_3
REMARK    3  A    between atoms: C_7  and  C_8
REMARK    4  A    between atoms: N_10  and  C_11
REMARK    5  A    between atoms: C_11  and  C_12
REMARK    6  A    between atoms: C_12  and  C_13
REMARK    7  A    between atoms: C_13  and  O_14
REMARK                            x       y       z     vdW  Elec       q    Type
REMARK                         _______ _______ _______ _____ _____    ______ ____
ROOT
ATOM      1  C   UNL     1       3.786   3.565  17.975  0.00  0.00    +0.000 C 
ATOM      2  O   UNL     1       3.628   2.363  18.167  0.00  0.00    +0.000 OA
ATOM      3  N   UNL     1       2.857   4.500  18.394  0.00  0.00    +0.000 N 
ATOM      4  H   UNL     1       3.061   5.471  18.170  0.00  0.00    +0.000 HD
ENDROOT
BRANCH   1   9
ATOM      5  N   UNL     1       6.286   4.634  15.697  0.00  0.00    +0.000 N 
ATOM      6  C   UNL     1       6.851   5.185  16.806  0.00  0.00    +0.000 A 
ATOM      7  C   UNL     1       6.013   4.879  17.847  0.00  0.00    +0.000 A 
ATOM      8 CL   UNL     1       6.234   5.324  19.468  0.00  0.00    +0.000 Cl
ATOM      9  C   UNL     1       4.951   4.126  17.276  0.00  0.00    +0.000 A 
ATOM     10  N   UNL     1       5.137   3.969  15.942  0.00  0.00    +0.000 NA
BRANCH   5  12
ATOM     11  C   UNL     1       6.104   3.781  13.395  0.00  0.00    +0.000 C 
ATOM     12  C   UNL     1       6.813   4.727  14.348  0.00  0.00    +0.000 C 
ENDBRANCH   5  12
ENDBRANCH   1   9
BRANCH   3  13
ATOM     13  C   UNL     1       1.635   4.116  19.063  0.00  0.00    +0.000 C 
BRANCH  13  14
ATOM     14  C   UNL     1       1.698   4.250  20.583  0.00  0.00    +0.000 C 
BRANCH  14  15
ATOM     15  C   UNL     1       1.475   2.944  21.334  0.00  0.00    +0.000 C 
BRANCH  15  16
ATOM     16  O   UNL     1       2.665   2.591  22.033  0.00  0.00    +0.000 OA
ATOM     17  H   UNL     1       3.101   1.889  21.523  0.00  0.00    +0.000 HD
ENDBRANCH  15  16
ENDBRANCH  14  15
ENDBRANCH  13  14
ENDBRANCH   3  13
TORSDOF 6
ENDMDL
MODEL 8
REMARK VINA RESULT:      -5.4      2.305      2.880
REMARK  Name = 
REMARK  7 active torsions:
REMARK  status: ('A' for Active; 'I' for Inactive)
REMARK    1  A    between atoms: C_1  and  C_2
REMARK    2  A    between atoms: C_2  and  N_3
REMARK    3  A    between atoms: C_7  and  C_8
REMARK    4  A    between atoms: N_10  and  C_11
REMARK    5  A    between atoms: C_11  and  C_12
REMARK    6  A    between atoms: C_12  and  C_13
REMARK    7  A    between atoms: C_13  and  O_14
REMARK                            x       y       z     vdW  Elec       q    Type
REMARK                         _______ _______ _______ _____ _____    ______ ____
ROOT
ATOM      1  C   UNL     1       4.694   3.771  19.019  0.00  0.00    +0.000 C 
ATOM      2  O   UNL     1       5.231   3.048  19.853  0.00  0.00    +0.000 OA
ATOM      3  N   UNL     1       3.423   4.283  19.205  0.00  0.00    +0.000 N 
ATOM      4  H   UNL     1       3.051   4.853  18.449  0.00  0.00    +0.000 HD
ENDROOT
BRANCH   1   9
ATOM      5  N   UNL     1       5.635   4.388  15.654  0.00  0.00    +0.000 N 
ATOM      6  C   UNL     1       6.731   4.960  16.221  0.00  0.00    +0.000 A 
ATOM      7  C   UNL     1       6.568   4.827  17.576  0.00  0.00    +0.000 A 
ATOM      8 CL   UNL     1       7.643   5.371  18.769  0.00  0.00    +0.000 Cl
ATOM      9  C   UNL     1       5.330   4.149  17.748  0.00  0.00    +0.000 A 
ATOM     10  N   UNL     1       4.765   3.870  16.547  0.00  0.00    +0.000 NA
BRANCH   5  12
ATOM     11  C   UNL     1       6.610   4.002  13.427  0.00  0.00    +0.000 C 
ATOM     12  C   UNL     1       5.361   4.319  14.230  0.00  0.00    +0.000 C 
ENDBRANCH   5  12
ENDBRANCH   1   9
BRANCH   3  13
ATOM     13  C   UNL     1       2.642   3.979  20.381  0.00  0.00    +0.000 C 
BRANCH  13  14
ATOM     14  C   UNL     1       1.227   3.495  20.072  0.00  0.00    +0.000 C 
BRANCH  14  15
ATOM     15  C   UNL     1       1.098   2.747  18.751  0.00  0.00    +0.000 C 
BRANCH  15  16
ATOM     16  O   UNL     1       1.904   1.573  18.792  0.00  0.00    +0.000 OA
ATOM     17  H   UNL     1       1.308   0.819  18.935  0.00  0.00    +0.000 HD
ENDBRANCH  15  16
ENDBRANCH  14  15
ENDBRANCH  13  14
ENDBRANCH   3  13
TORSDOF 6
ENDMDL
MODEL 9
REMARK VINA RESULT:      -5.4      2.618      3.193
REMARK  Name = 
REMARK  7 active torsions:
REMARK  status: ('A' for Active; 'I' for Inactive)
REMARK    1  A    between atoms: C_1  and  C_2
REMARK    2  A    between atoms: C_2  and  N_3
REMARK    3  A    between atoms: C_7  and  C_8
REMARK    4  A    between atoms: N_10  and  C_11
REMARK    5  A    between atoms: C_11  and  C_12
REMARK    6  A    between atoms: C_12  and  C_13
REMARK    7  A    between atoms: C_13  and  O_14
REMARK                            x       y       z     vdW  Elec       q    Type
REMARK                         _______ _______ _______ _____ _____    ______ ____
ROOT
ATOM      1  C   UNL     1       3.215   3.640  17.660  0.00  0.00    +0.000 C 
ATOM      2  O   UNL     1       2.033   3.551  17.343  0.00  0.00    +0.000 OA
ATOM      3  N   UNL     1       3.731   2.973  18.757  0.00  0.00    +0.000 N 
ATOM      4  H   UNL     1       4.717   3.127  18.955  0.00  0.00    +0.000 HD
ENDROOT
BRANCH   1   9
ATOM      5  N   UNL     1       5.764   5.000  15.600  0.00  0.00    +0.000 N 
ATOM      6  C   UNL     1       5.365   6.183  16.142  0.00  0.00    +0.000 A 
ATOM      7  C   UNL     1       4.344   5.876  17.005  0.00  0.00    +0.000 A 
ATOM      8 CL   UNL     1       3.472   6.981  17.950  0.00  0.00    +0.000 Cl
ATOM      9  C   UNL     1       4.188   4.465  16.929  0.00  0.00    +0.000 A 
ATOM     10  N   UNL     1       5.084   3.930  16.063  0.00  0.00    +0.000 NA
BRANCH   5  12
ATOM     11  C   UNL     1       6.367   3.948  13.458  0.00  0.00    +0.000 C 
ATOM     12  C   UNL     1       6.809   4.838  14.606  0.00  0.00    +0.000 C 
ENDBRANCH   5  12
ENDBRANCH   1   9
BRANCH   3  13
ATOM     13  C   UNL     1       2.904   2.150  19.607  0.00  0.00    +0.000 C 
BRANCH  13  14
ATOM     14  C   UNL     1       2.698   2.724  21.008  0.00  0.00    +0.000 C 
BRANCH  14  15
ATOM     15  C   UNL     1       1.270   3.169  21.296  0.00  0.00    +0.000 C 
BRANCH  15  16
ATOM     16  O   UNL     1       0.588   3.396  20.067  0.00  0.00    +0.000 OA
ATOM     17  H   UNL     1      -0.364   3.366  20.256  0.00  0.00    +0.000 HD
ENDBRANCH  15  16
ENDBRANCH  14  15
ENDBRANCH  13  14
ENDBRANCH   3  13
TORSDOF 6
ENDMDL
