MODEL 1
REMARK VINA RESULT:      -7.8      0.000      0.000
REMARK  Name = 
REMARK  5 active torsions:
REMARK  status: ('A' for Active; 'I' for Inactive)
REMARK    1  A    between atoms: C_1  and  O_2
REMARK    2  A    between atoms: O_2  and  C_3
REMARK    3  A    between atoms: C_7  and  C_8
REMARK    4  A    between atoms: C_8  and  N_9
REMARK    5  A    between atoms: N_18  and  C_19
REMARK                            x       y       z     vdW  Elec       q    Type
REMARK                         _______ _______ _______ _____ _____    ______ ____
ROOT
ATOM      1  N   UNL     1       2.343   8.599  18.606  0.00  0.00    +0.000 NA
ATOM      2  C   UNL     1       1.864   7.908  19.858  0.00  0.00    +0.000 C 
ATOM      3  C   UNL     1       0.843   8.844  20.279  0.00  0.00    +0.000 C 
ATOM      4  C   UNL     1      -0.212   9.716  20.816  0.00  0.00    +0.000 C 
ATOM      5  N   UNL     1      -0.217  10.818  19.780  0.00  0.00    +0.000 N 
ATOM      6  C   UNL     1       1.059  11.301  19.319  0.00  0.00    +0.000 A 
ATOM      7  C   UNL     1       0.954  12.674  19.126  0.00  0.00    +0.000 A 
ATOM      8  C   UNL     1       0.904  13.744  20.343  0.00  0.00    +0.000 A 
ATOM      9  O   UNL     1       1.510  13.610  21.394  0.00  0.00    +0.000 OA
ATOM     10  N   UNL     1      -0.012  14.794  19.959  0.00  0.00    +0.000 N 
ATOM     11  N   UNL     1      -0.521  14.473  18.673  0.00  0.00    +0.000 N 
ATOM     12  C   UNL     1      -0.300  13.112  18.447  0.00  0.00    +0.000 A 
ATOM     13  C   UNL     1      -1.267  12.251  18.131  0.00  0.00    +0.000 A 
ATOM     14  C   UNL     1      -1.238  10.920  18.825  0.00  0.00    +0.000 A 
ATOM     15  O   UNL     1      -2.115  10.090  18.615  0.00  0.00    +0.000 OA
ATOM     16  C   UNL     1       1.773  10.067  18.191  0.00  0.00    +0.000 C 
ATOM     17  H   UNL     1      -1.520  14.708  18.611  0.00  0.00    +0.000 HD
ENDROOT
BRANCH  10  18
ATOM     18  C   UNL     1      -0.586  15.922  20.717  0.00  0.00    +0.000 A 
ATOM     19  C   UNL     1      -0.134  17.250  20.514  0.00  0.00    +0.000 A 
ATOM     20  C   UNL     1      -0.676  18.384  21.196  0.00  0.00    +0.000 A 
ATOM     21  C   UNL     1      -1.681  18.223  22.139  0.00  0.00    +0.000 A 
ATOM     22  C   UNL     1      -2.140  16.938  22.390  0.00  0.00    +0.000 A 
ATOM     23  C   UNL     1      -1.616  15.813  21.701  0.00  0.00    +0.000 A 
ATOM     24 CL   UNL     1      -2.309  14.312  22.232  0.00  0.00    +0.000 Cl
ENDBRANCH  10  18
BRANCH   1  25
ATOM     25  C   UNL     1       2.783   7.589  17.577  0.00  0.00    +0.000 C 
BRANCH  25  30
ATOM     26  C   UNL     1       5.241   4.641  18.427  0.00  0.00    +0.000 A 
ATOM     27  C   UNL     1       4.386   3.544  18.387  0.00  0.00    +0.000 A 
ATOM     28  C   UNL     1       3.027   3.734  18.127  0.00  0.00    +0.000 A 
ATOM     29  C   UNL     1       2.503   5.020  17.903  0.00  0.00    +0.000 A 
ATOM     30  C   UNL     1       3.316   6.159  17.948  0.00  0.00    +0.000 A 
ATOM     31  C   UNL     1       4.704   5.937  18.223  0.00  0.00    +0.000 A 
BRANCH  26  33
ATOM     32  C   UNL     1       7.520   4.661  17.724  0.00  0.00    +0.000 C 
ATOM     33  O   UNL     1       6.543   4.320  18.699  0.00  0.00    +0.000 OA
ENDBRANCH  26  33
ENDBRANCH  25  30
ENDBRANCH   1  25
TORSDOF 4
ENDMDL
MODEL 2
REMARK VINA RESULT:      -7.7      0.971      1.222
REMARK  Name = 
REMARK  5 active torsions:
REMARK  status: ('A' for Active; 'I' for Inactive)
REMARK    1  A    between atoms: C_1  and  O_2
REMARK    2  A    between atoms: O_2  and  C_3
REMARK    3  A    between atoms: C_7  and  C_8
REMARK    4  A    between atoms: C_8  and  N_9
REMARK    5  A    between atoms: N_18  and  C_19
REMARK                            x       y       z     vdW  Elec       q    Type
REMARK                         _______ _______ _______ _____ _____    ______ ____
ROOT
ATOM      1  N   UNL     1       2.338   8.574  18.610  0.00  0.00    +0.000 NA
ATOM      2  C   UNL     1       1.874   7.889  19.871  0.00  0.00    +0.000 C 
ATOM      3  C   UNL     1       0.851   8.822  20.294  0.00  0.00    +0.000 C 
ATOM      4  C   UNL     1      -0.205   9.691  20.833  0.00  0.00    +0.000 C 
ATOM      5  N   UNL     1      -0.225  10.786  19.790  0.00  0.00    +0.000 N 
ATOM      6  C   UNL     1       1.044  11.274  19.314  0.00  0.00    +0.000 A 
ATOM      7  C   UNL     1       0.929  12.644  19.113  0.00  0.00    +0.000 A 
ATOM      8  C   UNL     1       0.883  13.723  20.322  0.00  0.00    +0.000 A 
ATOM      9  O   UNL     1       1.499  13.600  21.370  0.00  0.00    +0.000 OA
ATOM     10  N   UNL     1      -0.043  14.765  19.940  0.00  0.00    +0.000 N 
ATOM     11  N   UNL     1      -0.561  14.432  18.660  0.00  0.00    +0.000 N 
ATOM     12  C   UNL     1      -0.334  13.070  18.442  0.00  0.00    +0.000 A 
ATOM     13  C   UNL     1      -1.298  12.201  18.140  0.00  0.00    +0.000 A 
ATOM     14  C   UNL     1      -1.255  10.875  18.843  0.00  0.00    +0.000 A 
ATOM     15  O   UNL     1      -2.128  10.038  18.647  0.00  0.00    +0.000 OA
ATOM     16  C   UNL     1       1.755  10.036  18.189  0.00  0.00    +0.000 C 
ATOM     17  H   UNL     1      -1.561  14.660  18.605  0.00  0.00    +0.000 HD
ENDROOT
BRANCH  10  18
ATOM     18  C   UNL     1      -0.617  15.894  20.694  0.00  0.00    +0.000 A 
ATOM     19  C   UNL     1      -2.003  15.955  20.986  0.00  0.00    +0.000 A 
ATOM     20  C   UNL     1      -2.608  17.008  21.741  0.00  0.00    +0.000 A 
ATOM     21  C   UNL     1      -1.842  18.066  22.210  0.00  0.00    +0.000 A 
ATOM     22  C   UNL     1      -0.484  18.064  21.928  0.00  0.00    +0.000 A 
ATOM     23  C   UNL     1       0.121  17.010  21.195  0.00  0.00    +0.000 A 
ATOM     24 CL   UNL     1       1.818  17.263  20.923  0.00  0.00    +0.000 Cl
ENDBRANCH  10  18
BRANCH   1  25
ATOM     25  C   UNL     1       2.775   7.559  17.584  0.00  0.00    +0.000 C 
BRANCH  25  30
ATOM     26  C   UNL     1       5.231   4.610  18.438  0.00  0.00    +0.000 A 
ATOM     27  C   UNL     1       4.373   3.515  18.407  0.00  0.00    +0.000 A 
ATOM     28  C   UNL     1       3.013   3.707  18.153  0.00  0.00    +0.000 A 
ATOM     29  C   UNL     1       2.491   4.993  17.925  0.00  0.00    +0.000 A 
ATOM     30  C   UNL     1       3.307   6.130  17.959  0.00  0.00    +0.000 A 
ATOM     31  C   UNL     1       4.696   5.906  18.230  0.00  0.00    +0.000 A 
BRANCH  26  33
ATOM     32  C   UNL     1       7.513   4.669  17.748  0.00  0.00    +0.000 C 
ATOM     33  O   UNL     1       6.533   4.288  18.706  0.00  0.00    +0.000 OA
ENDBRANCH  26  33
ENDBRANCH  25  30
ENDBRANCH   1  25
TORSDOF 4
ENDMDL
MODEL 3
REMARK VINA RESULT:      -7.7      1.346      1.686
REMARK  Name = 
REMARK  5 active torsions:
REMARK  status: ('A' for Active; 'I' for Inactive)
REMARK    1  A    between atoms: C_1  and  O_2
REMARK    2  A    between atoms: O_2  and  C_3
REMARK    3  A    between atoms: C_7  and  C_8
REMARK    4  A    between atoms: C_8  and  N_9
REMARK    5  A    between atoms: N_18  and  C_19
REMARK                            x       y       z     vdW  Elec       q    Type
REMARK                         _______ _______ _______ _____ _____    ______ ____
ROOT
ATOM      1  N   UNL     1       2.339   8.448  18.836  0.00  0.00    +0.000 NA
ATOM      2  C   UNL     1       1.816   7.816  20.102  0.00  0.00    +0.000 C 
ATOM      3  C   UNL     1       0.784   8.771  20.445  0.00  0.00    +0.000 C 
ATOM      4  C   UNL     1      -0.289   9.666  20.904  0.00  0.00    +0.000 C 
ATOM      5  N   UNL     1      -0.256  10.719  19.819  0.00  0.00    +0.000 N 
ATOM      6  C   UNL     1       1.035  11.181  19.379  0.00  0.00    +0.000 A 
ATOM      7  C   UNL     1       0.938  12.543  19.120  0.00  0.00    +0.000 A 
ATOM      8  C   UNL     1       0.848  13.669  20.283  0.00  0.00    +0.000 A 
ATOM      9  O   UNL     1       1.419  13.583  21.360  0.00  0.00    +0.000 OA
ATOM     10  N   UNL     1      -0.053  14.700  19.821  0.00  0.00    +0.000 N 
ATOM     11  N   UNL     1      -0.518  14.319  18.534  0.00  0.00    +0.000 N 
ATOM     12  C   UNL     1      -0.292  12.949  18.379  0.00  0.00    +0.000 A 
ATOM     13  C   UNL     1      -1.248  12.074  18.071  0.00  0.00    +0.000 A 
ATOM     14  C   UNL     1      -1.244  10.776  18.826  0.00  0.00    +0.000 A 
ATOM     15  O   UNL     1      -2.115   9.937  18.625  0.00  0.00    +0.000 OA
ATOM     16  C   UNL     1       1.785   9.896  18.335  0.00  0.00    +0.000 C 
ATOM     17  H   UNL     1      -1.514  14.550  18.427  0.00  0.00    +0.000 HD
ENDROOT
BRANCH  10  18
ATOM     18  C   UNL     1      -0.651  15.861  20.506  0.00  0.00    +0.000 A 
ATOM     19  C   UNL     1      -1.435  15.701  21.676  0.00  0.00    +0.000 A 
ATOM     20  C   UNL     1      -2.011  16.792  22.398  0.00  0.00    +0.000 A 
ATOM     21  C   UNL     1      -1.845  18.096  21.953  0.00  0.00    +0.000 A 
ATOM     22  C   UNL     1      -1.105  18.301  20.797  0.00  0.00    +0.000 A 
ATOM     23  C   UNL     1      -0.518  17.221  20.089  0.00  0.00    +0.000 A 
ATOM     24 CL   UNL     1       0.307  17.727  18.647  0.00  0.00    +0.000 Cl
ENDBRANCH  10  18
BRANCH   1  25
ATOM     25  C   UNL     1       2.812   7.392  17.871  0.00  0.00    +0.000 C 
BRANCH  25  30
ATOM     26  C   UNL     1       3.971   3.800  18.969  0.00  0.00    +0.000 A 
ATOM     27  C   UNL     1       2.884   3.024  18.580  0.00  0.00    +0.000 A 
ATOM     28  C   UNL     1       1.768   3.635  18.003  0.00  0.00    +0.000 A 
ATOM     29  C   UNL     1       1.723   5.027  17.806  0.00  0.00    +0.000 A 
ATOM     30  C   UNL     1       2.783   5.856  18.194  0.00  0.00    +0.000 A 
ATOM     31  C   UNL     1       3.911   5.205  18.790  0.00  0.00    +0.000 A 
BRANCH  26  33
ATOM     32  C   UNL     1       4.645   1.983  20.359  0.00  0.00    +0.000 C 
ATOM     33  O   UNL     1       4.994   3.082  19.528  0.00  0.00    +0.000 OA
ENDBRANCH  26  33
ENDBRANCH  25  30
ENDBRANCH   1  25
TORSDOF 4
ENDMDL
MODEL 4
REMARK VINA RESULT:      -7.6      0.969      1.110
REMARK  Name = 
REMARK  5 active torsions:
REMARK  status: ('A' for Active; 'I' for Inactive)
REMARK    1  A    between atoms: C_1  and  O_2
REMARK    2  A    between atoms: O_2  and  C_3
REMARK    3  A    between atoms: C_7  and  C_8
REMARK    4  A    between atoms: C_8  and  N_9
REMARK    5  A    between atoms: N_18  and  C_19
REMARK                            x       y       z     vdW  Elec       q    Type
REMARK                         _______ _______ _______ _____ _____    ______ ____
ROOT
ATOM      1  N   UNL     1       2.299   8.519  18.850  0.00  0.00    +0.000 NA
ATOM      2  C   UNL     1       1.799   7.901  20.132  0.00  0.00    +0.000 C 
ATOM      3  C   UNL     1       0.785   8.869  20.492  0.00  0.00    +0.000 C 
ATOM      4  C   UNL     1      -0.266   9.779  20.970  0.00  0.00    +0.000 C 
ATOM      5  N   UNL     1      -0.248  10.825  19.878  0.00  0.00    +0.000 N 
ATOM      6  C   UNL     1       1.038  11.270  19.405  0.00  0.00    +0.000 A 
ATOM      7  C   UNL     1       0.950  12.631  19.139  0.00  0.00    +0.000 A 
ATOM      8  C   UNL     1       0.899  13.765  20.296  0.00  0.00    +0.000 A 
ATOM      9  O   UNL     1       1.494  13.680  21.360  0.00  0.00    +0.000 OA
ATOM     10  N   UNL     1      -0.001  14.803  19.848  0.00  0.00    +0.000 N 
ATOM     11  N   UNL     1      -0.500  14.419  18.575  0.00  0.00    +0.000 N 
ATOM     12  C   UNL     1      -0.293  13.045  18.424  0.00  0.00    +0.000 A 
ATOM     13  C   UNL     1      -1.266  12.179  18.144  0.00  0.00    +0.000 A 
ATOM     14  C   UNL     1      -1.258  10.887  18.908  0.00  0.00    +0.000 A 
ATOM     15  O   UNL     1      -2.142  10.056  18.733  0.00  0.00    +0.000 OA
ATOM     16  C   UNL     1       1.749   9.970  18.352  0.00  0.00    +0.000 C 
ATOM     17  H   UNL     1      -1.496  14.661  18.490  0.00  0.00    +0.000 HD
ENDROOT
BRANCH  10  18
ATOM     18  C   UNL     1      -0.570  15.975  20.539  0.00  0.00    +0.000 A 
ATOM     19  C   UNL     1       0.171  17.175  20.684  0.00  0.00    +0.000 A 
ATOM     20  C   UNL     1      -0.341  18.351  21.315  0.00  0.00    +0.000 A 
ATOM     21  C   UNL     1      -1.619  18.359  21.855  0.00  0.00    +0.000 A 
ATOM     22  C   UNL     1      -2.375  17.199  21.759  0.00  0.00    +0.000 A 
ATOM     23  C   UNL     1      -1.874  16.036  21.118  0.00  0.00    +0.000 A 
ATOM     24 CL   UNL     1      -2.983  14.701  21.178  0.00  0.00    +0.000 Cl
ENDBRANCH  10  18
BRANCH   1  25
ATOM     25  C   UNL     1       2.738   7.452  17.881  0.00  0.00    +0.000 C 
BRANCH  25  30
ATOM     26  C   UNL     1       3.948   3.909  19.079  0.00  0.00    +0.000 A 
ATOM     27  C   UNL     1       2.895   3.099  18.666  0.00  0.00    +0.000 A 
ATOM     28  C   UNL     1       1.785   3.672  18.042  0.00  0.00    +0.000 A 
ATOM     29  C   UNL     1       1.711   5.058  17.820  0.00  0.00    +0.000 A 
ATOM     30  C   UNL     1       2.736   5.920  18.229  0.00  0.00    +0.000 A 
ATOM     31  C   UNL     1       3.859   5.308  18.874  0.00  0.00    +0.000 A 
BRANCH  26  33
ATOM     32  C   UNL     1       4.662   1.962  20.259  0.00  0.00    +0.000 C 
ATOM     33  O   UNL     1       4.968   3.226  19.684  0.00  0.00    +0.000 OA
ENDBRANCH  26  33
ENDBRANCH  25  30
ENDBRANCH   1  25
TORSDOF 4
ENDMDL
MODEL 5
REMARK VINA RESULT:      -7.6      0.977      1.240
REMARK  Name = 
REMARK  5 active torsions:
REMARK  status: ('A' for Active; 'I' for Inactive)
REMARK    1  A    between atoms: C_1  and  O_2
REMARK    2  A    between atoms: O_2  and  C_3
REMARK    3  A    between atoms: C_7  and  C_8
REMARK    4  A    between atoms: C_8  and  N_9
REMARK    5  A    between atoms: N_18  and  C_19
REMARK                            x       y       z     vdW  Elec       q    Type
REMARK                         _______ _______ _______ _____ _____    ______ ____
ROOT
ATOM      1  N   UNL     1       2.297   8.402  18.767  0.00  0.00    +0.000 NA
ATOM      2  C   UNL     1       1.811   7.781  20.053  0.00  0.00    +0.000 C 
ATOM      3  C   UNL     1       0.812   8.757  20.434  0.00  0.00    +0.000 C 
ATOM      4  C   UNL     1      -0.224   9.673  20.933  0.00  0.00    +0.000 C 
ATOM      5  N   UNL     1      -0.213  10.725  19.847  0.00  0.00    +0.000 N 
ATOM      6  C   UNL     1       1.070  11.161  19.356  0.00  0.00    +0.000 A 
ATOM      7  C   UNL     1       0.990  12.524  19.099  0.00  0.00    +0.000 A 
ATOM      8  C   UNL     1       0.967  13.652  20.263  0.00  0.00    +0.000 A 
ATOM      9  O   UNL     1       1.578  13.556  21.317  0.00  0.00    +0.000 OA
ATOM     10  N   UNL     1       0.070  14.700  19.835  0.00  0.00    +0.000 N 
ATOM     11  N   UNL     1      -0.452  14.329  18.568  0.00  0.00    +0.000 N 
ATOM     12  C   UNL     1      -0.260  12.954  18.406  0.00  0.00    +0.000 A 
ATOM     13  C   UNL     1      -1.245  12.098  18.136  0.00  0.00    +0.000 A 
ATOM     14  C   UNL     1      -1.237  10.801  18.892  0.00  0.00    +0.000 A 
ATOM     15  O   UNL     1      -2.131   9.979  18.727  0.00  0.00    +0.000 OA
ATOM     16  C   UNL     1       1.753   9.861  18.285  0.00  0.00    +0.000 C 
ATOM     17  H   UNL     1      -1.447  14.579  18.499  0.00  0.00    +0.000 HD
ENDROOT
BRANCH  10  18
ATOM     18  C   UNL     1      -0.477  15.874  20.540  0.00  0.00    +0.000 A 
ATOM     19  C   UNL     1      -0.140  17.193  20.146  0.00  0.00    +0.000 A 
ATOM     20  C   UNL     1      -0.665  18.366  20.772  0.00  0.00    +0.000 A 
ATOM     21  C   UNL     1      -1.535  18.258  21.848  0.00  0.00    +0.000 A 
ATOM     22  C   UNL     1      -1.876  16.987  22.287  0.00  0.00    +0.000 A 
ATOM     23  C   UNL     1      -1.369  15.822  21.655  0.00  0.00    +0.000 A 
ATOM     24 CL   UNL     1      -1.895  14.355  22.421  0.00  0.00    +0.000 Cl
ENDBRANCH  10  18
BRANCH   1  25
ATOM     25  C   UNL     1       2.711   7.336  17.785  0.00  0.00    +0.000 C 
BRANCH  25  30
ATOM     26  C   UNL     1       6.210   5.832  16.810  0.00  0.00    +0.000 A 
ATOM     27  C   UNL     1       6.459   4.984  17.885  0.00  0.00    +0.000 A 
ATOM     28  C   UNL     1       5.543   4.912  18.937  0.00  0.00    +0.000 A 
ATOM     29  C   UNL     1       4.367   5.682  18.929  0.00  0.00    +0.000 A 
ATOM     30  C   UNL     1       4.074   6.562  17.880  0.00  0.00    +0.000 A 
ATOM     31  C   UNL     1       5.034   6.623  16.818  0.00  0.00    +0.000 A 
BRANCH  26  33
ATOM     32  C   UNL     1       7.065   4.862  14.805  0.00  0.00    +0.000 C 
ATOM     33  O   UNL     1       7.188   5.816  15.853  0.00  0.00    +0.000 OA
ENDBRANCH  26  33
ENDBRANCH  25  30
ENDBRANCH   1  25
TORSDOF 4
ENDMDL
MODEL 6
REMARK VINA RESULT:      -7.5      1.402      1.790
REMARK  Name = 
REMARK  5 active torsions:
REMARK  status: ('A' for Active; 'I' for Inactive)
REMARK    1  A    between atoms: C_1  and  O_2
REMARK    2  A    between atoms: O_2  and  C_3
REMARK    3  A    between atoms: C_7  and  C_8
REMARK    4  A    between atoms: C_8  and  N_9
REMARK    5  A    between atoms: N_18  and  C_19
REMARK                            x       y       z     vdW  Elec       q    Type
REMARK                         _______ _______ _______ _____ _____    ______ ____
ROOT
ATOM      1  N   UNL     1       2.246   8.418  18.807  0.00  0.00    +0.000 NA
ATOM      2  C   UNL     1       1.754   7.815  20.100  0.00  0.00    +0.000 C 
ATOM      3  C   UNL     1       0.766   8.805  20.472  0.00  0.00    +0.000 C 
ATOM      4  C   UNL     1      -0.258   9.739  20.963  0.00  0.00    +0.000 C 
ATOM      5  N   UNL     1      -0.236  10.779  19.866  0.00  0.00    +0.000 N 
ATOM      6  C   UNL     1       1.051  11.196  19.371  0.00  0.00    +0.000 A 
ATOM      7  C   UNL     1       0.987  12.558  19.101  0.00  0.00    +0.000 A 
ATOM      8  C   UNL     1       0.979  13.697  20.254  0.00  0.00    +0.000 A 
ATOM      9  O   UNL     1       1.588  13.604  21.308  0.00  0.00    +0.000 OA
ATOM     10  N   UNL     1       0.093  14.751  19.816  0.00  0.00    +0.000 N 
ATOM     11  N   UNL     1      -0.434  14.374  18.553  0.00  0.00    +0.000 N 
ATOM     12  C   UNL     1      -0.258  12.995  18.404  0.00  0.00    +0.000 A 
ATOM     13  C   UNL     1      -1.253  12.148  18.143  0.00  0.00    +0.000 A 
ATOM     14  C   UNL     1      -1.260  10.859  18.912  0.00  0.00    +0.000 A 
ATOM     15  O   UNL     1      -2.164  10.046  18.754  0.00  0.00    +0.000 OA
ATOM     16  C   UNL     1       1.718   9.877  18.312  0.00  0.00    +0.000 C 
ATOM     17  H   UNL     1      -1.426  14.635  18.482  0.00  0.00    +0.000 HD
ENDROOT
BRANCH  10  18
ATOM     18  C   UNL     1      -0.440  15.938  20.511  0.00  0.00    +0.000 A 
ATOM     19  C   UNL     1      -1.529  15.834  21.413  0.00  0.00    +0.000 A 
ATOM     20  C   UNL     1      -2.065  16.944  22.138  0.00  0.00    +0.000 A 
ATOM     21  C   UNL     1      -1.544  18.217  21.960  0.00  0.00    +0.000 A 
ATOM     22  C   UNL     1      -0.492  18.373  21.068  0.00  0.00    +0.000 A 
ATOM     23  C   UNL     1       0.053  17.270  20.361  0.00  0.00    +0.000 A 
ATOM     24 CL   UNL     1       1.319  17.729  19.265  0.00  0.00    +0.000 Cl
ENDBRANCH  10  18
BRANCH   1  25
ATOM     25  C   UNL     1       2.647   7.337  17.835  0.00  0.00    +0.000 C 
BRANCH  25  30
ATOM     26  C   UNL     1       6.153   5.843  16.870  0.00  0.00    +0.000 A 
ATOM     27  C   UNL     1       6.387   4.972  17.930  0.00  0.00    +0.000 A 
ATOM     28  C   UNL     1       5.458   4.880  18.968  0.00  0.00    +0.000 A 
ATOM     29  C   UNL     1       4.284   5.654  18.964  0.00  0.00    +0.000 A 
ATOM     30  C   UNL     1       4.007   6.557  17.930  0.00  0.00    +0.000 A 
ATOM     31  C   UNL     1       4.979   6.638  16.881  0.00  0.00    +0.000 A 
BRANCH  26  33
ATOM     32  C   UNL     1       7.058   4.878  14.885  0.00  0.00    +0.000 C 
ATOM     33  O   UNL     1       7.142   5.845  15.925  0.00  0.00    +0.000 OA
ENDBRANCH  26  33
ENDBRANCH  25  30
ENDBRANCH   1  25
TORSDOF 4
ENDMDL
MODEL 7
REMARK VINA RESULT:      -7.5      1.044      1.769
REMARK  Name = 
REMARK  5 active torsions:
REMARK  status: ('A' for Active; 'I' for Inactive)
REMARK    1  A    between atoms: C_1  and  O_2
REMARK    2  A    between atoms: O_2  and  C_3
REMARK    3  A    between atoms: C_7  and  C_8
REMARK    4  A    between atoms: C_8  and  N_9
REMARK    5  A    between atoms: N_18  and  C_19
REMARK                            x       y       z     vdW  Elec       q    Type
REMARK                         _______ _______ _______ _____ _____    ______ ____
ROOT
ATOM      1  N   UNL     1       2.364   8.498  18.647  0.00  0.00    +0.000 NA
ATOM      2  C   UNL     1       1.877   7.817  19.902  0.00  0.00    +0.000 C 
ATOM      3  C   UNL     1       0.845   8.751  20.301  0.00  0.00    +0.000 C 
ATOM      4  C   UNL     1      -0.223   9.620  20.817  0.00  0.00    +0.000 C 
ATOM      5  N   UNL     1      -0.224  10.711  19.770  0.00  0.00    +0.000 N 
ATOM      6  C   UNL     1       1.054  11.199  19.317  0.00  0.00    +0.000 A 
ATOM      7  C   UNL     1       0.941  12.569  19.109  0.00  0.00    +0.000 A 
ATOM      8  C   UNL     1       0.869  13.652  20.313  0.00  0.00    +0.000 A 
ATOM      9  O   UNL     1       1.466  13.533  21.373  0.00  0.00    +0.000 OA
ATOM     10  N   UNL     1      -0.050  14.691  19.909  0.00  0.00    +0.000 N 
ATOM     11  N   UNL     1      -0.542  14.352  18.620  0.00  0.00    +0.000 N 
ATOM     12  C   UNL     1      -0.309  12.990  18.411  0.00  0.00    +0.000 A 
ATOM     13  C   UNL     1      -1.266  12.119  18.094  0.00  0.00    +0.000 A 
ATOM     14  C   UNL     1      -1.235  10.796  18.803  0.00  0.00    +0.000 A 
ATOM     15  O   UNL     1      -2.104   9.957  18.592  0.00  0.00    +0.000 OA
ATOM     16  C   UNL     1       1.788   9.958  18.210  0.00  0.00    +0.000 C 
ATOM     17  H   UNL     1      -1.542  14.579  18.545  0.00  0.00    +0.000 HD
ENDROOT
BRANCH  10  18
ATOM     18  C   UNL     1      -0.640  15.822  20.648  0.00  0.00    +0.000 A 
ATOM     19  C   UNL     1      -0.026  17.100  20.649  0.00  0.00    +0.000 A 
ATOM     20  C   UNL     1      -0.570  18.239  21.321  0.00  0.00    +0.000 A 
ATOM     21  C   UNL     1      -1.746  18.130  22.048  0.00  0.00    +0.000 A 
ATOM     22  C   UNL     1      -2.372  16.893  22.097  0.00  0.00    +0.000 A 
ATOM     23  C   UNL     1      -1.843  15.766  21.416  0.00  0.00    +0.000 A 
ATOM     24 CL   UNL     1      -2.771  14.321  21.677  0.00  0.00    +0.000 Cl
ENDBRANCH  10  18
BRANCH   1  25
ATOM     25  C   UNL     1       2.823   7.481  17.634  0.00  0.00    +0.000 C 
BRANCH  25  30
ATOM     26  C   UNL     1       2.816   3.610  18.319  0.00  0.00    +0.000 A 
ATOM     27  C   UNL     1       4.052   3.433  18.935  0.00  0.00    +0.000 A 
ATOM     28  C   UNL     1       4.904   4.526  19.103  0.00  0.00    +0.000 A 
ATOM     29  C   UNL     1       4.536   5.809  18.661  0.00  0.00    +0.000 A 
ATOM     30  C   UNL     1       3.312   6.040  18.022  0.00  0.00    +0.000 A 
ATOM     31  C   UNL     1       2.460   4.901  17.854  0.00  0.00    +0.000 A 
BRANCH  26  33
ATOM     32  C   UNL     1       0.804   2.435  18.831  0.00  0.00    +0.000 C 
ATOM     33  O   UNL     1       2.082   2.460  18.207  0.00  0.00    +0.000 OA
ENDBRANCH  26  33
ENDBRANCH  25  30
ENDBRANCH   1  25
TORSDOF 4
ENDMDL
MODEL 8
REMARK VINA RESULT:      -7.5      1.436      2.192
REMARK  Name = 
REMARK  5 active torsions:
REMARK  status: ('A' for Active; 'I' for Inactive)
REMARK    1  A    between atoms: C_1  and  O_2
REMARK    2  A    between atoms: O_2  and  C_3
REMARK    3  A    between atoms: C_7  and  C_8
REMARK    4  A    between atoms: C_8  and  N_9
REMARK    5  A    between atoms: N_18  and  C_19
REMARK                            x       y       z     vdW  Elec       q    Type
REMARK                         _______ _______ _______ _____ _____    ______ ____
ROOT
ATOM      1  N   UNL     1       2.265   8.432  18.762  0.00  0.00    +0.000 NA
ATOM      2  C   UNL     1       1.797   7.822  20.060  0.00  0.00    +0.000 C 
ATOM      3  C   UNL     1       0.808   8.805  20.449  0.00  0.00    +0.000 C 
ATOM      4  C   UNL     1      -0.216   9.729  20.958  0.00  0.00    +0.000 C 
ATOM      5  N   UNL     1      -0.217  10.773  19.864  0.00  0.00    +0.000 N 
ATOM      6  C   UNL     1       1.059  11.200  19.350  0.00  0.00    +0.000 A 
ATOM      7  C   UNL     1       0.982  12.562  19.085  0.00  0.00    +0.000 A 
ATOM      8  C   UNL     1       0.982  13.698  20.241  0.00  0.00    +0.000 A 
ATOM      9  O   UNL     1       1.608  13.607  21.287  0.00  0.00    +0.000 OA
ATOM     10  N   UNL     1       0.082  14.747  19.819  0.00  0.00    +0.000 N 
ATOM     11  N   UNL     1      -0.461  14.369  18.563  0.00  0.00    +0.000 N 
ATOM     12  C   UNL     1      -0.277  12.992  18.408  0.00  0.00    +0.000 A 
ATOM     13  C   UNL     1      -1.270  12.139  18.159  0.00  0.00    +0.000 A 
ATOM     14  C   UNL     1      -1.256  10.847  18.925  0.00  0.00    +0.000 A 
ATOM     15  O   UNL     1      -2.156  10.028  18.778  0.00  0.00    +0.000 OA
ATOM     16  C   UNL     1       1.720   9.890  18.278  0.00  0.00    +0.000 C 
ATOM     17  H   UNL     1      -1.456  14.624  18.508  0.00  0.00    +0.000 HD
ENDROOT
BRANCH  10  18
ATOM     18  C   UNL     1      -0.449  15.928  20.525  0.00  0.00    +0.000 A 
ATOM     19  C   UNL     1      -1.294  15.791  21.656  0.00  0.00    +0.000 A 
ATOM     20  C   UNL     1      -1.811  16.898  22.397  0.00  0.00    +0.000 A 
ATOM     21  C   UNL     1      -1.522  18.199  22.011  0.00  0.00    +0.000 A 
ATOM     22  C   UNL     1      -0.719  18.385  20.895  0.00  0.00    +0.000 A 
ATOM     23  C   UNL     1      -0.190  17.287  20.168  0.00  0.00    +0.000 A 
ATOM     24 CL   UNL     1       0.735  17.775  18.782  0.00  0.00    +0.000 Cl
ENDBRANCH  10  18
BRANCH   1  25
ATOM     25  C   UNL     1       2.660   7.358  17.781  0.00  0.00    +0.000 C 
BRANCH  25  30
ATOM     26  C   UNL     1       2.966   3.598  18.888  0.00  0.00    +0.000 A 
ATOM     27  C   UNL     1       4.311   3.518  19.238  0.00  0.00    +0.000 A 
ATOM     28  C   UNL     1       5.132   4.638  19.092  0.00  0.00    +0.000 A 
ATOM     29  C   UNL     1       4.623   5.852  18.597  0.00  0.00    +0.000 A 
ATOM     30  C   UNL     1       3.282   5.983  18.216  0.00  0.00    +0.000 A 
ATOM     31  C   UNL     1       2.464   4.817  18.368  0.00  0.00    +0.000 A 
BRANCH  26  33
ATOM     32  C   UNL     1       0.887   2.437  18.764  0.00  0.00    +0.000 C 
ATOM     33  O   UNL     1       2.275   2.431  19.070  0.00  0.00    +0.000 OA
ENDBRANCH  26  33
ENDBRANCH  25  30
ENDBRANCH   1  25
TORSDOF 4
ENDMDL
MODEL 9
REMARK VINA RESULT:      -7.5      1.240      1.911
REMARK  Name = 
REMARK  5 active torsions:
REMARK  status: ('A' for Active; 'I' for Inactive)
REMARK    1  A    between atoms: C_1  and  O_2
REMARK    2  A    between atoms: O_2  and  C_3
REMARK    3  A    between atoms: C_7  and  C_8
REMARK    4  A    between atoms: C_8  and  N_9
REMARK    5  A    between atoms: N_18  and  C_19
REMARK                            x       y       z     vdW  Elec       q    Type
REMARK                         _______ _______ _______ _____ _____    ______ ____
ROOT
ATOM      1  N   UNL     1       2.289   8.482  18.649  0.00  0.00    +0.000 NA
ATOM      2  C   UNL     1       1.836   7.856  19.944  0.00  0.00    +0.000 C 
ATOM      3  C   UNL     1       0.856   8.837  20.360  0.00  0.00    +0.000 C 
ATOM      4  C   UNL     1      -0.157   9.758  20.895  0.00  0.00    +0.000 C 
ATOM      5  N   UNL     1      -0.168  10.817  19.816  0.00  0.00    +0.000 N 
ATOM      6  C   UNL     1       1.104  11.246  19.292  0.00  0.00    +0.000 A 
ATOM      7  C   UNL     1       1.028  12.612  19.047  0.00  0.00    +0.000 A 
ATOM      8  C   UNL     1       1.049  13.732  20.218  0.00  0.00    +0.000 A 
ATOM      9  O   UNL     1       1.688  13.623  21.254  0.00  0.00    +0.000 OA
ATOM     10  N   UNL     1       0.148  14.791  19.823  0.00  0.00    +0.000 N 
ATOM     11  N   UNL     1      -0.413  14.432  18.569  0.00  0.00    +0.000 N 
ATOM     12  C   UNL     1      -0.237  13.057  18.392  0.00  0.00    +0.000 A 
ATOM     13  C   UNL     1      -1.236  12.212  18.144  0.00  0.00    +0.000 A 
ATOM     14  C   UNL     1      -1.219  10.909  18.891  0.00  0.00    +0.000 A 
ATOM     15  O   UNL     1      -2.124  10.096  18.745  0.00  0.00    +0.000 OA
ATOM     16  C   UNL     1       1.744   9.948  18.193  0.00  0.00    +0.000 C 
ATOM     17  H   UNL     1      -1.407  14.692  18.530  0.00  0.00    +0.000 HD
ENDROOT
BRANCH  10  18
ATOM     18  C   UNL     1      -0.369  15.963  20.552  0.00  0.00    +0.000 A 
ATOM     19  C   UNL     1      -1.185  15.814  21.702  0.00  0.00    +0.000 A 
ATOM     20  C   UNL     1      -1.687  16.914  22.465  0.00  0.00    +0.000 A 
ATOM     21  C   UNL     1      -1.410  18.219  22.083  0.00  0.00    +0.000 A 
ATOM     22  C   UNL     1      -0.635  18.417  20.950  0.00  0.00    +0.000 A 
ATOM     23  C   UNL     1      -0.122  17.326  20.201  0.00  0.00    +0.000 A 
ATOM     24 CL   UNL     1       0.767  17.829  18.796  0.00  0.00    +0.000 Cl
ENDBRANCH  10  18
BRANCH   1  25
ATOM     25  C   UNL     1       2.667   7.419  17.648  0.00  0.00    +0.000 C 
BRANCH  25  30
ATOM     26  C   UNL     1       5.160   4.591  18.761  0.00  0.00    +0.000 A 
ATOM     27  C   UNL     1       6.360   5.049  18.225  0.00  0.00    +0.000 A 
ATOM     28  C   UNL     1       6.379   6.231  17.482  0.00  0.00    +0.000 A 
ATOM     29  C   UNL     1       5.204   6.972  17.264  0.00  0.00    +0.000 A 
ATOM     30  C   UNL     1       3.968   6.548  17.767  0.00  0.00    +0.000 A 
ATOM     31  C   UNL     1       3.974   5.329  18.519  0.00  0.00    +0.000 A 
BRANCH  26  33
ATOM     32  C   UNL     1       4.080   2.701  19.736  0.00  0.00    +0.000 C 
ATOM     33  O   UNL     1       5.275   3.419  19.458  0.00  0.00    +0.000 OA
ENDBRANCH  26  33
ENDBRANCH  25  30
ENDBRANCH   1  25
TORSDOF 4
ENDMDL
