MODEL 1
REMARK VINA RESULT:      -7.6      0.000      0.000
REMARK  Name = 
REMARK  6 active torsions:
REMARK  status: ('A' for Active; 'I' for Inactive)
REMARK    1  A    between atoms: C_1  and  C_2
REMARK    2  A    between atoms: C_2  and  O_3
REMARK    3  A    between atoms: O_3  and  C_4
REMARK    4  A    between atoms: C_4  and  C_6
REMARK    5  A    between atoms: C_12  and  C_13
REMARK    6  A    between atoms: C_16  and  C_17
REMARK                            x       y       z     vdW  Elec       q    Type
REMARK                         _______ _______ _______ _____ _____    ______ ____
ROOT
ATOM      1  C   UNL     1       5.613   4.932  17.162  0.00  0.00    +0.000 A 
ATOM      2  C   UNL     1       5.081   4.270  18.199  0.00  0.00    +0.000 A 
ATOM      3  C   UNL     1       3.951   4.748  19.024  0.00  0.00    +0.000 A 
ATOM      4  O   UNL     1       3.491   4.083  19.945  0.00  0.00    +0.000 OA
ATOM      5  N   UNL     1       3.453   6.008  18.706  0.00  0.00    +0.000 N 
ATOM      6  N   UNL     1       2.467   6.607  19.423  0.00  0.00    +0.000 NA
ATOM      7  C   UNL     1       2.328   7.785  18.793  0.00  0.00    +0.000 A 
ATOM      8  N   UNL     1       3.165   7.947  17.713  0.00  0.00    +0.000 NA
ATOM      9  C   UNL     1       3.847   6.836  17.694  0.00  0.00    +0.000 A 
ATOM     10  S   UNL     1       5.063   6.454  16.550  0.00  0.00    +0.000 S 
ENDROOT
BRANCH   7  11
ATOM     11  C   UNL     1       1.401   8.834  19.197  0.00  0.00    +0.000 A 
ATOM     12  C   UNL     1       0.854   9.716  18.258  0.00  0.00    +0.000 A 
ATOM     13  C   UNL     1      -0.038  10.714  18.660  0.00  0.00    +0.000 A 
ATOM     14  C   UNL     1      -0.403  10.842  20.005  0.00  0.00    +0.000 A 
ATOM     15  C   UNL     1      -1.347  11.920  20.449  0.00  0.00    +0.000 C 
ATOM     16  C   UNL     1       0.145   9.964  20.946  0.00  0.00    +0.000 A 
ATOM     17  C   UNL     1       1.036   8.967  20.545  0.00  0.00    +0.000 A 
ENDBRANCH   7  11
BRANCH   1  18
ATOM     18  C   UNL     1       6.764   4.360  16.393  0.00  0.00    +0.000 C 
ATOM     19  O   UNL     1       7.936   4.524  16.693  0.00  0.00    +0.000 OA
BRANCH  18  20
ATOM     20  O   UNL     1       6.325   3.752  15.259  0.00  0.00    +0.000 OA
BRANCH  20  22
ATOM     21  C   UNL     1       6.130   3.623  12.886  0.00  0.00    +0.000 C 
ATOM     22  C   UNL     1       6.695   4.425  14.046  0.00  0.00    +0.000 C 
ENDBRANCH  20  22
ENDBRANCH  18  20
ENDBRANCH   1  18
TORSDOF 4
ENDMDL
MODEL 2
REMARK VINA RESULT:      -7.6      0.794      1.323
REMARK  Name = 
REMARK  6 active torsions:
REMARK  status: ('A' for Active; 'I' for Inactive)
REMARK    1  A    between atoms: C_1  and  C_2
REMARK    2  A    between atoms: C_2  and  O_3
REMARK    3  A    between atoms: O_3  and  C_4
REMARK    4  A    between atoms: C_4  and  C_6
REMARK    5  A    between atoms: C_12  and  C_13
REMARK    6  A    between atoms: C_16  and  C_17
REMARK                            x       y       z     vdW  Elec       q    Type
REMARK                         _______ _______ _______ _____ _____    ______ ____
ROOT
ATOM      1  C   UNL     1       5.463   4.740  16.689  0.00  0.00    +0.000 A 
ATOM      2  C   UNL     1       4.812   3.864  17.467  0.00  0.00    +0.000 A 
ATOM      3  C   UNL     1       3.699   4.199  18.380  0.00  0.00    +0.000 A 
ATOM      4  O   UNL     1       3.125   3.346  19.047  0.00  0.00    +0.000 OA
ATOM      5  N   UNL     1       3.355   5.546  18.453  0.00  0.00    +0.000 N 
ATOM      6  N   UNL     1       2.403   6.011  19.303  0.00  0.00    +0.000 NA
ATOM      7  C   UNL     1       2.423   7.332  19.060  0.00  0.00    +0.000 A 
ATOM      8  N   UNL     1       3.325   7.714  18.094  0.00  0.00    +0.000 NA
ATOM      9  C   UNL     1       3.885   6.588  17.748  0.00  0.00    +0.000 A 
ATOM     10  S   UNL     1       5.110   6.429  16.562  0.00  0.00    +0.000 S 
ENDROOT
BRANCH   7  11
ATOM     11  C   UNL     1       1.593   8.312  19.750  0.00  0.00    +0.000 A 
ATOM     12  C   UNL     1       1.203   8.119  21.080  0.00  0.00    +0.000 A 
ATOM     13  C   UNL     1       0.411   9.070  21.730  0.00  0.00    +0.000 A 
ATOM     14  C   UNL     1       0.003  10.231  21.064  0.00  0.00    +0.000 A 
ATOM     15  C   UNL     1      -0.861  11.249  21.748  0.00  0.00    +0.000 C 
ATOM     16  C   UNL     1       0.389  10.424  19.733  0.00  0.00    +0.000 A 
ATOM     17  C   UNL     1       1.180   9.475  19.084  0.00  0.00    +0.000 A 
ENDBRANCH   7  11
BRANCH   1  18
ATOM     18  C   UNL     1       6.584   4.296  15.801  0.00  0.00    +0.000 C 
ATOM     19  O   UNL     1       7.755   4.601  15.972  0.00  0.00    +0.000 OA
BRANCH  18  20
ATOM     20  O   UNL     1       6.101   3.624  14.723  0.00  0.00    +0.000 OA
BRANCH  20  22
ATOM     21  C   UNL     1       5.942   3.276  12.369  0.00  0.00    +0.000 C 
ATOM     22  C   UNL     1       6.457   4.202  13.457  0.00  0.00    +0.000 C 
ENDBRANCH  20  22
ENDBRANCH  18  20
ENDBRANCH   1  18
TORSDOF 4
ENDMDL
MODEL 3
REMARK VINA RESULT:      -7.5      1.032      1.109
REMARK  Name = 
REMARK  6 active torsions:
REMARK  status: ('A' for Active; 'I' for Inactive)
REMARK    1  A    between atoms: C_1  and  C_2
REMARK    2  A    between atoms: C_2  and  O_3
REMARK    3  A    between atoms: O_3  and  C_4
REMARK    4  A    between atoms: C_4  and  C_6
REMARK    5  A    between atoms: C_12  and  C_13
REMARK    6  A    between atoms: C_16  and  C_17
REMARK                            x       y       z     vdW  Elec       q    Type
REMARK                         _______ _______ _______ _____ _____    ______ ____
ROOT
ATOM      1  C   UNL     1       5.477   4.846  16.304  0.00  0.00    +0.000 A 
ATOM      2  C   UNL     1       4.797   3.925  17.000  0.00  0.00    +0.000 A 
ATOM      3  C   UNL     1       3.687   4.211  17.932  0.00  0.00    +0.000 A 
ATOM      4  O   UNL     1       3.086   3.320  18.521  0.00  0.00    +0.000 OA
ATOM      5  N   UNL     1       3.377   5.555  18.118  0.00  0.00    +0.000 N 
ATOM      6  N   UNL     1       2.431   5.971  19.000  0.00  0.00    +0.000 NA
ATOM      7  C   UNL     1       2.487   7.307  18.871  0.00  0.00    +0.000 A 
ATOM      8  N   UNL     1       3.406   7.745  17.946  0.00  0.00    +0.000 NA
ATOM      9  C   UNL     1       3.939   6.638  17.508  0.00  0.00    +0.000 A 
ATOM     10  S   UNL     1       5.169   6.548  16.319  0.00  0.00    +0.000 S 
ENDROOT
BRANCH   7  11
ATOM     11  C   UNL     1       1.678   8.246  19.637  0.00  0.00    +0.000 A 
ATOM     12  C   UNL     1       1.192   9.423  19.057  0.00  0.00    +0.000 A 
ATOM     13  C   UNL     1       0.413  10.312  19.803  0.00  0.00    +0.000 A 
ATOM     14  C   UNL     1       0.100  10.034  21.138  0.00  0.00    +0.000 A 
ATOM     15  C   UNL     1      -0.721  10.989  21.952  0.00  0.00    +0.000 C 
ATOM     16  C   UNL     1       0.587   8.859  21.722  0.00  0.00    +0.000 A 
ATOM     17  C   UNL     1       1.365   7.972  20.977  0.00  0.00    +0.000 A 
ENDBRANCH   7  11
BRANCH   1  18
ATOM     18  C   UNL     1       6.592   4.449  15.387  0.00  0.00    +0.000 C 
ATOM     19  O   UNL     1       7.671   5.020  15.335  0.00  0.00    +0.000 OA
BRANCH  18  20
ATOM     20  O   UNL     1       6.189   3.462  14.544  0.00  0.00    +0.000 OA
BRANCH  20  22
ATOM     21  C   UNL     1       6.374   3.384  12.168  0.00  0.00    +0.000 C 
ATOM     22  C   UNL     1       5.572   3.932  13.335  0.00  0.00    +0.000 C 
ENDBRANCH  20  22
ENDBRANCH  18  20
ENDBRANCH   1  18
TORSDOF 4
ENDMDL
MODEL 4
REMARK VINA RESULT:      -7.3      2.084      2.755
REMARK  Name = 
REMARK  6 active torsions:
REMARK  status: ('A' for Active; 'I' for Inactive)
REMARK    1  A    between atoms: C_1  and  C_2
REMARK    2  A    between atoms: C_2  and  O_3
REMARK    3  A    between atoms: O_3  and  C_4
REMARK    4  A    between atoms: C_4  and  C_6
REMARK    5  A    between atoms: C_12  and  C_13
REMARK    6  A    between atoms: C_16  and  C_17
REMARK                            x       y       z     vdW  Elec       q    Type
REMARK                         _______ _______ _______ _____ _____    ______ ____
ROOT
ATOM      1  C   UNL     1       4.007   4.858  18.651  0.00  0.00    +0.000 A 
ATOM      2  C   UNL     1       3.454   4.187  19.671  0.00  0.00    +0.000 A 
ATOM      3  C   UNL     1       2.445   4.735  20.602  0.00  0.00    +0.000 A 
ATOM      4  O   UNL     1       1.956   4.061  21.501  0.00  0.00    +0.000 OA
ATOM      5  N   UNL     1       2.098   6.069  20.410  0.00  0.00    +0.000 N 
ATOM      6  N   UNL     1       1.241   6.727  21.233  0.00  0.00    +0.000 NA
ATOM      7  C   UNL     1       1.221   7.960  20.701  0.00  0.00    +0.000 A 
ATOM      8  N   UNL     1       2.008   8.102  19.581  0.00  0.00    +0.000 NA
ATOM      9  C   UNL     1       2.538   6.919  19.437  0.00  0.00    +0.000 A 
ATOM     10  S   UNL     1       3.626   6.481  18.189  0.00  0.00    +0.000 S 
ENDROOT
BRANCH   7  11
ATOM     11  C   UNL     1       0.462   9.081  21.241  0.00  0.00    +0.000 A 
ATOM     12  C   UNL     1       0.145  10.188  20.447  0.00  0.00    +0.000 A 
ATOM     13  C   UNL     1      -0.587  11.254  20.977  0.00  0.00    +0.000 A 
ATOM     14  C   UNL     1      -1.021  11.226  22.307  0.00  0.00    +0.000 A 
ATOM     15  C   UNL     1      -1.793  12.372  22.891  0.00  0.00    +0.000 C 
ATOM     16  C   UNL     1      -0.703  10.121  23.105  0.00  0.00    +0.000 A 
ATOM     17  C   UNL     1       0.029   9.057  22.575  0.00  0.00    +0.000 A 
ENDBRANCH   7  11
BRANCH   1  18
ATOM     18  C   UNL     1       5.028   4.209  17.768  0.00  0.00    +0.000 C 
ATOM     19  O   UNL     1       4.777   3.716  16.679  0.00  0.00    +0.000 OA
BRANCH  18  20
ATOM     20  O   UNL     1       6.229   4.135  18.401  0.00  0.00    +0.000 OA
BRANCH  20  22
ATOM     21  C   UNL     1       7.647   6.048  18.538  0.00  0.00    +0.000 C 
ATOM     22  C   UNL     1       7.298   4.814  17.723  0.00  0.00    +0.000 C 
ENDBRANCH  20  22
ENDBRANCH  18  20
ENDBRANCH   1  18
TORSDOF 4
ENDMDL
MODEL 5
REMARK VINA RESULT:      -7.3      1.993      2.878
REMARK  Name = 
REMARK  6 active torsions:
REMARK  status: ('A' for Active; 'I' for Inactive)
REMARK    1  A    between atoms: C_1  and  C_2
REMARK    2  A    between atoms: C_2  and  O_3
REMARK    3  A    between atoms: O_3  and  C_4
REMARK    4  A    between atoms: C_4  and  C_6
REMARK    5  A    between atoms: C_12  and  C_13
REMARK    6  A    between atoms: C_16  and  C_17
REMARK                            x       y       z     vdW  Elec       q    Type
REMARK                         _______ _______ _______ _____ _____    ______ ____
ROOT
ATOM      1  C   UNL     1       4.108   4.993  18.452  0.00  0.00    +0.000 A 
ATOM      2  C   UNL     1       3.623   4.301  19.492  0.00  0.00    +0.000 A 
ATOM      3  C   UNL     1       2.626   4.805  20.460  0.00  0.00    +0.000 A 
ATOM      4  O   UNL     1       2.200   4.112  21.377  0.00  0.00    +0.000 OA
ATOM      5  N   UNL     1       2.214   6.122  20.280  0.00  0.00    +0.000 N 
ATOM      6  N   UNL     1       1.359   6.743  21.135  0.00  0.00    +0.000 NA
ATOM      7  C   UNL     1       1.266   7.973  20.603  0.00  0.00    +0.000 A 
ATOM      8  N   UNL     1       2.004   8.148  19.455  0.00  0.00    +0.000 NA
ATOM      9  C   UNL     1       2.579   6.989  19.291  0.00  0.00    +0.000 A 
ATOM     10  S   UNL     1       3.639   6.597  18.004  0.00  0.00    +0.000 S 
ENDROOT
BRANCH   7  11
ATOM     11  C   UNL     1       0.479   9.061  21.171  0.00  0.00    +0.000 A 
ATOM     12  C   UNL     1       0.163   9.089  22.534  0.00  0.00    +0.000 A 
ATOM     13  C   UNL     1      -0.588  10.142  23.065  0.00  0.00    +0.000 A 
ATOM     14  C   UNL     1      -1.028  11.186  22.244  0.00  0.00    +0.000 A 
ATOM     15  C   UNL     1      -1.848  12.311  22.801  0.00  0.00    +0.000 C 
ATOM     16  C   UNL     1      -0.716  11.159  20.881  0.00  0.00    +0.000 A 
ATOM     17  C   UNL     1       0.034  10.108  20.350  0.00  0.00    +0.000 A 
ENDBRANCH   7  11
BRANCH   1  18
ATOM     18  C   UNL     1       5.123   4.389  17.531  0.00  0.00    +0.000 C 
ATOM     19  O   UNL     1       4.910   4.123  16.358  0.00  0.00    +0.000 OA
BRANCH  18  20
ATOM     20  O   UNL     1       6.252   4.063  18.214  0.00  0.00    +0.000 OA
BRANCH  20  22
ATOM     21  C   UNL     1       7.673   5.825  18.965  0.00  0.00    +0.000 C 
ATOM     22  C   UNL     1       7.408   4.833  17.846  0.00  0.00    +0.000 C 
ENDBRANCH  20  22
ENDBRANCH  18  20
ENDBRANCH   1  18
TORSDOF 4
ENDMDL
MODEL 6
REMARK VINA RESULT:      -7.3      5.260      6.497
REMARK  Name = 
REMARK  6 active torsions:
REMARK  status: ('A' for Active; 'I' for Inactive)
REMARK    1  A    between atoms: C_1  and  C_2
REMARK    2  A    between atoms: C_2  and  O_3
REMARK    3  A    between atoms: O_3  and  C_4
REMARK    4  A    between atoms: C_4  and  C_6
REMARK    5  A    between atoms: C_12  and  C_13
REMARK    6  A    between atoms: C_16  and  C_17
REMARK                            x       y       z     vdW  Elec       q    Type
REMARK                         _______ _______ _______ _____ _____    ______ ____
ROOT
ATOM      1  C   UNL     1       6.149   5.241  16.910  0.00  0.00    +0.000 A 
ATOM      2  C   UNL     1       6.885   4.760  17.921  0.00  0.00    +0.000 A 
ATOM      3  C   UNL     1       7.772   5.566  18.786  0.00  0.00    +0.000 A 
ATOM      4  O   UNL     1       8.401   5.071  19.714  0.00  0.00    +0.000 OA
ATOM      5  N   UNL     1       7.868   6.918  18.471  0.00  0.00    +0.000 N 
ATOM      6  N   UNL     1       8.701   7.765  19.131  0.00  0.00    +0.000 NA
ATOM      7  C   UNL     1       8.491   8.928  18.493  0.00  0.00    +0.000 A 
ATOM      8  N   UNL     1       7.562   8.856  17.481  0.00  0.00    +0.000 NA
ATOM      9  C   UNL     1       7.205   7.601  17.493  0.00  0.00    +0.000 A 
ATOM     10  S   UNL     1       6.052   6.902  16.437  0.00  0.00    +0.000 S 
ENDROOT
BRANCH   7  11
ATOM     11  C   UNL     1       9.180  10.175  18.801  0.00  0.00    +0.000 A 
ATOM     12  C   UNL     1       9.507  10.513  20.119  0.00  0.00    +0.000 A 
ATOM     13  C   UNL     1      10.172  11.710  20.398  0.00  0.00    +0.000 A 
ATOM     14  C   UNL     1      10.527  12.584  19.365  0.00  0.00    +0.000 A 
ATOM     15  C   UNL     1      11.226  13.879  19.656  0.00  0.00    +0.000 C 
ATOM     16  C   UNL     1      10.199  12.250  18.047  0.00  0.00    +0.000 A 
ATOM     17  C   UNL     1       9.534  11.055  17.767  0.00  0.00    +0.000 A 
ENDBRANCH   7  11
BRANCH   1  18
ATOM     18  C   UNL     1       5.283   4.335  16.089  0.00  0.00    +0.000 C 
ATOM     19  O   UNL     1       4.681   3.372  16.539  0.00  0.00    +0.000 OA
BRANCH  18  20
ATOM     20  O   UNL     1       5.369   4.658  14.772  0.00  0.00    +0.000 OA
BRANCH  20  22
ATOM     21  C   UNL     1       5.762   3.514  12.717  0.00  0.00    +0.000 C 
ATOM     22  C   UNL     1       6.369   3.925  14.047  0.00  0.00    +0.000 C 
ENDBRANCH  20  22
ENDBRANCH  18  20
ENDBRANCH   1  18
TORSDOF 4
ENDMDL
MODEL 7
REMARK VINA RESULT:      -7.2      0.827      1.286
REMARK  Name = 
REMARK  6 active torsions:
REMARK  status: ('A' for Active; 'I' for Inactive)
REMARK    1  A    between atoms: C_1  and  C_2
REMARK    2  A    between atoms: C_2  and  O_3
REMARK    3  A    between atoms: O_3  and  C_4
REMARK    4  A    between atoms: C_4  and  C_6
REMARK    5  A    between atoms: C_12  and  C_13
REMARK    6  A    between atoms: C_16  and  C_17
REMARK                            x       y       z     vdW  Elec       q    Type
REMARK                         _______ _______ _______ _____ _____    ______ ____
ROOT
ATOM      1  C   UNL     1       5.774   5.576  17.444  0.00  0.00    +0.000 A 
ATOM      2  C   UNL     1       5.254   4.922  18.491  0.00  0.00    +0.000 A 
ATOM      3  C   UNL     1       4.037   5.325  19.227  0.00  0.00    +0.000 A 
ATOM      4  O   UNL     1       3.595   4.669  20.163  0.00  0.00    +0.000 OA
ATOM      5  N   UNL     1       3.433   6.507  18.807  0.00  0.00    +0.000 N 
ATOM      6  N   UNL     1       2.353   7.039  19.435  0.00  0.00    +0.000 NA
ATOM      7  C   UNL     1       2.132   8.159  18.727  0.00  0.00    +0.000 A 
ATOM      8  N   UNL     1       3.008   8.346  17.683  0.00  0.00    +0.000 NA
ATOM      9  C   UNL     1       3.798   7.312  17.767  0.00  0.00    +0.000 A 
ATOM     10  S   UNL     1       5.109   6.995  16.712  0.00  0.00    +0.000 S 
ENDROOT
BRANCH   7  11
ATOM     11  C   UNL     1       1.082   9.127  19.018  0.00  0.00    +0.000 A 
ATOM     12  C   UNL     1       0.922   9.654  20.305  0.00  0.00    +0.000 A 
ATOM     13  C   UNL     1      -0.087  10.585  20.568  0.00  0.00    +0.000 A 
ATOM     14  C   UNL     1      -0.945  11.010  19.548  0.00  0.00    +0.000 A 
ATOM     15  C   UNL     1      -2.041  11.996  19.824  0.00  0.00    +0.000 C 
ATOM     16  C   UNL     1      -0.789  10.482  18.262  0.00  0.00    +0.000 A 
ATOM     17  C   UNL     1       0.218   9.552  17.999  0.00  0.00    +0.000 A 
ENDBRANCH   7  11
BRANCH   1  18
ATOM     18  C   UNL     1       7.019   5.084  16.771  0.00  0.00    +0.000 C 
ATOM     19  O   UNL     1       7.877   4.414  17.325  0.00  0.00    +0.000 OA
BRANCH  18  20
ATOM     20  O   UNL     1       7.114   5.592  15.514  0.00  0.00    +0.000 OA
BRANCH  20  22
ATOM     21  C   UNL     1       5.756   4.121  14.219  0.00  0.00    +0.000 C 
ATOM     22  C   UNL     1       7.174   4.600  14.477  0.00  0.00    +0.000 C 
ENDBRANCH  20  22
ENDBRANCH  18  20
ENDBRANCH   1  18
TORSDOF 4
ENDMDL
MODEL 8
REMARK VINA RESULT:      -7.1      5.146      6.496
REMARK  Name = 
REMARK  6 active torsions:
REMARK  status: ('A' for Active; 'I' for Inactive)
REMARK    1  A    between atoms: C_1  and  C_2
REMARK    2  A    between atoms: C_2  and  O_3
REMARK    3  A    between atoms: O_3  and  C_4
REMARK    4  A    between atoms: C_4  and  C_6
REMARK    5  A    between atoms: C_12  and  C_13
REMARK    6  A    between atoms: C_16  and  C_17
REMARK                            x       y       z     vdW  Elec       q    Type
REMARK                         _______ _______ _______ _____ _____    ______ ____
ROOT
ATOM      1  C   UNL     1       6.077   5.023  17.012  0.00  0.00    +0.000 A 
ATOM      2  C   UNL     1       6.887   4.628  18.004  0.00  0.00    +0.000 A 
ATOM      3  C   UNL     1       7.774   5.517  18.783  0.00  0.00    +0.000 A 
ATOM      4  O   UNL     1       8.474   5.098  19.698  0.00  0.00    +0.000 OA
ATOM      5  N   UNL     1       7.784   6.856  18.403  0.00  0.00    +0.000 N 
ATOM      6  N   UNL     1       8.603   7.773  18.980  0.00  0.00    +0.000 NA
ATOM      7  C   UNL     1       8.302   8.893  18.302  0.00  0.00    +0.000 A 
ATOM      8  N   UNL     1       7.327   8.726  17.344  0.00  0.00    +0.000 NA
ATOM      9  C   UNL     1       7.038   7.458  17.432  0.00  0.00    +0.000 A 
ATOM     10  S   UNL     1       5.871   6.653  16.470  0.00  0.00    +0.000 S 
ENDROOT
BRANCH   7  11
ATOM     11  C   UNL     1       8.939  10.186  18.517  0.00  0.00    +0.000 A 
ATOM     12  C   UNL     1       8.708  11.259  17.649  0.00  0.00    +0.000 A 
ATOM     13  C   UNL     1       9.323  12.494  17.870  0.00  0.00    +0.000 A 
ATOM     14  C   UNL     1      10.172  12.679  18.967  0.00  0.00    +0.000 A 
ATOM     15  C   UNL     1      10.850  13.996  19.204  0.00  0.00    +0.000 C 
ATOM     16  C   UNL     1      10.408  11.607  19.835  0.00  0.00    +0.000 A 
ATOM     17  C   UNL     1       9.794  10.373  19.613  0.00  0.00    +0.000 A 
ENDBRANCH   7  11
BRANCH   1  18
ATOM     18  C   UNL     1       5.220   4.037  16.280  0.00  0.00    +0.000 C 
ATOM     19  O   UNL     1       5.150   3.963  15.063  0.00  0.00    +0.000 OA
BRANCH  18  20
ATOM     20  O   UNL     1       4.446   3.339  17.151  0.00  0.00    +0.000 OA
BRANCH  20  22
ATOM     21  C   UNL     1       2.736   4.700  18.107  0.00  0.00    +0.000 C 
ATOM     22  C   UNL     1       3.043   3.636  17.067  0.00  0.00    +0.000 C 
ENDBRANCH  20  22
ENDBRANCH  18  20
ENDBRANCH   1  18
TORSDOF 4
ENDMDL
MODEL 9
REMARK VINA RESULT:      -7.1      5.159      6.545
REMARK  Name = 
REMARK  6 active torsions:
REMARK  status: ('A' for Active; 'I' for Inactive)
REMARK    1  A    between atoms: C_1  and  C_2
REMARK    2  A    between atoms: C_2  and  O_3
REMARK    3  A    between atoms: O_3  and  C_4
REMARK    4  A    between atoms: C_4  and  C_6
REMARK    5  A    between atoms: C_12  and  C_13
REMARK    6  A    between atoms: C_16  and  C_17
REMARK                            x       y       z     vdW  Elec       q    Type
REMARK                         _______ _______ _______ _____ _____    ______ ____
ROOT
ATOM      1  C   UNL     1       6.256   5.010  16.882  0.00  0.00    +0.000 A 
ATOM      2  C   UNL     1       7.004   4.615  17.921  0.00  0.00    +0.000 A 
ATOM      3  C   UNL     1       7.827   5.507  18.765  0.00  0.00    +0.000 A 
ATOM      4  O   UNL     1       8.470   5.089  19.720  0.00  0.00    +0.000 OA
ATOM      5  N   UNL     1       7.844   6.850  18.397  0.00  0.00    +0.000 N 
ATOM      6  N   UNL     1       8.612   7.772  19.034  0.00  0.00    +0.000 NA
ATOM      7  C   UNL     1       8.341   8.894  18.348  0.00  0.00    +0.000 A 
ATOM      8  N   UNL     1       7.434   8.724  17.327  0.00  0.00    +0.000 NA
ATOM      9  C   UNL     1       7.155   7.451  17.384  0.00  0.00    +0.000 A 
ATOM     10  S   UNL     1       6.064   6.642  16.342  0.00  0.00    +0.000 S 
ENDROOT
BRANCH   7  11
ATOM     11  C   UNL     1       8.946  10.192  18.615  0.00  0.00    +0.000 A 
ATOM     12  C   UNL     1       9.742  10.400  19.747  0.00  0.00    +0.000 A 
ATOM     13  C   UNL     1      10.320  11.649  19.987  0.00  0.00    +0.000 A 
ATOM     14  C   UNL     1      10.119  12.709  19.096  0.00  0.00    +0.000 A 
ATOM     15  C   UNL     1      10.721  14.058  19.354  0.00  0.00    +0.000 C 
ATOM     16  C   UNL     1       9.321  12.506  17.965  0.00  0.00    +0.000 A 
ATOM     17  C   UNL     1       8.744  11.258  17.724  0.00  0.00    +0.000 A 
ENDBRANCH   7  11
BRANCH   1  18
ATOM     18  C   UNL     1       5.461   4.020  16.087  0.00  0.00    +0.000 C 
ATOM     19  O   UNL     1       5.488   3.941  14.868  0.00  0.00    +0.000 OA
BRANCH  18  20
ATOM     20  O   UNL     1       4.620   3.323  16.896  0.00  0.00    +0.000 OA
BRANCH  20  22
ATOM     21  C   UNL     1       2.594   3.111  18.136  0.00  0.00    +0.000 C 
ATOM     22  C   UNL     1       3.388   3.998  17.193  0.00  0.00    +0.000 C 
ENDBRANCH  20  22
ENDBRANCH  18  20
ENDBRANCH   1  18
TORSDOF 4
ENDMDL
