MODEL 1
REMARK VINA RESULT:      -7.3      0.000      0.000
REMARK  Name = 
REMARK  16 active torsions:
REMARK  status: ('A' for Active; 'I' for Inactive)
REMARK    1  A    between atoms: C_1  and  O_2
REMARK    2  A    between atoms: O_2  and  C_3
REMARK    3  A    between atoms: C_3  and  C_4
REMARK    4  A    between atoms: C_4  and  O_6
REMARK    5  A    between atoms: O_6  and  C_7
REMARK    6  A    between atoms: C_7  and  C_8
REMARK    7  A    between atoms: C_8  and  C_9
REMARK    8  A    between atoms: C_9  and  N_10
REMARK    9  A    between atoms: N_10  and  C_11
REMARK   10  A    between atoms: N_10  and  C_12
REMARK   11  A    between atoms: C_12  and  C_13
REMARK   12  A    between atoms: C_13  and  C_14
REMARK   13  A    between atoms: C_14  and  C_15
REMARK   14  A    between atoms: C_33  and  C_34
REMARK   15  A    between atoms: C_34  and  C_35
REMARK   16  A    between atoms: C_34  and  C_36
REMARK                            x       y       z     vdW  Elec       q    Type
REMARK                         _______ _______ _______ _____ _____    ______ ____
ROOT
ATOM      1  C   UNL     1       2.643   5.593  19.109  0.00  0.00    +0.000 C 
ATOM      2  C   UNL     1       2.468   6.016  17.636  0.00  0.00    +0.000 C 
ATOM      3  C   UNL     1       3.645   6.808  17.070  0.00  0.00    +0.000 C 
ATOM      4  C   UNL     1       4.986   6.460  17.667  0.00  0.00    +0.000 A 
ATOM      5  C   UNL     1       6.103   7.212  17.267  0.00  0.00    +0.000 A 
ATOM      6  C   UNL     1       7.331   7.022  17.885  0.00  0.00    +0.000 A 
ATOM      7  F   UNL     1       8.380   7.764  17.506  0.00  0.00    +0.000 F 
ATOM      8  C   UNL     1       7.480   6.100  18.910  0.00  0.00    +0.000 A 
ATOM      9  C   UNL     1       6.380   5.349  19.320  0.00  0.00    +0.000 A 
ATOM     10  C   UNL     1       5.130   5.502  18.697  0.00  0.00    +0.000 A 
ATOM     11  C   UNL     1       3.929   4.670  19.183  0.00  0.00    +0.000 C 
ENDROOT
BRANCH  11  12
ATOM     12  C   UNL     1       3.894   3.293  18.411  0.00  0.00    +0.000 C 
ATOM     13  C   UNL     1       4.701   3.346  17.098  0.00  0.00    +0.000 C 
ATOM     14  C   UNL     1       4.434   2.093  19.194  0.00  0.00    +0.000 C 
ENDBRANCH  11  12
BRANCH   1  15
ATOM     15  O   UNL     1       1.406   4.891  19.418  0.00  0.00    +0.000 OA
BRANCH  15  16
ATOM     16  C   UNL     1       1.094   3.725  18.793  0.00  0.00    +0.000 C 
ATOM     17  O   UNL     1       0.915   3.598  17.591  0.00  0.00    +0.000 OA
BRANCH  16  18
ATOM     18  C   UNL     1       0.936   2.611  19.831  0.00  0.00    +0.000 C 
BRANCH  18  20
ATOM     19  C   UNL     1       2.176   2.673  21.813  0.00  0.00    +0.000 C 
ATOM     20  O   UNL     1       0.953   3.045  21.182  0.00  0.00    +0.000 OA
ENDBRANCH  18  20
ENDBRANCH  16  18
ENDBRANCH  15  16
ENDBRANCH   1  15
BRANCH   1  21
ATOM     21  C   UNL     1       2.805   6.837  20.058  0.00  0.00    +0.000 C 
BRANCH  21  22
ATOM     22  C   UNL     1       1.685   7.051  21.092  0.00  0.00    +0.000 C 
BRANCH  22  23
ATOM     23  N   UNL     1       0.905   8.294  20.864  0.00  0.00    +0.000 NA
ATOM     24  C   UNL     1       0.611   9.009  22.112  0.00  0.00    +0.000 C 
BRANCH  23  25
ATOM     25  C   UNL     1       1.598   9.218  19.948  0.00  0.00    +0.000 C 
BRANCH  25  26
ATOM     26  C   UNL     1       0.800   9.596  18.704  0.00  0.00    +0.000 C 
BRANCH  26  27
ATOM     27  C   UNL     1       0.567  11.105  18.578  0.00  0.00    +0.000 C 
BRANCH  27  28
ATOM     28  C   UNL     1      -0.886  11.358  18.384  0.00  0.00    +0.000 A 
ATOM     29  N   UNL     1      -1.713  11.796  19.310  0.00  0.00    +0.000 NA
ATOM     30  C   UNL     1      -2.954  11.781  18.737  0.00  0.00    +0.000 A 
ATOM     31  C   UNL     1      -4.201  12.071  19.306  0.00  0.00    +0.000 A 
ATOM     32  C   UNL     1      -5.340  11.936  18.511  0.00  0.00    +0.000 A 
ATOM     33  C   UNL     1      -5.236  11.589  17.161  0.00  0.00    +0.000 A 
ATOM     34  C   UNL     1      -3.993  11.318  16.571  0.00  0.00    +0.000 A 
ATOM     35  C   UNL     1      -2.879  11.389  17.407  0.00  0.00    +0.000 A 
ATOM     36  N   UNL     1      -1.554  11.091  17.216  0.00  0.00    +0.000 N 
ATOM     37  H   UNL     1      -1.154  10.671  16.388  0.00  0.00    +0.000 HD
ENDBRANCH  27  28
ENDBRANCH  26  27
ENDBRANCH  25  26
ENDBRANCH  23  25
ENDBRANCH  22  23
ENDBRANCH  21  22
ENDBRANCH   1  21
TORSDOF 12
ENDMDL
MODEL 2
REMARK VINA RESULT:      -7.3      0.990      1.780
REMARK  Name = 
REMARK  16 active torsions:
REMARK  status: ('A' for Active; 'I' for Inactive)
REMARK    1  A    between atoms: C_1  and  O_2
REMARK    2  A    between atoms: O_2  and  C_3
REMARK    3  A    between atoms: C_3  and  C_4
REMARK    4  A    between atoms: C_4  and  O_6
REMARK    5  A    between atoms: O_6  and  C_7
REMARK    6  A    between atoms: C_7  and  C_8
REMARK    7  A    between atoms: C_8  and  C_9
REMARK    8  A    between atoms: C_9  and  N_10
REMARK    9  A    between atoms: N_10  and  C_11
REMARK   10  A    between atoms: N_10  and  C_12
REMARK   11  A    between atoms: C_12  and  C_13
REMARK   12  A    between atoms: C_13  and  C_14
REMARK   13  A    between atoms: C_14  and  C_15
REMARK   14  A    between atoms: C_33  and  C_34
REMARK   15  A    between atoms: C_34  and  C_35
REMARK   16  A    between atoms: C_34  and  C_36
REMARK                            x       y       z     vdW  Elec       q    Type
REMARK                         _______ _______ _______ _____ _____    ______ ____
ROOT
ATOM      1  C   UNL     1       2.685   5.510  19.443  0.00  0.00    +0.000 C 
ATOM      2  C   UNL     1       2.347   5.709  17.950  0.00  0.00    +0.000 C 
ATOM      3  C   UNL     1       3.419   6.459  17.163  0.00  0.00    +0.000 C 
ATOM      4  C   UNL     1       4.828   6.259  17.662  0.00  0.00    +0.000 A 
ATOM      5  C   UNL     1       5.858   6.991  17.049  0.00  0.00    +0.000 A 
ATOM      6  C   UNL     1       7.148   6.944  17.559  0.00  0.00    +0.000 A 
ATOM      7  F   UNL     1       8.113   7.668  16.975  0.00  0.00    +0.000 F 
ATOM      8  C   UNL     1       7.445   6.187  18.681  0.00  0.00    +0.000 A 
ATOM      9  C   UNL     1       6.433   5.456  19.302  0.00  0.00    +0.000 A 
ATOM     10  C   UNL     1       5.123   5.466  18.795  0.00  0.00    +0.000 A 
ATOM     11  C   UNL     1       4.023   4.662  19.511  0.00  0.00    +0.000 C 
ENDROOT
BRANCH  11  12
ATOM     12  C   UNL     1       3.991   3.188  18.946  0.00  0.00    +0.000 C 
ATOM     13  C   UNL     1       4.715   3.074  17.589  0.00  0.00    +0.000 C 
ATOM     14  C   UNL     1       4.623   2.129  19.854  0.00  0.00    +0.000 C 
ENDBRANCH  11  12
BRANCH   1  15
ATOM     15  O   UNL     1       1.525   4.808  19.971  0.00  0.00    +0.000 OA
BRANCH  15  16
ATOM     16  C   UNL     1       1.657   3.910  20.983  0.00  0.00    +0.000 C 
ATOM     17  O   UNL     1       2.284   4.100  22.014  0.00  0.00    +0.000 OA
BRANCH  16  18
ATOM     18  C   UNL     1       0.957   2.603  20.605  0.00  0.00    +0.000 C 
BRANCH  18  20
ATOM     19  C   UNL     1       0.957   1.918  18.368  0.00  0.00    +0.000 C 
ATOM     20  O   UNL     1       0.249   2.636  19.375  0.00  0.00    +0.000 OA
ENDBRANCH  18  20
ENDBRANCH  16  18
ENDBRANCH  15  16
ENDBRANCH   1  15
BRANCH   1  21
ATOM     21  C   UNL     1       2.867   6.883  20.188  0.00  0.00    +0.000 C 
BRANCH  21  22
ATOM     22  C   UNL     1       1.586   7.522  20.753  0.00  0.00    +0.000 C 
BRANCH  22  23
ATOM     23  N   UNL     1       1.383   8.925  20.307  0.00  0.00    +0.000 NA
ATOM     24  C   UNL     1       1.489   9.071  18.851  0.00  0.00    +0.000 C 
BRANCH  23  25
ATOM     25  C   UNL     1       0.076   9.454  20.738  0.00  0.00    +0.000 C 
BRANCH  25  26
ATOM     26  C   UNL     1       0.122  10.867  21.313  0.00  0.00    +0.000 C 
BRANCH  26  27
ATOM     27  C   UNL     1       0.015  11.954  20.239  0.00  0.00    +0.000 C 
BRANCH  27  28
ATOM     28  C   UNL     1      -1.299  11.831  19.551  0.00  0.00    +0.000 A 
ATOM     29  N   UNL     1      -1.475  11.417  18.315  0.00  0.00    +0.000 NA
ATOM     30  C   UNL     1      -2.811  11.561  18.061  0.00  0.00    +0.000 A 
ATOM     31  C   UNL     1      -3.520  11.346  16.872  0.00  0.00    +0.000 A 
ATOM     32  C   UNL     1      -4.890  11.613  16.859  0.00  0.00    +0.000 A 
ATOM     33  C   UNL     1      -5.552  12.017  18.022  0.00  0.00    +0.000 A 
ATOM     34  C   UNL     1      -4.861  12.214  19.225  0.00  0.00    +0.000 A 
ATOM     35  C   UNL     1      -3.482  12.012  19.191  0.00  0.00    +0.000 A 
ATOM     36  N   UNL     1      -2.490  12.209  20.117  0.00  0.00    +0.000 N 
ATOM     37  H   UNL     1      -2.604  12.636  21.026  0.00  0.00    +0.000 HD
ENDBRANCH  27  28
ENDBRANCH  26  27
ENDBRANCH  25  26
ENDBRANCH  23  25
ENDBRANCH  22  23
ENDBRANCH  21  22
ENDBRANCH   1  21
TORSDOF 12
ENDMDL
MODEL 3
REMARK VINA RESULT:      -7.2      4.361      9.945
REMARK  Name = 
REMARK  16 active torsions:
REMARK  status: ('A' for Active; 'I' for Inactive)
REMARK    1  A    between atoms: C_1  and  O_2
REMARK    2  A    between atoms: O_2  and  C_3
REMARK    3  A    between atoms: C_3  and  C_4
REMARK    4  A    between atoms: C_4  and  O_6
REMARK    5  A    between atoms: O_6  and  C_7
REMARK    6  A    between atoms: C_7  and  C_8
REMARK    7  A    between atoms: C_8  and  C_9
REMARK    8  A    between atoms: C_9  and  N_10
REMARK    9  A    between atoms: N_10  and  C_11
REMARK   10  A    between atoms: N_10  and  C_12
REMARK   11  A    between atoms: C_12  and  C_13
REMARK   12  A    between atoms: C_13  and  C_14
REMARK   13  A    between atoms: C_14  and  C_15
REMARK   14  A    between atoms: C_33  and  C_34
REMARK   15  A    between atoms: C_34  and  C_35
REMARK   16  A    between atoms: C_34  and  C_36
REMARK                            x       y       z     vdW  Elec       q    Type
REMARK                         _______ _______ _______ _____ _____    ______ ____
ROOT
ATOM      1  C   UNL     1      -1.465  12.309  19.895  0.00  0.00    +0.000 C 
ATOM      2  C   UNL     1      -2.993  12.493  19.789  0.00  0.00    +0.000 C 
ATOM      3  C   UNL     1      -3.679  12.793  21.121  0.00  0.00    +0.000 C 
ATOM      4  C   UNL     1      -2.831  13.549  22.113  0.00  0.00    +0.000 A 
ATOM      5  C   UNL     1      -3.357  13.779  23.394  0.00  0.00    +0.000 A 
ATOM      6  C   UNL     1      -2.568  14.349  24.383  0.00  0.00    +0.000 A 
ATOM      7  F   UNL     1      -3.080  14.539  25.607  0.00  0.00    +0.000 F 
ATOM      8  C   UNL     1      -1.249  14.694  24.133  0.00  0.00    +0.000 A 
ATOM      9  C   UNL     1      -0.711  14.470  22.866  0.00  0.00    +0.000 A 
ATOM     10  C   UNL     1      -1.493  13.916  21.839  0.00  0.00    +0.000 A 
ATOM     11  C   UNL     1      -0.866  13.665  20.456  0.00  0.00    +0.000 C 
ENDROOT
BRANCH  11  12
ATOM     12  C   UNL     1      -1.015  14.961  19.565  0.00  0.00    +0.000 C 
ATOM     13  C   UNL     1      -1.540  16.162  20.377  0.00  0.00    +0.000 C 
ATOM     14  C   UNL     1       0.273  15.437  18.887  0.00  0.00    +0.000 C 
ENDBRANCH  11  12
BRANCH   1  15
ATOM     15  O   UNL     1      -1.056  12.014  18.530  0.00  0.00    +0.000 OA
BRANCH  15  16
ATOM     16  C   UNL     1      -1.583  10.954  17.860  0.00  0.00    +0.000 C 
ATOM     17  O   UNL     1      -1.258   9.788  18.024  0.00  0.00    +0.000 OA
BRANCH  16  18
ATOM     18  C   UNL     1      -2.594  11.450  16.825  0.00  0.00    +0.000 C 
BRANCH  18  20
ATOM     19  C   UNL     1      -3.725  10.299  15.132  0.00  0.00    +0.000 C 
ATOM     20  O   UNL     1      -2.479  10.856  15.541  0.00  0.00    +0.000 OA
ENDBRANCH  18  20
ENDBRANCH  16  18
ENDBRANCH  15  16
ENDBRANCH   1  15
BRANCH   1  21
ATOM     21  C   UNL     1      -1.086  11.110  20.839  0.00  0.00    +0.000 C 
BRANCH  21  22
ATOM     22  C   UNL     1       0.415  10.916  21.120  0.00  0.00    +0.000 C 
BRANCH  22  23
ATOM     23  N   UNL     1       0.689  10.256  22.421  0.00  0.00    +0.000 NA
ATOM     24  C   UNL     1      -0.540   9.918  23.149  0.00  0.00    +0.000 C 
BRANCH  23  25
ATOM     25  C   UNL     1       1.489   9.028  22.257  0.00  0.00    +0.000 C 
BRANCH  25  26
ATOM     26  C   UNL     1       0.988   8.085  21.167  0.00  0.00    +0.000 C 
BRANCH  26  27
ATOM     27  C   UNL     1       2.017   7.855  20.055  0.00  0.00    +0.000 C 
BRANCH  27  28
ATOM     28  C   UNL     1       2.162   6.392  19.822  0.00  0.00    +0.000 A 
ATOM     29  N   UNL     1       3.036   5.833  19.013  0.00  0.00    +0.000 NA
ATOM     30  C   UNL     1       2.749   4.496  19.023  0.00  0.00    +0.000 A 
ATOM     31  C   UNL     1       3.319   3.457  18.275  0.00  0.00    +0.000 A 
ATOM     32  C   UNL     1       2.813   2.167  18.439  0.00  0.00    +0.000 A 
ATOM     33  C   UNL     1       1.809   1.904  19.375  0.00  0.00    +0.000 A 
ATOM     34  C   UNL     1       1.244   2.929  20.147  0.00  0.00    +0.000 A 
ATOM     35  C   UNL     1       1.718   4.219  19.911  0.00  0.00    +0.000 A 
ATOM     36  N   UNL     1       1.337   5.450  20.382  0.00  0.00    +0.000 N 
ATOM     37  H   UNL     1       0.539   5.637  20.972  0.00  0.00    +0.000 HD
ENDBRANCH  27  28
ENDBRANCH  26  27
ENDBRANCH  25  26
ENDBRANCH  23  25
ENDBRANCH  22  23
ENDBRANCH  21  22
ENDBRANCH   1  21
TORSDOF 12
ENDMDL
MODEL 4
REMARK VINA RESULT:      -7.0      4.878      9.553
REMARK  Name = 
REMARK  16 active torsions:
REMARK  status: ('A' for Active; 'I' for Inactive)
REMARK    1  A    between atoms: C_1  and  O_2
REMARK    2  A    between atoms: O_2  and  C_3
REMARK    3  A    between atoms: C_3  and  C_4
REMARK    4  A    between atoms: C_4  and  O_6
REMARK    5  A    between atoms: O_6  and  C_7
REMARK    6  A    between atoms: C_7  and  C_8
REMARK    7  A    between atoms: C_8  and  C_9
REMARK    8  A    between atoms: C_9  and  N_10
REMARK    9  A    between atoms: N_10  and  C_11
REMARK   10  A    between atoms: N_10  and  C_12
REMARK   11  A    between atoms: C_12  and  C_13
REMARK   12  A    between atoms: C_13  and  C_14
REMARK   13  A    between atoms: C_14  and  C_15
REMARK   14  A    between atoms: C_33  and  C_34
REMARK   15  A    between atoms: C_34  and  C_35
REMARK   16  A    between atoms: C_34  and  C_36
REMARK                            x       y       z     vdW  Elec       q    Type
REMARK                         _______ _______ _______ _____ _____    ______ ____
ROOT
ATOM      1  C   UNL     1       1.082  13.895  20.577  0.00  0.00    +0.000 C 
ATOM      2  C   UNL     1       1.764  14.540  21.802  0.00  0.00    +0.000 C 
ATOM      3  C   UNL     1       3.263  14.778  21.628  0.00  0.00    +0.000 C 
ATOM      4  C   UNL     1       3.700  15.052  20.212  0.00  0.00    +0.000 A 
ATOM      5  C   UNL     1       5.075  15.186  19.957  0.00  0.00    +0.000 A 
ATOM      6  C   UNL     1       5.537  15.304  18.654  0.00  0.00    +0.000 A 
ATOM      7  F   UNL     1       6.854  15.407  18.429  0.00  0.00    +0.000 F 
ATOM      8  C   UNL     1       4.660  15.283  17.581  0.00  0.00    +0.000 A 
ATOM      9  C   UNL     1       3.292  15.148  17.817  0.00  0.00    +0.000 A 
ATOM     10  C   UNL     1       2.793  15.050  19.127  0.00  0.00    +0.000 A 
ATOM     11  C   UNL     1       1.280  14.885  19.355  0.00  0.00    +0.000 C 
ENDROOT
BRANCH  11  12
ATOM     12  C   UNL     1       0.600  16.308  19.442  0.00  0.00    +0.000 C 
ATOM     13  C   UNL     1       1.639  17.448  19.399  0.00  0.00    +0.000 C 
ATOM     14  C   UNL     1      -0.413  16.615  18.334  0.00  0.00    +0.000 C 
ENDBRANCH  11  12
BRANCH   1  15
ATOM     15  O   UNL     1      -0.305  13.750  20.988  0.00  0.00    +0.000 OA
BRANCH  15  16
ATOM     16  C   UNL     1      -0.646  13.774  22.305  0.00  0.00    +0.000 C 
ATOM     17  O   UNL     1      -0.407  12.886  23.109  0.00  0.00    +0.000 OA
BRANCH  16  18
ATOM     18  C   UNL     1      -1.433  15.051  22.609  0.00  0.00    +0.000 C 
BRANCH  18  20
ATOM     19  C   UNL     1      -3.409  16.085  23.313  0.00  0.00    +0.000 C 
ATOM     20  O   UNL     1      -2.787  14.846  22.982  0.00  0.00    +0.000 OA
ENDBRANCH  18  20
ENDBRANCH  16  18
ENDBRANCH  15  16
ENDBRANCH   1  15
BRANCH   1  21
ATOM     21  C   UNL     1       1.694  12.485  20.244  0.00  0.00    +0.000 C 
BRANCH  21  22
ATOM     22  C   UNL     1       1.094  11.755  19.029  0.00  0.00    +0.000 C 
BRANCH  22  23
ATOM     23  N   UNL     1       0.246  10.594  19.401  0.00  0.00    +0.000 NA
ATOM     24  C   UNL     1      -0.940  10.469  18.546  0.00  0.00    +0.000 C 
BRANCH  23  25
ATOM     25  C   UNL     1       0.997   9.326  19.349  0.00  0.00    +0.000 C 
BRANCH  25  26
ATOM     26  C   UNL     1       1.560   8.978  17.974  0.00  0.00    +0.000 C 
BRANCH  26  27
ATOM     27  C   UNL     1       2.866   8.180  18.046  0.00  0.00    +0.000 C 
BRANCH  27  28
ATOM     28  C   UNL     1       2.582   6.831  18.608  0.00  0.00    +0.000 A 
ATOM     29  N   UNL     1       2.208   5.779  17.912  0.00  0.00    +0.000 NA
ATOM     30  C   UNL     1       1.955   4.798  18.829  0.00  0.00    +0.000 A 
ATOM     31  C   UNL     1       1.450   3.505  18.633  0.00  0.00    +0.000 A 
ATOM     32  C   UNL     1       1.238   2.700  19.753  0.00  0.00    +0.000 A 
ATOM     33  C   UNL     1       1.584   3.144  21.032  0.00  0.00    +0.000 A 
ATOM     34  C   UNL     1       2.112   4.426  21.241  0.00  0.00    +0.000 A 
ATOM     35  C   UNL     1       2.245   5.236  20.114  0.00  0.00    +0.000 A 
ATOM     36  N   UNL     1       2.609   6.548  19.950  0.00  0.00    +0.000 N 
ATOM     37  H   UNL     1       2.787   7.211  20.692  0.00  0.00    +0.000 HD
ENDBRANCH  27  28
ENDBRANCH  26  27
ENDBRANCH  25  26
ENDBRANCH  23  25
ENDBRANCH  22  23
ENDBRANCH  21  22
ENDBRANCH   1  21
TORSDOF 12
ENDMDL
MODEL 5
REMARK VINA RESULT:      -7.0      4.468      9.936
REMARK  Name = 
REMARK  16 active torsions:
REMARK  status: ('A' for Active; 'I' for Inactive)
REMARK    1  A    between atoms: C_1  and  O_2
REMARK    2  A    between atoms: O_2  and  C_3
REMARK    3  A    between atoms: C_3  and  C_4
REMARK    4  A    between atoms: C_4  and  O_6
REMARK    5  A    between atoms: O_6  and  C_7
REMARK    6  A    between atoms: C_7  and  C_8
REMARK    7  A    between atoms: C_8  and  C_9
REMARK    8  A    between atoms: C_9  and  N_10
REMARK    9  A    between atoms: N_10  and  C_11
REMARK   10  A    between atoms: N_10  and  C_12
REMARK   11  A    between atoms: C_12  and  C_13
REMARK   12  A    between atoms: C_13  and  C_14
REMARK   13  A    between atoms: C_14  and  C_15
REMARK   14  A    between atoms: C_33  and  C_34
REMARK   15  A    between atoms: C_34  and  C_35
REMARK   16  A    between atoms: C_34  and  C_36
REMARK                            x       y       z     vdW  Elec       q    Type
REMARK                         _______ _______ _______ _____ _____    ______ ____
ROOT
ATOM      1  C   UNL     1      -1.580  12.453  20.112  0.00  0.00    +0.000 C 
ATOM      2  C   UNL     1      -3.111  12.641  20.068  0.00  0.00    +0.000 C 
ATOM      3  C   UNL     1      -3.741  12.942  21.426  0.00  0.00    +0.000 C 
ATOM      4  C   UNL     1      -2.852  13.695  22.383  0.00  0.00    +0.000 A 
ATOM      5  C   UNL     1      -3.327  13.926  23.685  0.00  0.00    +0.000 A 
ATOM      6  C   UNL     1      -2.497  14.494  24.642  0.00  0.00    +0.000 A 
ATOM      7  F   UNL     1      -2.959  14.684  25.884  0.00  0.00    +0.000 F 
ATOM      8  C   UNL     1      -1.188  14.835  24.339  0.00  0.00    +0.000 A 
ATOM      9  C   UNL     1      -0.702  14.610  23.051  0.00  0.00    +0.000 A 
ATOM     10  C   UNL     1      -1.526  14.059  22.056  0.00  0.00    +0.000 A 
ATOM     11  C   UNL     1      -0.956  13.807  20.649  0.00  0.00    +0.000 C 
ENDROOT
BRANCH  11  12
ATOM     12  C   UNL     1      -1.137  15.103  19.765  0.00  0.00    +0.000 C 
ATOM     13  C   UNL     1      -1.487  16.339  20.618  0.00  0.00    +0.000 C 
ATOM     14  C   UNL     1       0.085  15.497  18.929  0.00  0.00    +0.000 C 
ENDBRANCH  11  12
BRANCH   1  15
ATOM     15  O   UNL     1      -1.227  12.157  18.732  0.00  0.00    +0.000 OA
BRANCH  15  16
ATOM     16  C   UNL     1      -1.323  10.891  18.246  0.00  0.00    +0.000 C 
ATOM     17  O   UNL     1      -0.390  10.112  18.125  0.00  0.00    +0.000 OA
BRANCH  16  18
ATOM     18  C   UNL     1      -2.764  10.614  17.812  0.00  0.00    +0.000 C 
BRANCH  18  20
ATOM     19  C   UNL     1      -2.777  10.654  15.473  0.00  0.00    +0.000 C 
ATOM     20  O   UNL     1      -3.190  11.325  16.660  0.00  0.00    +0.000 OA
ENDBRANCH  18  20
ENDBRANCH  16  18
ENDBRANCH  15  16
ENDBRANCH   1  15
BRANCH   1  21
ATOM     21  C   UNL     1      -1.167  11.252  21.040  0.00  0.00    +0.000 C 
BRANCH  21  22
ATOM     22  C   UNL     1       0.334  11.125  21.356  0.00  0.00    +0.000 C 
BRANCH  22  23
ATOM     23  N   UNL     1       0.618  10.245  22.518  0.00  0.00    +0.000 NA
ATOM     24  C   UNL     1      -0.604   9.690  23.113  0.00  0.00    +0.000 C 
BRANCH  23  25
ATOM     25  C   UNL     1       1.511   9.129  22.156  0.00  0.00    +0.000 C 
BRANCH  25  26
ATOM     26  C   UNL     1       1.178   8.452  20.830  0.00  0.00    +0.000 C 
BRANCH  26  27
ATOM     27  C   UNL     1       1.337   6.929  20.878  0.00  0.00    +0.000 C 
BRANCH  27  28
ATOM     28  C   UNL     1       2.295   6.507  19.820  0.00  0.00    +0.000 A 
ATOM     29  N   UNL     1       2.943   7.319  19.011  0.00  0.00    +0.000 NA
ATOM     30  C   UNL     1       3.621   6.513  18.140  0.00  0.00    +0.000 A 
ATOM     31  C   UNL     1       4.399   6.859  17.028  0.00  0.00    +0.000 A 
ATOM     32  C   UNL     1       4.956   5.834  16.263  0.00  0.00    +0.000 A 
ATOM     33  C   UNL     1       4.801   4.496  16.636  0.00  0.00    +0.000 A 
ATOM     34  C   UNL     1       4.045   4.134  17.760  0.00  0.00    +0.000 A 
ATOM     35  C   UNL     1       3.439   5.174  18.463  0.00  0.00    +0.000 A 
ATOM     36  N   UNL     1       2.561   5.197  19.516  0.00  0.00    +0.000 N 
ATOM     37  H   UNL     1       2.123   4.390  19.940  0.00  0.00    +0.000 HD
ENDBRANCH  27  28
ENDBRANCH  26  27
ENDBRANCH  25  26
ENDBRANCH  23  25
ENDBRANCH  22  23
ENDBRANCH  21  22
ENDBRANCH   1  21
TORSDOF 12
ENDMDL
MODEL 6
REMARK VINA RESULT:      -7.0      2.524      3.257
REMARK  Name = 
REMARK  16 active torsions:
REMARK  status: ('A' for Active; 'I' for Inactive)
REMARK    1  A    between atoms: C_1  and  O_2
REMARK    2  A    between atoms: O_2  and  C_3
REMARK    3  A    between atoms: C_3  and  C_4
REMARK    4  A    between atoms: C_4  and  O_6
REMARK    5  A    between atoms: O_6  and  C_7
REMARK    6  A    between atoms: C_7  and  C_8
REMARK    7  A    between atoms: C_8  and  C_9
REMARK    8  A    between atoms: C_9  and  N_10
REMARK    9  A    between atoms: N_10  and  C_11
REMARK   10  A    between atoms: N_10  and  C_12
REMARK   11  A    between atoms: C_12  and  C_13
REMARK   12  A    between atoms: C_13  and  C_14
REMARK   13  A    between atoms: C_14  and  C_15
REMARK   14  A    between atoms: C_33  and  C_34
REMARK   15  A    between atoms: C_34  and  C_35
REMARK   16  A    between atoms: C_34  and  C_36
REMARK                            x       y       z     vdW  Elec       q    Type
REMARK                         _______ _______ _______ _____ _____    ______ ____
ROOT
ATOM      1  C   UNL     1       2.699   5.470  19.108  0.00  0.00    +0.000 C 
ATOM      2  C   UNL     1       2.530   5.706  17.592  0.00  0.00    +0.000 C 
ATOM      3  C   UNL     1       3.676   6.486  16.951  0.00  0.00    +0.000 C 
ATOM      4  C   UNL     1       5.021   6.283  17.601  0.00  0.00    +0.000 A 
ATOM      5  C   UNL     1       6.106   7.039  17.128  0.00  0.00    +0.000 A 
ATOM      6  C   UNL     1       7.331   6.989  17.779  0.00  0.00    +0.000 A 
ATOM      7  F   UNL     1       8.347   7.735  17.327  0.00  0.00    +0.000 F 
ATOM      8  C   UNL     1       7.507   6.204  18.908  0.00  0.00    +0.000 A 
ATOM      9  C   UNL     1       6.439   5.449  19.391  0.00  0.00    +0.000 A 
ATOM     10  C   UNL     1       5.194   5.462  18.739  0.00  0.00    +0.000 A 
ATOM     11  C   UNL     1       4.029   4.631  19.306  0.00  0.00    +0.000 C 
ENDROOT
BRANCH  11  12
ATOM     12  C   UNL     1       4.078   3.172  18.703  0.00  0.00    +0.000 C 
ATOM     13  C   UNL     1       4.847   3.125  17.368  0.00  0.00    +0.000 C 
ATOM     14  C   UNL     1       4.726   2.116  19.604  0.00  0.00    +0.000 C 
ENDBRANCH  11  12
BRANCH   1  15
ATOM     15  O   UNL     1       1.494   4.746  19.483  0.00  0.00    +0.000 OA
BRANCH  15  16
ATOM     16  C   UNL     1       1.146   3.597  18.843  0.00  0.00    +0.000 C 
ATOM     17  O   UNL     1       0.925   3.498  17.646  0.00  0.00    +0.000 OA
BRANCH  16  18
ATOM     18  C   UNL     1       1.008   2.463  19.861  0.00  0.00    +0.000 C 
BRANCH  18  20
ATOM     19  C   UNL     1       2.140   2.607  21.904  0.00  0.00    +0.000 C 
ATOM     20  O   UNL     1       0.922   2.880  21.215  0.00  0.00    +0.000 OA
ENDBRANCH  18  20
ENDBRANCH  16  18
ENDBRANCH  15  16
ENDBRANCH   1  15
BRANCH   1  21
ATOM     21  C   UNL     1       2.780   6.824  19.903  0.00  0.00    +0.000 C 
BRANCH  21  22
ATOM     22  C   UNL     1       1.927   7.983  19.358  0.00  0.00    +0.000 C 
BRANCH  22  23
ATOM     23  N   UNL     1       1.638   9.028  20.372  0.00  0.00    +0.000 NA
ATOM     24  C   UNL     1       0.839  10.132  19.828  0.00  0.00    +0.000 C 
BRANCH  23  25
ATOM     25  C   UNL     1       0.935   8.475  21.545  0.00  0.00    +0.000 C 
BRANCH  25  26
ATOM     26  C   UNL     1       0.729   9.466  22.687  0.00  0.00    +0.000 C 
BRANCH  26  27
ATOM     27  C   UNL     1      -0.742   9.624  23.084  0.00  0.00    +0.000 C 
BRANCH  27  28
ATOM     28  C   UNL     1      -1.109  11.066  23.025  0.00  0.00    +0.000 A 
ATOM     29  N   UNL     1      -0.292  12.047  22.705  0.00  0.00    +0.000 NA
ATOM     30  C   UNL     1      -1.007  13.198  22.883  0.00  0.00    +0.000 A 
ATOM     31  C   UNL     1      -0.592  14.531  22.764  0.00  0.00    +0.000 A 
ATOM     32  C   UNL     1      -1.515  15.540  23.045  0.00  0.00    +0.000 A 
ATOM     33  C   UNL     1      -2.839  15.231  23.369  0.00  0.00    +0.000 A 
ATOM     34  C   UNL     1      -3.275  13.903  23.470  0.00  0.00    +0.000 A 
ATOM     35  C   UNL     1      -2.315  12.915  23.256  0.00  0.00    +0.000 A 
ATOM     36  N   UNL     1      -2.344  11.549  23.374  0.00  0.00    +0.000 N 
ATOM     37  H   UNL     1      -3.114  11.002  23.733  0.00  0.00    +0.000 HD
ENDBRANCH  27  28
ENDBRANCH  26  27
ENDBRANCH  25  26
ENDBRANCH  23  25
ENDBRANCH  22  23
ENDBRANCH  21  22
ENDBRANCH   1  21
TORSDOF 12
ENDMDL
MODEL 7
REMARK VINA RESULT:      -7.0      3.539      5.762
REMARK  Name = 
REMARK  16 active torsions:
REMARK  status: ('A' for Active; 'I' for Inactive)
REMARK    1  A    between atoms: C_1  and  O_2
REMARK    2  A    between atoms: O_2  and  C_3
REMARK    3  A    between atoms: C_3  and  C_4
REMARK    4  A    between atoms: C_4  and  O_6
REMARK    5  A    between atoms: O_6  and  C_7
REMARK    6  A    between atoms: C_7  and  C_8
REMARK    7  A    between atoms: C_8  and  C_9
REMARK    8  A    between atoms: C_9  and  N_10
REMARK    9  A    between atoms: N_10  and  C_11
REMARK   10  A    between atoms: N_10  and  C_12
REMARK   11  A    between atoms: C_12  and  C_13
REMARK   12  A    between atoms: C_13  and  C_14
REMARK   13  A    between atoms: C_14  and  C_15
REMARK   14  A    between atoms: C_33  and  C_34
REMARK   15  A    between atoms: C_34  and  C_35
REMARK   16  A    between atoms: C_34  and  C_36
REMARK                            x       y       z     vdW  Elec       q    Type
REMARK                         _______ _______ _______ _____ _____    ______ ____
ROOT
ATOM      1  C   UNL     1       5.858   6.182  17.697  0.00  0.00    +0.000 C 
ATOM      2  C   UNL     1       6.697   5.295  18.641  0.00  0.00    +0.000 C 
ATOM      3  C   UNL     1       5.887   4.231  19.380  0.00  0.00    +0.000 C 
ATOM      4  C   UNL     1       4.684   3.717  18.630  0.00  0.00    +0.000 A 
ATOM      5  C   UNL     1       3.836   2.808  19.283  0.00  0.00    +0.000 A 
ATOM      6  C   UNL     1       2.646   2.410  18.689  0.00  0.00    +0.000 A 
ATOM      7  F   UNL     1       1.839   1.560  19.338  0.00  0.00    +0.000 F 
ATOM      8  C   UNL     1       2.266   2.905  17.452  0.00  0.00    +0.000 A 
ATOM      9  C   UNL     1       3.096   3.810  16.792  0.00  0.00    +0.000 A 
ATOM     10  C   UNL     1       4.318   4.213  17.358  0.00  0.00    +0.000 A 
ATOM     11  C   UNL     1       5.205   5.227  16.614  0.00  0.00    +0.000 C 
ENDROOT
BRANCH  11  12
ATOM     12  C   UNL     1       6.171   4.460  15.628  0.00  0.00    +0.000 C 
ATOM     13  C   UNL     1       5.656   3.044  15.299  0.00  0.00    +0.000 C 
ATOM     14  C   UNL     1       6.408   5.149  14.280  0.00  0.00    +0.000 C 
ENDBRANCH  11  12
BRANCH   1  15
ATOM     15  O   UNL     1       6.829   7.112  17.142  0.00  0.00    +0.000 OA
BRANCH  15  16
ATOM     16  C   UNL     1       7.810   7.641  17.921  0.00  0.00    +0.000 C 
ATOM     17  O   UNL     1       8.458   7.022  18.751  0.00  0.00    +0.000 OA
BRANCH  16  18
ATOM     18  C   UNL     1       7.931   9.142  17.648  0.00  0.00    +0.000 C 
BRANCH  18  20
ATOM     19  C   UNL     1       9.395  10.914  18.082  0.00  0.00    +0.000 C 
ATOM     20  O   UNL     1       8.598   9.883  18.658  0.00  0.00    +0.000 OA
ENDBRANCH  18  20
ENDBRANCH  16  18
ENDBRANCH  15  16
ENDBRANCH   1  15
BRANCH   1  21
ATOM     21  C   UNL     1       4.743   6.971  18.476  0.00  0.00    +0.000 C 
BRANCH  21  22
ATOM     22  C   UNL     1       3.516   7.402  17.652  0.00  0.00    +0.000 C 
BRANCH  22  23
ATOM     23  N   UNL     1       2.240   7.311  18.407  0.00  0.00    +0.000 NA
ATOM     24  C   UNL     1       2.318   6.367  19.528  0.00  0.00    +0.000 C 
BRANCH  23  25
ATOM     25  C   UNL     1       1.816   8.624  18.928  0.00  0.00    +0.000 C 
BRANCH  25  26
ATOM     26  C   UNL     1       0.983   9.454  17.956  0.00  0.00    +0.000 C 
BRANCH  26  27
ATOM     27  C   UNL     1      -0.055  10.336  18.658  0.00  0.00    +0.000 C 
BRANCH  27  28
ATOM     28  C   UNL     1       0.448  11.736  18.704  0.00  0.00    +0.000 A 
ATOM     29  N   UNL     1      -0.248  12.782  19.095  0.00  0.00    +0.000 NA
ATOM     30  C   UNL     1       0.556  13.866  18.876  0.00  0.00    +0.000 A 
ATOM     31  C   UNL     1       0.277  15.229  19.040  0.00  0.00    +0.000 A 
ATOM     32  C   UNL     1       1.265  16.154  18.700  0.00  0.00    +0.000 A 
ATOM     33  C   UNL     1       2.526  15.730  18.272  0.00  0.00    +0.000 A 
ATOM     34  C   UNL     1       2.828  14.369  18.124  0.00  0.00    +0.000 A 
ATOM     35  C   UNL     1       1.799  13.470  18.401  0.00  0.00    +0.000 A 
ATOM     36  N   UNL     1       1.693  12.109  18.267  0.00  0.00    +0.000 N 
ATOM     37  H   UNL     1       2.379  11.500  17.844  0.00  0.00    +0.000 HD
ENDBRANCH  27  28
ENDBRANCH  26  27
ENDBRANCH  25  26
ENDBRANCH  23  25
ENDBRANCH  22  23
ENDBRANCH  21  22
ENDBRANCH   1  21
TORSDOF 12
ENDMDL
MODEL 8
REMARK VINA RESULT:      -6.8      3.788      6.091
REMARK  Name = 
REMARK  16 active torsions:
REMARK  status: ('A' for Active; 'I' for Inactive)
REMARK    1  A    between atoms: C_1  and  O_2
REMARK    2  A    between atoms: O_2  and  C_3
REMARK    3  A    between atoms: C_3  and  C_4
REMARK    4  A    between atoms: C_4  and  O_6
REMARK    5  A    between atoms: O_6  and  C_7
REMARK    6  A    between atoms: C_7  and  C_8
REMARK    7  A    between atoms: C_8  and  C_9
REMARK    8  A    between atoms: C_9  and  N_10
REMARK    9  A    between atoms: N_10  and  C_11
REMARK   10  A    between atoms: N_10  and  C_12
REMARK   11  A    between atoms: C_12  and  C_13
REMARK   12  A    between atoms: C_13  and  C_14
REMARK   13  A    between atoms: C_14  and  C_15
REMARK   14  A    between atoms: C_33  and  C_34
REMARK   15  A    between atoms: C_34  and  C_35
REMARK   16  A    between atoms: C_34  and  C_36
REMARK                            x       y       z     vdW  Elec       q    Type
REMARK                         _______ _______ _______ _____ _____    ______ ____
ROOT
ATOM      1  C   UNL     1       5.129   6.397  17.567  0.00  0.00    +0.000 C 
ATOM      2  C   UNL     1       6.149   5.741  18.522  0.00  0.00    +0.000 C 
ATOM      3  C   UNL     1       5.579   4.592  19.351  0.00  0.00    +0.000 C 
ATOM      4  C   UNL     1       4.472   3.818  18.681  0.00  0.00    +0.000 A 
ATOM      5  C   UNL     1       3.832   2.807  19.417  0.00  0.00    +0.000 A 
ATOM      6  C   UNL     1       2.722   2.158  18.896  0.00  0.00    +0.000 A 
ATOM      7  F   UNL     1       2.111   1.213  19.623  0.00  0.00    +0.000 F 
ATOM      8  C   UNL     1       2.217   2.496  17.650  0.00  0.00    +0.000 A 
ATOM      9  C   UNL     1       2.840   3.499  16.909  0.00  0.00    +0.000 A 
ATOM     10  C   UNL     1       3.979   4.157  17.400  0.00  0.00    +0.000 A 
ATOM     11  C   UNL     1       4.635   5.272  16.566  0.00  0.00    +0.000 C 
ENDROOT
BRANCH  11  12
ATOM     12  C   UNL     1       5.698   4.641  15.583  0.00  0.00    +0.000 C 
ATOM     13  C   UNL     1       5.910   3.137  15.850  0.00  0.00    +0.000 C 
ATOM     14  C   UNL     1       5.363   4.765  14.094  0.00  0.00    +0.000 C 
ENDBRANCH  11  12
BRANCH   1  15
ATOM     15  O   UNL     1       5.888   7.457  16.922  0.00  0.00    +0.000 OA
BRANCH  15  16
ATOM     16  C   UNL     1       7.217   7.610  17.169  0.00  0.00    +0.000 C 
ATOM     17  O   UNL     1       8.075   6.770  16.943  0.00  0.00    +0.000 OA
BRANCH  16  18
ATOM     18  C   UNL     1       7.463   8.966  17.834  0.00  0.00    +0.000 C 
BRANCH  18  20
ATOM     19  C   UNL     1       9.132  10.043  19.069  0.00  0.00    +0.000 C 
ATOM     20  O   UNL     1       8.817   9.392  17.841  0.00  0.00    +0.000 OA
ENDBRANCH  18  20
ENDBRANCH  16  18
ENDBRANCH  15  16
ENDBRANCH   1  15
BRANCH   1  21
ATOM     21  C   UNL     1       3.909   7.009  18.349  0.00  0.00    +0.000 C 
BRANCH  21  22
ATOM     22  C   UNL     1       3.046   8.020  17.573  0.00  0.00    +0.000 C 
BRANCH  22  23
ATOM     23  N   UNL     1       1.776   8.360  18.263  0.00  0.00    +0.000 NA
ATOM     24  C   UNL     1       1.838   8.111  19.708  0.00  0.00    +0.000 C 
BRANCH  23  25
ATOM     25  C   UNL     1       1.392   9.767  18.046  0.00  0.00    +0.000 C 
BRANCH  25  26
ATOM     26  C   UNL     1       0.533  10.369  19.154  0.00  0.00    +0.000 C 
BRANCH  26  27
ATOM     27  C   UNL     1       0.114  11.815  18.868  0.00  0.00    +0.000 C 
BRANCH  27  28
ATOM     28  C   UNL     1       1.307  12.698  18.980  0.00  0.00    +0.000 A 
ATOM     29  N   UNL     1       1.927  13.002  20.100  0.00  0.00    +0.000 NA
ATOM     30  C   UNL     1       2.888  13.912  19.757  0.00  0.00    +0.000 A 
ATOM     31  C   UNL     1       3.774  14.623  20.578  0.00  0.00    +0.000 A 
ATOM     32  C   UNL     1       4.640  15.540  19.980  0.00  0.00    +0.000 A 
ATOM     33  C   UNL     1       4.672  15.697  18.592  0.00  0.00    +0.000 A 
ATOM     34  C   UNL     1       3.807  14.976  17.756  0.00  0.00    +0.000 A 
ATOM     35  C   UNL     1       2.903  14.122  18.384  0.00  0.00    +0.000 A 
ATOM     36  N   UNL     1       1.862  13.362  17.916  0.00  0.00    +0.000 N 
ATOM     37  H   UNL     1       1.513  13.355  16.967  0.00  0.00    +0.000 HD
ENDBRANCH  27  28
ENDBRANCH  26  27
ENDBRANCH  25  26
ENDBRANCH  23  25
ENDBRANCH  22  23
ENDBRANCH  21  22
ENDBRANCH   1  21
TORSDOF 12
ENDMDL
MODEL 9
REMARK VINA RESULT:      -6.8      4.374      9.629
REMARK  Name = 
REMARK  16 active torsions:
REMARK  status: ('A' for Active; 'I' for Inactive)
REMARK    1  A    between atoms: C_1  and  O_2
REMARK    2  A    between atoms: O_2  and  C_3
REMARK    3  A    between atoms: C_3  and  C_4
REMARK    4  A    between atoms: C_4  and  O_6
REMARK    5  A    between atoms: O_6  and  C_7
REMARK    6  A    between atoms: C_7  and  C_8
REMARK    7  A    between atoms: C_8  and  C_9
REMARK    8  A    between atoms: C_9  and  N_10
REMARK    9  A    between atoms: N_10  and  C_11
REMARK   10  A    between atoms: N_10  and  C_12
REMARK   11  A    between atoms: C_12  and  C_13
REMARK   12  A    between atoms: C_13  and  C_14
REMARK   13  A    between atoms: C_14  and  C_15
REMARK   14  A    between atoms: C_33  and  C_34
REMARK   15  A    between atoms: C_34  and  C_35
REMARK   16  A    between atoms: C_34  and  C_36
REMARK                            x       y       z     vdW  Elec       q    Type
REMARK                         _______ _______ _______ _____ _____    ______ ____
ROOT
ATOM      1  C   UNL     1      -0.633  13.092  20.516  0.00  0.00    +0.000 C 
ATOM      2  C   UNL     1       0.662  13.336  21.319  0.00  0.00    +0.000 C 
ATOM      3  C   UNL     1       1.626  14.323  20.663  0.00  0.00    +0.000 C 
ATOM      4  C   UNL     1       0.967  15.393  19.830  0.00  0.00    +0.000 A 
ATOM      5  C   UNL     1       1.791  16.280  19.118  0.00  0.00    +0.000 A 
ATOM      6  C   UNL     1       1.236  17.194  18.234  0.00  0.00    +0.000 A 
ATOM      7  F   UNL     1       2.040  18.016  17.546  0.00  0.00    +0.000 F 
ATOM      8  C   UNL     1      -0.134  17.247  18.028  0.00  0.00    +0.000 A 
ATOM      9  C   UNL     1      -0.965  16.371  18.726  0.00  0.00    +0.000 A 
ATOM     10  C   UNL     1      -0.434  15.451  19.645  0.00  0.00    +0.000 A 
ATOM     11  C   UNL     1      -1.375  14.486  20.387  0.00  0.00    +0.000 C 
ENDROOT
BRANCH  11  12
ATOM     12  C   UNL     1      -1.894  15.170  21.713  0.00  0.00    +0.000 C 
ATOM     13  C   UNL     1      -1.338  16.598  21.882  0.00  0.00    +0.000 C 
ATOM     14  C   UNL     1      -3.417  15.291  21.831  0.00  0.00    +0.000 C 
ENDBRANCH  11  12
BRANCH   1  15
ATOM     15  O   UNL     1      -1.359  12.118  21.316  0.00  0.00    +0.000 OA
BRANCH  15  16
ATOM     16  C   UNL     1      -0.982  11.849  22.594  0.00  0.00    +0.000 C 
ATOM     17  O   UNL     1      -1.256  12.534  23.567  0.00  0.00    +0.000 OA
BRANCH  16  18
ATOM     18  C   UNL     1      -0.106  10.594  22.619  0.00  0.00    +0.000 C 
BRANCH  18  20
ATOM     19  C   UNL     1      -0.496   8.448  21.771  0.00  0.00    +0.000 C 
ATOM     20  O   UNL     1      -0.809   9.375  22.807  0.00  0.00    +0.000 OA
ENDBRANCH  18  20
ENDBRANCH  16  18
ENDBRANCH  15  16
ENDBRANCH   1  15
BRANCH   1  21
ATOM     21  C   UNL     1      -0.331  12.498  19.091  0.00  0.00    +0.000 C 
BRANCH  21  22
ATOM     22  C   UNL     1      -0.123  10.974  19.022  0.00  0.00    +0.000 C 
BRANCH  22  23
ATOM     23  N   UNL     1       1.095  10.581  18.268  0.00  0.00    +0.000 NA
ATOM     24  C   UNL     1       2.193  11.541  18.437  0.00  0.00    +0.000 C 
BRANCH  23  25
ATOM     25  C   UNL     1       1.576   9.244  18.661  0.00  0.00    +0.000 C 
BRANCH  25  26
ATOM     26  C   UNL     1       2.056   8.376  17.502  0.00  0.00    +0.000 C 
BRANCH  26  27
ATOM     27  C   UNL     1       3.293   7.542  17.851  0.00  0.00    +0.000 C 
BRANCH  27  28
ATOM     28  C   UNL     1       2.860   6.293  18.536  0.00  0.00    +0.000 A 
ATOM     29  N   UNL     1       2.331   5.244  17.944  0.00  0.00    +0.000 NA
ATOM     30  C   UNL     1       1.989   4.383  18.949  0.00  0.00    +0.000 A 
ATOM     31  C   UNL     1       1.317   3.155  18.880  0.00  0.00    +0.000 A 
ATOM     32  C   UNL     1       1.045   2.481  20.071  0.00  0.00    +0.000 A 
ATOM     33  C   UNL     1       1.492   2.981  21.297  0.00  0.00    +0.000 A 
ATOM     34  C   UNL     1       2.185   4.197  21.380  0.00  0.00    +0.000 A 
ATOM     35  C   UNL     1       2.379   4.886  20.183  0.00  0.00    +0.000 A 
ATOM     36  N   UNL     1       2.901   6.121  19.896  0.00  0.00    +0.000 N 
ATOM     37  H   UNL     1       3.188   6.815  20.572  0.00  0.00    +0.000 HD
ENDBRANCH  27  28
ENDBRANCH  26  27
ENDBRANCH  25  26
ENDBRANCH  23  25
ENDBRANCH  22  23
ENDBRANCH  21  22
ENDBRANCH   1  21
TORSDOF 12
ENDMDL
