MODEL 1
REMARK VINA RESULT:      -7.2      0.000      0.000
REMARK  Name = 
REMARK  5 active torsions:
REMARK  status: ('A' for Active; 'I' for Inactive)
REMARK    1  A    between atoms: C_1  and  N_2
REMARK    2  A    between atoms: N_2  and  C_3
REMARK    3  A    between atoms: C_6  and  C_7
REMARK    4  A    between atoms: C_19  and  C_20
REMARK    5  A    between atoms: C_20  and  O_22
REMARK                            x       y       z     vdW  Elec       q    Type
REMARK                         _______ _______ _______ _____ _____    ______ ____
ROOT
ATOM      1  C   UNL     1       4.519   4.646  19.643  0.00  0.00    +0.000 C 
ATOM      2  C   UNL     1       5.886   4.187  19.077  0.00  0.00    +0.000 C 
ATOM      3  C   UNL     1       6.735   5.321  18.539  0.00  0.00    +0.000 C 
ATOM      4  C   UNL     1       6.004   6.068  17.422  0.00  0.00    +0.000 C 
ATOM      5  C   UNL     1       4.618   6.506  17.870  0.00  0.00    +0.000 A 
ATOM      6  C   UNL     1       4.075   7.623  17.200  0.00  0.00    +0.000 A 
ATOM      7  C   UNL     1       2.817   8.108  17.517  0.00  0.00    +0.000 A 
ATOM      8  C   UNL     1       2.091   7.493  18.525  0.00  0.00    +0.000 A 
ATOM      9  C   UNL     1       2.622   6.401  19.250  0.00  0.00    +0.000 A 
ATOM     10  C   UNL     1       3.887   5.842  18.897  0.00  0.00    +0.000 A 
ENDROOT
BRANCH   4  11
ATOM     11  C   UNL     1       6.016   5.316  16.090  0.00  0.00    +0.000 A 
ATOM     12  C   UNL     1       5.098   4.292  15.800  0.00  0.00    +0.000 A 
ATOM     13  C   UNL     1       5.140   3.609  14.585  0.00  0.00    +0.000 A 
ATOM     14  C   UNL     1       6.104   3.937  13.626  0.00  0.00    +0.000 A 
ATOM     15 CL   UNL     1       6.110   3.039  12.150  0.00  0.00    +0.000 Cl
ATOM     16  C   UNL     1       7.020   4.957  13.889  0.00  0.00    +0.000 A 
ATOM     17 CL   UNL     1       8.228   5.433  12.748  0.00  0.00    +0.000 Cl
ATOM     18  C   UNL     1       6.978   5.638  15.116  0.00  0.00    +0.000 A 
ENDBRANCH   4  11
BRANCH   1  20
ATOM     19  C   UNL     1       4.389   2.225  20.010  0.00  0.00    +0.000 C 
ATOM     20  N   UNL     1       3.663   3.443  19.637  0.00  0.00    +0.000 NA
ATOM     21  H   UNL     1       2.942   3.553  20.364  0.00  0.00    +0.000 HD
ENDBRANCH   1  20
BRANCH   9  22
ATOM     22  C   UNL     1       1.766   5.895  20.371  0.00  0.00    +0.000 C 
ATOM     23  O   UNL     1       1.234   4.802  20.400  0.00  0.00    +0.000 OA
BRANCH  22  24
ATOM     24  O   UNL     1       1.614   6.784  21.382  0.00  0.00    +0.000 OA
ATOM     25  H   UNL     1       0.706   6.894  21.715  0.00  0.00    +0.000 HD
ENDBRANCH  22  24
ENDBRANCH   9  22
TORSDOF 4
ENDMDL
MODEL 2
REMARK VINA RESULT:      -6.4      5.877      8.116
REMARK  Name = 
REMARK  5 active torsions:
REMARK  status: ('A' for Active; 'I' for Inactive)
REMARK    1  A    between atoms: C_1  and  N_2
REMARK    2  A    between atoms: N_2  and  C_3
REMARK    3  A    between atoms: C_6  and  C_7
REMARK    4  A    between atoms: C_19  and  C_20
REMARK    5  A    between atoms: C_20  and  O_22
REMARK                            x       y       z     vdW  Elec       q    Type
REMARK                         _______ _______ _______ _____ _____    ______ ____
ROOT
ATOM      1  C   UNL     1      -0.265  12.610  20.709  0.00  0.00    +0.000 C 
ATOM      2  C   UNL     1       1.232  12.230  20.590  0.00  0.00    +0.000 C 
ATOM      3  C   UNL     1       1.681  11.954  19.169  0.00  0.00    +0.000 C 
ATOM      4  C   UNL     1       0.869  10.815  18.551  0.00  0.00    +0.000 C 
ATOM      5  C   UNL     1      -0.625  11.076  18.677  0.00  0.00    +0.000 A 
ATOM      6  C   UNL     1      -1.446  10.443  17.719  0.00  0.00    +0.000 A 
ATOM      7  C   UNL     1      -2.822  10.600  17.739  0.00  0.00    +0.000 A 
ATOM      8  C   UNL     1      -3.395  11.409  18.707  0.00  0.00    +0.000 A 
ATOM      9  C   UNL     1      -2.601  12.096  19.654  0.00  0.00    +0.000 A 
ATOM     10  C   UNL     1      -1.188  11.898  19.696  0.00  0.00    +0.000 A 
ENDROOT
BRANCH   4  11
ATOM     11  C   UNL     1       1.301   9.433  19.044  0.00  0.00    +0.000 A 
ATOM     12  C   UNL     1       0.930   8.939  20.306  0.00  0.00    +0.000 A 
ATOM     13  C   UNL     1       1.352   7.682  20.740  0.00  0.00    +0.000 A 
ATOM     14  C   UNL     1       2.156   6.887  19.917  0.00  0.00    +0.000 A 
ATOM     15 CL   UNL     1       2.656   5.348  20.524  0.00  0.00    +0.000 Cl
ATOM     16  C   UNL     1       2.528   7.354  18.655  0.00  0.00    +0.000 A 
ATOM     17 CL   UNL     1       3.503   6.422  17.574  0.00  0.00    +0.000 Cl
ATOM     18  C   UNL     1       2.107   8.622  18.225  0.00  0.00    +0.000 A 
ENDBRANCH   4  11
BRANCH   1  20
ATOM     19  C   UNL     1      -0.599  10.916  22.449  0.00  0.00    +0.000 C 
ATOM     20  N   UNL     1      -0.632  12.343  22.113  0.00  0.00    +0.000 NA
ATOM     21  H   UNL     1       0.077  12.774  22.723  0.00  0.00    +0.000 HD
ENDBRANCH   1  20
BRANCH   9  22
ATOM     22  C   UNL     1      -3.346  13.005  20.582  0.00  0.00    +0.000 C 
ATOM     23  O   UNL     1      -3.736  12.699  21.692  0.00  0.00    +0.000 OA
BRANCH  22  24
ATOM     24  O   UNL     1      -3.573  14.238  20.068  0.00  0.00    +0.000 OA
ATOM     25  H   UNL     1      -4.361  14.322  19.503  0.00  0.00    +0.000 HD
ENDBRANCH  22  24
ENDBRANCH   9  22
TORSDOF 4
ENDMDL
MODEL 3
REMARK VINA RESULT:      -6.3      4.345      6.317
REMARK  Name = 
REMARK  5 active torsions:
REMARK  status: ('A' for Active; 'I' for Inactive)
REMARK    1  A    between atoms: C_1  and  N_2
REMARK    2  A    between atoms: N_2  and  C_3
REMARK    3  A    between atoms: C_6  and  C_7
REMARK    4  A    between atoms: C_19  and  C_20
REMARK    5  A    between atoms: C_20  and  O_22
REMARK                            x       y       z     vdW  Elec       q    Type
REMARK                         _______ _______ _______ _____ _____    ______ ____
ROOT
ATOM      1  C   UNL     1       2.267   3.147  19.093  0.00  0.00    +0.000 C 
ATOM      2  C   UNL     1       1.076   4.015  18.615  0.00  0.00    +0.000 C 
ATOM      3  C   UNL     1       1.432   4.980  17.503  0.00  0.00    +0.000 C 
ATOM      4  C   UNL     1       2.545   5.933  17.943  0.00  0.00    +0.000 C 
ATOM      5  C   UNL     1       3.740   5.165  18.487  0.00  0.00    +0.000 A 
ATOM      6  C   UNL     1       4.986   5.824  18.409  0.00  0.00    +0.000 A 
ATOM      7  C   UNL     1       6.144   5.227  18.881  0.00  0.00    +0.000 A 
ATOM      8  C   UNL     1       6.073   3.952  19.420  0.00  0.00    +0.000 A 
ATOM      9  C   UNL     1       4.851   3.243  19.473  0.00  0.00    +0.000 A 
ATOM     10  C   UNL     1       3.636   3.862  19.055  0.00  0.00    +0.000 A 
ENDROOT
BRANCH   4  11
ATOM     11  C   UNL     1       2.052   7.048  18.866  0.00  0.00    +0.000 A 
ATOM     12  C   UNL     1       1.867   6.851  20.245  0.00  0.00    +0.000 A 
ATOM     13  C   UNL     1       1.398   7.879  21.063  0.00  0.00    +0.000 A 
ATOM     14  C   UNL     1       1.105   9.134  20.519  0.00  0.00    +0.000 A 
ATOM     15 CL   UNL     1       0.512  10.356  21.587  0.00  0.00    +0.000 Cl
ATOM     16  C   UNL     1       1.290   9.354  19.153  0.00  0.00    +0.000 A 
ATOM     17 CL   UNL     1       0.967  10.881  18.410  0.00  0.00    +0.000 Cl
ATOM     18  C   UNL     1       1.755   8.315  18.332  0.00  0.00    +0.000 A 
ENDBRANCH   4  11
BRANCH   1  20
ATOM     19  C   UNL     1       1.993   3.729  21.459  0.00  0.00    +0.000 C 
ATOM     20  N   UNL     1       1.899   2.676  20.443  0.00  0.00    +0.000 NA
ATOM     21  H   UNL     1       0.904   2.407  20.434  0.00  0.00    +0.000 HD
ENDBRANCH   1  20
BRANCH   9  22
ATOM     22  C   UNL     1       4.941   1.843  19.997  0.00  0.00    +0.000 C 
ATOM     23  O   UNL     1       5.306   1.541  21.117  0.00  0.00    +0.000 OA
BRANCH  22  24
ATOM     24  O   UNL     1       4.582   0.901  19.092  0.00  0.00    +0.000 OA
ATOM     25  H   UNL     1       3.700   1.010  18.694  0.00  0.00    +0.000 HD
ENDBRANCH  22  24
ENDBRANCH   9  22
TORSDOF 4
ENDMDL
MODEL 4
REMARK VINA RESULT:      -6.3      4.480      6.382
REMARK  Name = 
REMARK  5 active torsions:
REMARK  status: ('A' for Active; 'I' for Inactive)
REMARK    1  A    between atoms: C_1  and  N_2
REMARK    2  A    between atoms: N_2  and  C_3
REMARK    3  A    between atoms: C_6  and  C_7
REMARK    4  A    between atoms: C_19  and  C_20
REMARK    5  A    between atoms: C_20  and  O_22
REMARK                            x       y       z     vdW  Elec       q    Type
REMARK                         _______ _______ _______ _____ _____    ______ ____
ROOT
ATOM      1  C   UNL     1       4.696   3.986  18.286  0.00  0.00    +0.000 C 
ATOM      2  C   UNL     1       3.161   3.921  18.486  0.00  0.00    +0.000 C 
ATOM      3  C   UNL     1       2.383   4.801  17.528  0.00  0.00    +0.000 C 
ATOM      4  C   UNL     1       2.802   6.265  17.669  0.00  0.00    +0.000 C 
ATOM      5  C   UNL     1       4.311   6.418  17.546  0.00  0.00    +0.000 A 
ATOM      6  C   UNL     1       4.772   7.680  17.113  0.00  0.00    +0.000 A 
ATOM      7  C   UNL     1       6.124   7.940  16.971  0.00  0.00    +0.000 A 
ATOM      8  C   UNL     1       7.037   6.932  17.243  0.00  0.00    +0.000 A 
ATOM      9  C   UNL     1       6.611   5.642  17.635  0.00  0.00    +0.000 A 
ATOM     10  C   UNL     1       5.227   5.370  17.851  0.00  0.00    +0.000 A 
ENDROOT
BRANCH   4  11
ATOM     11  C   UNL     1       2.209   6.944  18.904  0.00  0.00    +0.000 A 
ATOM     12  C   UNL     1       2.012   6.257  20.114  0.00  0.00    +0.000 A 
ATOM     13  C   UNL     1       1.452   6.893  21.221  0.00  0.00    +0.000 A 
ATOM     14  C   UNL     1       1.076   8.238  21.145  0.00  0.00    +0.000 A 
ATOM     15 CL   UNL     1       0.373   8.959  22.549  0.00  0.00    +0.000 Cl
ATOM     16  C   UNL     1       1.271   8.943  19.955  0.00  0.00    +0.000 A 
ATOM     17 CL   UNL     1       0.850  10.611  19.789  0.00  0.00    +0.000 Cl
ATOM     18  C   UNL     1       1.829   8.297  18.842  0.00  0.00    +0.000 A 
ENDBRANCH   4  11
BRANCH   1  20
ATOM     19  C   UNL     1       4.545   2.391  20.142  0.00  0.00    +0.000 C 
ATOM     20  N   UNL     1       5.282   3.515  19.556  0.00  0.00    +0.000 NA
ATOM     21  H   UNL     1       6.222   3.142  19.362  0.00  0.00    +0.000 HD
ENDBRANCH   1  20
BRANCH   9  22
ATOM     22  C   UNL     1       7.700   4.628  17.806  0.00  0.00    +0.000 C 
ATOM     23  O   UNL     1       8.314   4.435  18.838  0.00  0.00    +0.000 OA
BRANCH  22  24
ATOM     24  O   UNL     1       7.968   3.924  16.681  0.00  0.00    +0.000 OA
ATOM     25  H   UNL     1       7.754   4.369  15.842  0.00  0.00    +0.000 HD
ENDBRANCH  22  24
ENDBRANCH   9  22
TORSDOF 4
ENDMDL
MODEL 5
REMARK VINA RESULT:      -6.2      8.905     10.707
REMARK  Name = 
REMARK  5 active torsions:
REMARK  status: ('A' for Active; 'I' for Inactive)
REMARK    1  A    between atoms: C_1  and  N_2
REMARK    2  A    between atoms: N_2  and  C_3
REMARK    3  A    between atoms: C_6  and  C_7
REMARK    4  A    between atoms: C_19  and  C_20
REMARK    5  A    between atoms: C_20  and  O_22
REMARK                            x       y       z     vdW  Elec       q    Type
REMARK                         _______ _______ _______ _____ _____    ______ ____
ROOT
ATOM      1  C   UNL     1      -3.140  10.827  17.453  0.00  0.00    +0.000 C 
ATOM      2  C   UNL     1      -1.671  10.339  17.389  0.00  0.00    +0.000 C 
ATOM      3  C   UNL     1      -1.051  10.090  18.748  0.00  0.00    +0.000 C 
ATOM      4  C   UNL     1      -1.073  11.360  19.600  0.00  0.00    +0.000 C 
ATOM      5  C   UNL     1      -2.475  11.948  19.670  0.00  0.00    +0.000 A 
ATOM      6  C   UNL     1      -2.757  12.743  20.802  0.00  0.00    +0.000 A 
ATOM      7  C   UNL     1      -3.996  13.337  20.970  0.00  0.00    +0.000 A 
ATOM      8  C   UNL     1      -4.980  13.128  20.016  0.00  0.00    +0.000 A 
ATOM      9  C   UNL     1      -4.749  12.301  18.893  0.00  0.00    +0.000 A 
ATOM     10  C   UNL     1      -3.460  11.733  18.663  0.00  0.00    +0.000 A 
ENDROOT
BRANCH   4  11
ATOM     11  C   UNL     1       0.003  12.371  19.201  0.00  0.00    +0.000 A 
ATOM     12  C   UNL     1       1.335  11.991  18.961  0.00  0.00    +0.000 A 
ATOM     13  C   UNL     1       2.302  12.934  18.616  0.00  0.00    +0.000 A 
ATOM     14  C   UNL     1       1.959  14.285  18.500  0.00  0.00    +0.000 A 
ATOM     15 CL   UNL     1       3.211  15.401  18.086  0.00  0.00    +0.000 Cl
ATOM     16  C   UNL     1       0.640  14.683  18.725  0.00  0.00    +0.000 A 
ATOM     17 CL   UNL     1       0.135  16.330  18.583  0.00  0.00    +0.000 Cl
ATOM     18  C   UNL     1      -0.329  13.732  19.078  0.00  0.00    +0.000 A 
ENDBRANCH   4  11
BRANCH   1  20
ATOM     19  C   UNL     1      -3.166  10.595  15.013  0.00  0.00    +0.000 C 
ATOM     20  N   UNL     1      -3.398  11.483  16.156  0.00  0.00    +0.000 NA
ATOM     21  H   UNL     1      -4.399  11.721  16.106  0.00  0.00    +0.000 HD
ENDBRANCH   1  20
BRANCH   9  22
ATOM     22  C   UNL     1      -5.929  12.092  17.993  0.00  0.00    +0.000 C 
ATOM     23  O   UNL     1      -6.765  11.221  18.135  0.00  0.00    +0.000 OA
BRANCH  22  24
ATOM     24  O   UNL     1      -5.990  12.972  16.965  0.00  0.00    +0.000 OA
ATOM     25  H   UNL     1      -6.313  12.612  16.120  0.00  0.00    +0.000 HD
ENDBRANCH  22  24
ENDBRANCH   9  22
TORSDOF 4
ENDMDL
MODEL 6
REMARK VINA RESULT:      -6.1      8.077     10.612
REMARK  Name = 
REMARK  5 active torsions:
REMARK  status: ('A' for Active; 'I' for Inactive)
REMARK    1  A    between atoms: C_1  and  N_2
REMARK    2  A    between atoms: N_2  and  C_3
REMARK    3  A    between atoms: C_6  and  C_7
REMARK    4  A    between atoms: C_19  and  C_20
REMARK    5  A    between atoms: C_20  and  O_22
REMARK                            x       y       z     vdW  Elec       q    Type
REMARK                         _______ _______ _______ _____ _____    ______ ____
ROOT
ATOM      1  C   UNL     1      -3.908  13.113  21.432  0.00  0.00    +0.000 C 
ATOM      2  C   UNL     1      -2.392  13.380  21.606  0.00  0.00    +0.000 C 
ATOM      3  C   UNL     1      -1.669  13.666  20.305  0.00  0.00    +0.000 C 
ATOM      4  C   UNL     1      -1.819  12.497  19.329  0.00  0.00    +0.000 C 
ATOM      5  C   UNL     1      -3.282  12.123  19.142  0.00  0.00    +0.000 A 
ATOM      6  C   UNL     1      -3.608  11.487  17.925  0.00  0.00    +0.000 A 
ATOM      7  C   UNL     1      -4.906  11.092  17.647  0.00  0.00    +0.000 A 
ATOM      8  C   UNL     1      -5.903  11.348  18.577  0.00  0.00    +0.000 A 
ATOM      9  C   UNL     1      -5.622  12.024  19.786  0.00  0.00    +0.000 A 
ATOM     10  C   UNL     1      -4.283  12.380  20.124  0.00  0.00    +0.000 A 
ENDROOT
BRANCH   4  11
ATOM     11  C   UNL     1      -0.915  11.312  19.668  0.00  0.00    +0.000 A 
ATOM     12  C   UNL     1      -0.936  10.689  20.928  0.00  0.00    +0.000 A 
ATOM     13  C   UNL     1      -0.088   9.621  21.218  0.00  0.00    +0.000 A 
ATOM     14  C   UNL     1       0.803   9.147  20.251  0.00  0.00    +0.000 A 
ATOM     15 CL   UNL     1       1.837   7.831  20.684  0.00  0.00    +0.000 Cl
ATOM     16  C   UNL     1       0.835   9.744  18.989  0.00  0.00    +0.000 A 
ATOM     17 CL   UNL     1       1.895   9.202  17.736  0.00  0.00    +0.000 Cl
ATOM     18  C   UNL     1      -0.015  10.823  18.703  0.00  0.00    +0.000 A 
ENDBRANCH   4  11
BRANCH   1  20
ATOM     19  C   UNL     1      -4.726  13.271  23.737  0.00  0.00    +0.000 C 
ATOM     20  N   UNL     1      -4.324  12.381  22.644  0.00  0.00    +0.000 NA
ATOM     21  H   UNL     1      -5.171  11.838  22.422  0.00  0.00    +0.000 HD
ENDBRANCH   1  20
BRANCH   9  22
ATOM     22  C   UNL     1      -6.810  12.312  20.653  0.00  0.00    +0.000 C 
ATOM     23  O   UNL     1      -7.529  13.287  20.545  0.00  0.00    +0.000 OA
BRANCH  22  24
ATOM     24  O   UNL     1      -7.023  11.378  21.610  0.00  0.00    +0.000 OA
ATOM     25  H   UNL     1      -7.157  10.468  21.290  0.00  0.00    +0.000 HD
ENDBRANCH  22  24
ENDBRANCH   9  22
TORSDOF 4
ENDMDL
MODEL 7
REMARK VINA RESULT:      -6.1      9.132     12.206
REMARK  Name = 
REMARK  5 active torsions:
REMARK  status: ('A' for Active; 'I' for Inactive)
REMARK    1  A    between atoms: C_1  and  N_2
REMARK    2  A    between atoms: N_2  and  C_3
REMARK    3  A    between atoms: C_6  and  C_7
REMARK    4  A    between atoms: C_19  and  C_20
REMARK    5  A    between atoms: C_20  and  O_22
REMARK                            x       y       z     vdW  Elec       q    Type
REMARK                         _______ _______ _______ _____ _____    ______ ____
ROOT
ATOM      1  C   UNL     1      -0.847  12.834  19.877  0.00  0.00    +0.000 C 
ATOM      2  C   UNL     1      -1.472  14.047  20.612  0.00  0.00    +0.000 C 
ATOM      3  C   UNL     1      -1.105  14.126  22.080  0.00  0.00    +0.000 C 
ATOM      4  C   UNL     1      -1.547  12.864  22.822  0.00  0.00    +0.000 C 
ATOM      5  C   UNL     1      -1.027  11.612  22.133  0.00  0.00    +0.000 A 
ATOM      6  C   UNL     1      -0.876  10.471  22.951  0.00  0.00    +0.000 A 
ATOM      7  C   UNL     1      -0.418   9.272  22.432  0.00  0.00    +0.000 A 
ATOM      8  C   UNL     1      -0.085   9.201  21.088  0.00  0.00    +0.000 A 
ATOM      9  C   UNL     1      -0.179  10.334  20.248  0.00  0.00    +0.000 A 
ATOM     10  C   UNL     1      -0.711  11.563  20.744  0.00  0.00    +0.000 A 
ENDROOT
BRANCH   4  11
ATOM     11  C   UNL     1      -3.048  12.832  23.114  0.00  0.00    +0.000 A 
ATOM     12  C   UNL     1      -3.555  12.651  24.412  0.00  0.00    +0.000 A 
ATOM     13  C   UNL     1      -4.929  12.608  24.649  0.00  0.00    +0.000 A 
ATOM     14  C   UNL     1      -5.831  12.748  23.590  0.00  0.00    +0.000 A 
ATOM     15 CL   UNL     1      -7.518  12.668  23.953  0.00  0.00    +0.000 Cl
ATOM     16  C   UNL     1      -5.349  12.938  22.293  0.00  0.00    +0.000 A 
ATOM     17 CL   UNL     1      -6.401  13.138  20.936  0.00  0.00    +0.000 Cl
ATOM     18  C   UNL     1      -3.967  12.974  22.058  0.00  0.00    +0.000 A 
ENDBRANCH   4  11
BRANCH   1  20
ATOM     19  C   UNL     1      -2.986  12.040  18.979  0.00  0.00    +0.000 C 
ATOM     20  N   UNL     1      -1.677  12.628  18.675  0.00  0.00    +0.000 NA
ATOM     21  H   UNL     1      -1.891  13.549  18.265  0.00  0.00    +0.000 HD
ENDBRANCH   1  20
BRANCH   9  22
ATOM     22  C   UNL     1       0.300  10.136  18.842  0.00  0.00    +0.000 C 
ATOM     23  O   UNL     1      -0.418   9.901  17.890  0.00  0.00    +0.000 OA
BRANCH  22  24
ATOM     24  O   UNL     1       1.644  10.231  18.709  0.00  0.00    +0.000 OA
ATOM     25  H   UNL     1       2.169   9.862  19.441  0.00  0.00    +0.000 HD
ENDBRANCH  22  24
ENDBRANCH   9  22
TORSDOF 4
ENDMDL
MODEL 8
REMARK VINA RESULT:      -6.0      8.862     10.641
REMARK  Name = 
REMARK  5 active torsions:
REMARK  status: ('A' for Active; 'I' for Inactive)
REMARK    1  A    between atoms: C_1  and  N_2
REMARK    2  A    between atoms: N_2  and  C_3
REMARK    3  A    between atoms: C_6  and  C_7
REMARK    4  A    between atoms: C_19  and  C_20
REMARK    5  A    between atoms: C_20  and  O_22
REMARK                            x       y       z     vdW  Elec       q    Type
REMARK                         _______ _______ _______ _____ _____    ______ ____
ROOT
ATOM      1  C   UNL     1      -2.281  10.894  17.870  0.00  0.00    +0.000 C 
ATOM      2  C   UNL     1      -0.764  10.625  18.039  0.00  0.00    +0.000 C 
ATOM      3  C   UNL     1      -0.326  10.483  19.482  0.00  0.00    +0.000 C 
ATOM      4  C   UNL     1      -0.658  11.744  20.281  0.00  0.00    +0.000 C 
ATOM      5  C   UNL     1      -2.124  12.121  20.125  0.00  0.00    +0.000 A 
ATOM      6  C   UNL     1      -2.684  12.876  21.178  0.00  0.00    +0.000 A 
ATOM      7  C   UNL     1      -4.007  13.284  21.143  0.00  0.00    +0.000 A 
ATOM      8  C   UNL     1      -4.796  12.924  20.061  0.00  0.00    +0.000 A 
ATOM      9  C   UNL     1      -4.283  12.129  19.011  0.00  0.00    +0.000 A 
ATOM     10  C   UNL     1      -2.906  11.754  18.992  0.00  0.00    +0.000 A 
ENDROOT
BRANCH   4  11
ATOM     11  C   UNL     1       0.310  12.898  20.013  0.00  0.00    +0.000 A 
ATOM     12  C   UNL     1       0.035  13.902  19.069  0.00  0.00    +0.000 A 
ATOM     13  C   UNL     1       0.943  14.934  18.831  0.00  0.00    +0.000 A 
ATOM     14  C   UNL     1       2.150  14.987  19.535  0.00  0.00    +0.000 A 
ATOM     15 CL   UNL     1       3.235  16.283  19.177  0.00  0.00    +0.000 Cl
ATOM     16  C   UNL     1       2.439  14.004  20.484  0.00  0.00    +0.000 A 
ATOM     17 CL   UNL     1       3.900  14.012  21.407  0.00  0.00    +0.000 Cl
ATOM     18  C   UNL     1       1.526  12.964  20.716  0.00  0.00    +0.000 A 
ENDBRANCH   4  11
BRANCH   1  20
ATOM     19  C   UNL     1      -2.763  10.504  15.499  0.00  0.00    +0.000 C 
ATOM     20  N   UNL     1      -2.433  11.493  16.530  0.00  0.00    +0.000 NA
ATOM     21  H   UNL     1      -3.239  12.133  16.549  0.00  0.00    +0.000 HD
ENDBRANCH   1  20
BRANCH   9  22
ATOM     22  C   UNL     1      -5.271  11.741  17.954  0.00  0.00    +0.000 C 
ATOM     23  O   UNL     1      -5.991  10.762  18.001  0.00  0.00    +0.000 OA
BRANCH  22  24
ATOM     24  O   UNL     1      -5.296  12.588  16.897  0.00  0.00    +0.000 OA
ATOM     25  H   UNL     1      -5.957  12.387  16.210  0.00  0.00    +0.000 HD
ENDBRANCH  22  24
ENDBRANCH   9  22
TORSDOF 4
ENDMDL
MODEL 9
REMARK VINA RESULT:      -6.0      7.067      9.489
REMARK  Name = 
REMARK  5 active torsions:
REMARK  status: ('A' for Active; 'I' for Inactive)
REMARK    1  A    between atoms: C_1  and  N_2
REMARK    2  A    between atoms: N_2  and  C_3
REMARK    3  A    between atoms: C_6  and  C_7
REMARK    4  A    between atoms: C_19  and  C_20
REMARK    5  A    between atoms: C_20  and  O_22
REMARK                            x       y       z     vdW  Elec       q    Type
REMARK                         _______ _______ _______ _____ _____    ______ ____
ROOT
ATOM      1  C   UNL     1      -2.521  13.066  20.744  0.00  0.00    +0.000 C 
ATOM      2  C   UNL     1      -0.977  13.086  20.867  0.00  0.00    +0.000 C 
ATOM      3  C   UNL     1      -0.259  13.092  19.533  0.00  0.00    +0.000 C 
ATOM      4  C   UNL     1      -0.636  11.863  18.704  0.00  0.00    +0.000 C 
ATOM      5  C   UNL     1      -2.146  11.729  18.580  0.00  0.00    +0.000 A 
ATOM      6  C   UNL     1      -2.614  11.023  17.451  0.00  0.00    +0.000 A 
ATOM      7  C   UNL     1      -3.969  10.829  17.236  0.00  0.00    +0.000 A 
ATOM      8  C   UNL     1      -4.877  11.357  18.141  0.00  0.00    +0.000 A 
ATOM      9  C   UNL     1      -4.448  12.109  19.259  0.00  0.00    +0.000 A 
ATOM     10  C   UNL     1      -3.056  12.265  19.536  0.00  0.00    +0.000 A 
ENDROOT
BRANCH   4  11
ATOM     11  C   UNL     1       0.064  10.586  19.169  0.00  0.00    +0.000 A 
ATOM     12  C   UNL     1      -0.196  10.003  20.421  0.00  0.00    +0.000 A 
ATOM     13  C   UNL     1       0.469   8.848  20.830  0.00  0.00    +0.000 A 
ATOM     14  C   UNL     1       1.413   8.245  19.993  0.00  0.00    +0.000 A 
ATOM     15 CL   UNL     1       2.212   6.826  20.570  0.00  0.00    +0.000 Cl
ATOM     16  C   UNL     1       1.681   8.802  18.741  0.00  0.00    +0.000 A 
ATOM     17 CL   UNL     1       2.820   8.105  17.643  0.00  0.00    +0.000 Cl
ATOM     18  C   UNL     1       1.014   9.968  18.336  0.00  0.00    +0.000 A 
ENDBRANCH   4  11
BRANCH   1  20
ATOM     19  C   UNL     1      -1.949  12.014  22.883  0.00  0.00    +0.000 C 
ATOM     20  N   UNL     1      -3.016  12.561  22.039  0.00  0.00    +0.000 NA
ATOM     21  H   UNL     1      -3.395  13.355  22.575  0.00  0.00    +0.000 HD
ENDBRANCH   1  20
BRANCH   9  22
ATOM     22  C   UNL     1      -5.540  12.695  20.100  0.00  0.00    +0.000 C 
ATOM     23  O   UNL     1      -6.060  13.777  19.908  0.00  0.00    +0.000 OA
BRANCH  22  24
ATOM     24  O   UNL     1      -5.912  11.904  21.135  0.00  0.00    +0.000 OA
ATOM     25  H   UNL     1      -5.773  12.278  22.023  0.00  0.00    +0.000 HD
ENDBRANCH  22  24
ENDBRANCH   9  22
TORSDOF 4
ENDMDL
