MODEL 1
REMARK VINA RESULT:      -8.4      0.000      0.000
REMARK  Name = 
REMARK  9 active torsions:
REMARK  status: ('A' for Active; 'I' for Inactive)
REMARK    1  A    between atoms: C_1  and  C_2
REMARK    2  A    between atoms: C_5  and  N_6
REMARK    3  A    between atoms: C_7  and  C_8
REMARK    4  A    between atoms: C_10  and  C_11
REMARK    5  A    between atoms: C_11  and  C_13
REMARK    6  A    between atoms: C_13  and  N_14
REMARK    7  A    between atoms: C_16  and  C_17
REMARK    8  A    between atoms: C_17  and  O_19
REMARK    9  A    between atoms: C_28  and  C_29
REMARK                            x       y       z     vdW  Elec       q    Type
REMARK                         _______ _______ _______ _____ _____    ______ ____
ROOT
ATOM      1  C   UNL     1       0.580   8.035  21.047  0.00  0.00    +0.000 C 
ATOM      2  O   UNL     1      -0.554   7.718  21.397  0.00  0.00    +0.000 OA
ENDROOT
BRANCH   1   7
ATOM      3  N   UNL     1       2.978   5.988  19.103  0.00  0.00    +0.000 N 
ATOM      4  C   UNL     1       2.680   5.120  20.159  0.00  0.00    +0.000 A 
ATOM      5  C   UNL     1       3.283   3.775  20.410  0.00  0.00    +0.000 C 
ATOM      6  C   UNL     1       1.784   5.749  20.998  0.00  0.00    +0.000 A 
ATOM      7  C   UNL     1       1.513   7.038  20.492  0.00  0.00    +0.000 A 
ATOM      8  C   UNL     1       2.279   7.184  19.338  0.00  0.00    +0.000 A 
ATOM      9  C   UNL     1       2.267   8.351  18.393  0.00  0.00    +0.000 C 
BRANCH   3  14
ATOM     10  C   UNL     1       6.317   4.823  14.560  0.00  0.00    +0.000 C 
ATOM     11  C   UNL     1       5.442   5.113  15.743  0.00  0.00    +0.000 A 
ATOM     12  C   UNL     1       4.415   4.244  16.115  0.00  0.00    +0.000 A 
ATOM     13  C   UNL     1       3.589   4.546  17.203  0.00  0.00    +0.000 A 
ATOM     14  C   UNL     1       3.811   5.696  17.973  0.00  0.00    +0.000 A 
ATOM     15  C   UNL     1       4.856   6.551  17.606  0.00  0.00    +0.000 A 
ATOM     16  C   UNL     1       5.646   6.277  16.487  0.00  0.00    +0.000 A 
ENDBRANCH   3  14
ENDBRANCH   1   7
BRANCH   1  17
ATOM     17  C   UNL     1       1.111   9.446  21.278  0.00  0.00    +0.000 C 
BRANCH  17  18
ATOM     18  N   UNL     1       0.027  10.411  21.097  0.00  0.00    +0.000 N 
ATOM     19  N   UNL     1      -0.319  10.724  19.802  0.00  0.00    +0.000 NA
ATOM     20  C   UNL     1      -1.268  11.598  19.592  0.00  0.00    +0.000 A 
ATOM     21  C   UNL     1      -1.991  12.294  20.674  0.00  0.00    +0.000 A 
ATOM     22  C   UNL     1      -3.015  13.228  20.473  0.00  0.00    +0.000 A 
ATOM     23  C   UNL     1      -3.626  13.855  21.564  0.00  0.00    +0.000 A 
ATOM     24  C   UNL     1      -3.215  13.566  22.861  0.00  0.00    +0.000 A 
ATOM     25  C   UNL     1      -2.205  12.632  23.071  0.00  0.00    +0.000 A 
ATOM     26  C   UNL     1      -1.606  11.988  21.978  0.00  0.00    +0.000 A 
ATOM     27  C   UNL     1      -0.571  10.969  22.221  0.00  0.00    +0.000 A 
ATOM     28  O   UNL     1      -0.297  10.648  23.376  0.00  0.00    +0.000 OA
BRANCH  20  29
ATOM     29  C   UNL     1      -1.571  11.856  18.101  0.00  0.00    +0.000 C 
ATOM     30  O   UNL     1      -2.243  11.146  17.385  0.00  0.00    +0.000 OA
BRANCH  29  31
ATOM     31  O   UNL     1      -0.964  12.987  17.691  0.00  0.00    +0.000 OA
ATOM     32  H   UNL     1      -1.351  13.749  18.180  0.00  0.00    +0.000 HD
ENDBRANCH  29  31
ENDBRANCH  20  29
ENDBRANCH  17  18
ENDBRANCH   1  17
TORSDOF 6
ENDMDL
MODEL 2
REMARK VINA RESULT:      -8.3      0.518      1.004
REMARK  Name = 
REMARK  9 active torsions:
REMARK  status: ('A' for Active; 'I' for Inactive)
REMARK    1  A    between atoms: C_1  and  C_2
REMARK    2  A    between atoms: C_5  and  N_6
REMARK    3  A    between atoms: C_7  and  C_8
REMARK    4  A    between atoms: C_10  and  C_11
REMARK    5  A    between atoms: C_11  and  C_13
REMARK    6  A    between atoms: C_13  and  N_14
REMARK    7  A    between atoms: C_16  and  C_17
REMARK    8  A    between atoms: C_17  and  O_19
REMARK    9  A    between atoms: C_28  and  C_29
REMARK                            x       y       z     vdW  Elec       q    Type
REMARK                         _______ _______ _______ _____ _____    ______ ____
ROOT
ATOM      1  C   UNL     1       0.860   7.626  20.983  0.00  0.00    +0.000 C 
ATOM      2  O   UNL     1      -0.302   7.310  21.228  0.00  0.00    +0.000 OA
ENDROOT
BRANCH   1   7
ATOM      3  N   UNL     1       3.295   5.675  18.988  0.00  0.00    +0.000 N 
ATOM      4  C   UNL     1       2.994   4.766  20.007  0.00  0.00    +0.000 A 
ATOM      5  C   UNL     1       3.606   3.417  20.214  0.00  0.00    +0.000 C 
ATOM      6  C   UNL     1       2.085   5.354  20.861  0.00  0.00    +0.000 A 
ATOM      7  C   UNL     1       1.807   6.660  20.400  0.00  0.00    +0.000 A 
ATOM      8  C   UNL     1       2.583   6.856  19.260  0.00  0.00    +0.000 A 
ATOM      9  C   UNL     1       2.570   8.057  18.360  0.00  0.00    +0.000 C 
BRANCH   3  14
ATOM     10  C   UNL     1       6.698   4.695  14.449  0.00  0.00    +0.000 C 
ATOM     11  C   UNL     1       5.818   4.964  15.632  0.00  0.00    +0.000 A 
ATOM     12  C   UNL     1       6.072   6.029  16.498  0.00  0.00    +0.000 A 
ATOM     13  C   UNL     1       5.258   6.245  17.615  0.00  0.00    +0.000 A 
ATOM     14  C   UNL     1       4.141   5.433  17.856  0.00  0.00    +0.000 A 
ATOM     15  C   UNL     1       3.881   4.380  16.972  0.00  0.00    +0.000 A 
ATOM     16  C   UNL     1       4.726   4.131  15.887  0.00  0.00    +0.000 A 
ENDBRANCH   3  14
ENDBRANCH   1   7
BRANCH   1  17
ATOM     17  C   UNL     1       1.404   8.996  21.379  0.00  0.00    +0.000 C 
BRANCH  17  18
ATOM     18  N   UNL     1       0.351  10.000  21.229  0.00  0.00    +0.000 N 
ATOM     19  N   UNL     1       0.043  10.393  19.947  0.00  0.00    +0.000 NA
ATOM     20  C   UNL     1      -0.876  11.306  19.766  0.00  0.00    +0.000 A 
ATOM     21  C   UNL     1      -1.602  11.962  20.870  0.00  0.00    +0.000 A 
ATOM     22  C   UNL     1      -2.595  12.936  20.700  0.00  0.00    +0.000 A 
ATOM     23  C   UNL     1      -3.212  13.520  21.810  0.00  0.00    +0.000 A 
ATOM     24  C   UNL     1      -2.838  13.148  23.098  0.00  0.00    +0.000 A 
ATOM     25  C   UNL     1      -1.859  12.175  23.277  0.00  0.00    +0.000 A 
ATOM     26  C   UNL     1      -1.255  11.575  22.162  0.00  0.00    +0.000 A 
ATOM     27  C   UNL     1      -0.255  10.514  22.370  0.00  0.00    +0.000 A 
ATOM     28  O   UNL     1      -0.015  10.123  23.511  0.00  0.00    +0.000 OA
BRANCH  20  29
ATOM     29  C   UNL     1      -1.138  11.652  18.285  0.00  0.00    +0.000 C 
ATOM     30  O   UNL     1      -1.956  11.116  17.569  0.00  0.00    +0.000 OA
BRANCH  29  31
ATOM     31  O   UNL     1      -0.311  12.638  17.884  0.00  0.00    +0.000 OA
ATOM     32  H   UNL     1       0.443  12.239  17.392  0.00  0.00    +0.000 HD
ENDBRANCH  29  31
ENDBRANCH  20  29
ENDBRANCH  17  18
ENDBRANCH   1  17
TORSDOF 6
ENDMDL
MODEL 3
REMARK VINA RESULT:      -8.0      2.221      9.762
REMARK  Name = 
REMARK  9 active torsions:
REMARK  status: ('A' for Active; 'I' for Inactive)
REMARK    1  A    between atoms: C_1  and  C_2
REMARK    2  A    between atoms: C_5  and  N_6
REMARK    3  A    between atoms: C_7  and  C_8
REMARK    4  A    between atoms: C_10  and  C_11
REMARK    5  A    between atoms: C_11  and  C_13
REMARK    6  A    between atoms: C_13  and  N_14
REMARK    7  A    between atoms: C_16  and  C_17
REMARK    8  A    between atoms: C_17  and  O_19
REMARK    9  A    between atoms: C_28  and  C_29
REMARK                            x       y       z     vdW  Elec       q    Type
REMARK                         _______ _______ _______ _____ _____    ______ ____
ROOT
ATOM      1  C   UNL     1       0.428   8.254  20.861  0.00  0.00    +0.000 C 
ATOM      2  O   UNL     1      -0.247   7.234  20.975  0.00  0.00    +0.000 OA
ENDROOT
BRANCH   1   7
ATOM      3  N   UNL     1      -1.134  11.510  21.682  0.00  0.00    +0.000 N 
ATOM      4  C   UNL     1      -1.208  11.523  20.286  0.00  0.00    +0.000 A 
ATOM      5  C   UNL     1      -1.717  12.635  19.425  0.00  0.00    +0.000 C 
ATOM      6  C   UNL     1      -0.649  10.355  19.810  0.00  0.00    +0.000 A 
ATOM      7  C   UNL     1      -0.194   9.589  20.905  0.00  0.00    +0.000 A 
ATOM      8  C   UNL     1      -0.473  10.327  22.053  0.00  0.00    +0.000 A 
ATOM      9  C   UNL     1      -0.258   9.894  23.474  0.00  0.00    +0.000 C 
BRANCH   3  14
ATOM     10  C   UNL     1      -3.282  15.496  25.238  0.00  0.00    +0.000 C 
ATOM     11  C   UNL     1      -2.709  14.464  24.315  0.00  0.00    +0.000 A 
ATOM     12  C   UNL     1      -1.402  14.565  23.834  0.00  0.00    +0.000 A 
ATOM     13  C   UNL     1      -0.895  13.608  22.948  0.00  0.00    +0.000 A 
ATOM     14  C   UNL     1      -1.668  12.502  22.570  0.00  0.00    +0.000 A 
ATOM     15  C   UNL     1      -2.969  12.396  23.072  0.00  0.00    +0.000 A 
ATOM     16  C   UNL     1      -3.494  13.381  23.914  0.00  0.00    +0.000 A 
ENDBRANCH   3  14
ENDBRANCH   1   7
BRANCH   1  17
ATOM     17  C   UNL     1       1.920   8.182  20.552  0.00  0.00    +0.000 C 
BRANCH  17  18
ATOM     18  N   UNL     1       2.245   6.855  20.027  0.00  0.00    +0.000 N 
ATOM     19  N   UNL     1       1.909   5.775  20.811  0.00  0.00    +0.000 NA
ATOM     20  C   UNL     1       2.201   4.572  20.393  0.00  0.00    +0.000 A 
ATOM     21  C   UNL     1       2.894   4.296  19.120  0.00  0.00    +0.000 A 
ATOM     22  C   UNL     1       3.209   3.015  18.648  0.00  0.00    +0.000 A 
ATOM     23  C   UNL     1       3.891   2.854  17.438  0.00  0.00    +0.000 A 
ATOM     24  C   UNL     1       4.273   3.966  16.693  0.00  0.00    +0.000 A 
ATOM     25  C   UNL     1       3.955   5.242  17.149  0.00  0.00    +0.000 A 
ATOM     26  C   UNL     1       3.254   5.402  18.354  0.00  0.00    +0.000 A 
ATOM     27  C   UNL     1       2.885   6.757  18.797  0.00  0.00    +0.000 A 
ATOM     28  O   UNL     1       3.136   7.719  18.074  0.00  0.00    +0.000 OA
BRANCH  20  29
ATOM     29  C   UNL     1       1.765   3.446  21.355  0.00  0.00    +0.000 C 
ATOM     30  O   UNL     1       2.379   3.076  22.332  0.00  0.00    +0.000 OA
BRANCH  29  31
ATOM     31  O   UNL     1       0.597   2.911  20.947  0.00  0.00    +0.000 OA
ATOM     32  H   UNL     1       0.013   2.792  21.731  0.00  0.00    +0.000 HD
ENDBRANCH  29  31
ENDBRANCH  20  29
ENDBRANCH  17  18
ENDBRANCH   1  17
TORSDOF 6
ENDMDL
MODEL 4
REMARK VINA RESULT:      -8.0      1.493      2.047
REMARK  Name = 
REMARK  9 active torsions:
REMARK  status: ('A' for Active; 'I' for Inactive)
REMARK    1  A    between atoms: C_1  and  C_2
REMARK    2  A    between atoms: C_5  and  N_6
REMARK    3  A    between atoms: C_7  and  C_8
REMARK    4  A    between atoms: C_10  and  C_11
REMARK    5  A    between atoms: C_11  and  C_13
REMARK    6  A    between atoms: C_13  and  N_14
REMARK    7  A    between atoms: C_16  and  C_17
REMARK    8  A    between atoms: C_17  and  O_19
REMARK    9  A    between atoms: C_28  and  C_29
REMARK                            x       y       z     vdW  Elec       q    Type
REMARK                         _______ _______ _______ _____ _____    ______ ____
ROOT
ATOM      1  C   UNL     1       0.549   9.527  20.255  0.00  0.00    +0.000 C 
ATOM      2  O   UNL     1      -0.402   9.818  19.533  0.00  0.00    +0.000 OA
ENDROOT
BRANCH   1   7
ATOM      3  N   UNL     1       2.594   6.648  19.138  0.00  0.00    +0.000 N 
ATOM      4  C   UNL     1       2.081   6.160  20.345  0.00  0.00    +0.000 A 
ATOM      5  C   UNL     1       2.397   4.847  20.986  0.00  0.00    +0.000 C 
ATOM      6  C   UNL     1       1.285   7.137  20.905  0.00  0.00    +0.000 A 
ATOM      7  C   UNL     1       1.296   8.271  20.065  0.00  0.00    +0.000 A 
ATOM      8  C   UNL     1       2.132   7.967  18.993  0.00  0.00    +0.000 A 
ATOM      9  C   UNL     1       2.394   8.822  17.787  0.00  0.00    +0.000 C 
BRANCH   3  14
ATOM     10  C   UNL     1       5.865   3.731  15.406  0.00  0.00    +0.000 C 
ATOM     11  C   UNL     1       5.022   4.502  16.376  0.00  0.00    +0.000 A 
ATOM     12  C   UNL     1       5.464   5.709  16.921  0.00  0.00    +0.000 A 
ATOM     13  C   UNL     1       4.677   6.399  17.849  0.00  0.00    +0.000 A 
ATOM     14  C   UNL     1       3.408   5.923  18.206  0.00  0.00    +0.000 A 
ATOM     15  C   UNL     1       2.963   4.724  17.639  0.00  0.00    +0.000 A 
ATOM     16  C   UNL     1       3.773   4.007  16.754  0.00  0.00    +0.000 A 
ENDBRANCH   3  14
ENDBRANCH   1   7
BRANCH   1  17
ATOM     17  C   UNL     1       0.926  10.396  21.451  0.00  0.00    +0.000 C 
BRANCH  17  18
ATOM     18  N   UNL     1      -0.096  11.425  21.647  0.00  0.00    +0.000 N 
ATOM     19  N   UNL     1       0.014  12.565  20.885  0.00  0.00    +0.000 NA
ATOM     20  C   UNL     1      -0.864  13.521  21.042  0.00  0.00    +0.000 A 
ATOM     21  C   UNL     1      -1.973  13.459  22.014  0.00  0.00    +0.000 A 
ATOM     22  C   UNL     1      -2.929  14.467  22.194  0.00  0.00    +0.000 A 
ATOM     23  C   UNL     1      -3.932  14.328  23.159  0.00  0.00    +0.000 A 
ATOM     24  C   UNL     1      -3.983  13.191  23.959  0.00  0.00    +0.000 A 
ATOM     25  C   UNL     1      -3.043  12.180  23.781  0.00  0.00    +0.000 A 
ATOM     26  C   UNL     1      -2.050  12.310  22.799  0.00  0.00    +0.000 A 
ATOM     27  C   UNL     1      -1.093  11.211  22.592  0.00  0.00    +0.000 A 
ATOM     28  O   UNL     1      -1.220  10.170  23.234  0.00  0.00    +0.000 OA
BRANCH  20  29
ATOM     29  C   UNL     1      -0.640  14.741  20.124  0.00  0.00    +0.000 C 
ATOM     30  O   UNL     1      -0.234  15.826  20.479  0.00  0.00    +0.000 OA
BRANCH  29  31
ATOM     31  O   UNL     1      -0.977  14.437  18.855  0.00  0.00    +0.000 OA
ATOM     32  H   UNL     1      -0.867  13.468  18.721  0.00  0.00    +0.000 HD
ENDBRANCH  29  31
ENDBRANCH  20  29
ENDBRANCH  17  18
ENDBRANCH   1  17
TORSDOF 6
ENDMDL
MODEL 5
REMARK VINA RESULT:      -7.9      0.768      1.211
REMARK  Name = 
REMARK  9 active torsions:
REMARK  status: ('A' for Active; 'I' for Inactive)
REMARK    1  A    between atoms: C_1  and  C_2
REMARK    2  A    between atoms: C_5  and  N_6
REMARK    3  A    between atoms: C_7  and  C_8
REMARK    4  A    between atoms: C_10  and  C_11
REMARK    5  A    between atoms: C_11  and  C_13
REMARK    6  A    between atoms: C_13  and  N_14
REMARK    7  A    between atoms: C_16  and  C_17
REMARK    8  A    between atoms: C_17  and  O_19
REMARK    9  A    between atoms: C_28  and  C_29
REMARK                            x       y       z     vdW  Elec       q    Type
REMARK                         _______ _______ _______ _____ _____    ______ ____
ROOT
ATOM      1  C   UNL     1       0.804   8.274  20.777  0.00  0.00    +0.000 C 
ATOM      2  O   UNL     1      -0.113   8.014  21.552  0.00  0.00    +0.000 OA
ENDROOT
BRANCH   1   7
ATOM      3  N   UNL     1       3.076   6.041  18.887  0.00  0.00    +0.000 N 
ATOM      4  C   UNL     1       2.758   5.233  19.984  0.00  0.00    +0.000 A 
ATOM      5  C   UNL     1       3.304   3.874  20.283  0.00  0.00    +0.000 C 
ATOM      6  C   UNL     1       1.905   5.936  20.808  0.00  0.00    +0.000 A 
ATOM      7  C   UNL     1       1.682   7.214  20.251  0.00  0.00    +0.000 A 
ATOM      8  C   UNL     1       2.435   7.277  19.080  0.00  0.00    +0.000 A 
ATOM      9  C   UNL     1       2.459   8.401  18.087  0.00  0.00    +0.000 C 
BRANCH   3  14
ATOM     10  C   UNL     1       6.294   4.523  14.362  0.00  0.00    +0.000 C 
ATOM     11  C   UNL     1       5.460   4.932  15.537  0.00  0.00    +0.000 A 
ATOM     12  C   UNL     1       5.545   6.218  16.075  0.00  0.00    +0.000 A 
ATOM     13  C   UNL     1       4.781   6.572  17.192  0.00  0.00    +0.000 A 
ATOM     14  C   UNL     1       3.876   5.664  17.758  0.00  0.00    +0.000 A 
ATOM     15  C   UNL     1       3.781   4.384  17.201  0.00  0.00    +0.000 A 
ATOM     16  C   UNL     1       4.584   4.013  16.119  0.00  0.00    +0.000 A 
ENDBRANCH   3  14
ENDBRANCH   1   7
BRANCH   1  17
ATOM     17  C   UNL     1       1.146   9.716  20.416  0.00  0.00    +0.000 C 
BRANCH  17  18
ATOM     18  N   UNL     1      -0.089  10.483  20.252  0.00  0.00    +0.000 N 
ATOM     19  N   UNL     1      -0.736  10.373  19.043  0.00  0.00    +0.000 NA
ATOM     20  C   UNL     1      -1.831  11.059  18.844  0.00  0.00    +0.000 A 
ATOM     21  C   UNL     1      -2.417  11.970  19.846  0.00  0.00    +0.000 A 
ATOM     22  C   UNL     1      -3.592  12.708  19.657  0.00  0.00    +0.000 A 
ATOM     23  C   UNL     1      -4.058  13.567  20.658  0.00  0.00    +0.000 A 
ATOM     24  C   UNL     1      -3.351  13.706  21.849  0.00  0.00    +0.000 A 
ATOM     25  C   UNL     1      -2.187  12.970  22.048  0.00  0.00    +0.000 A 
ATOM     26  C   UNL     1      -1.731  12.093  21.052  0.00  0.00    +0.000 A 
ATOM     27  C   UNL     1      -0.524  11.288  21.300  0.00  0.00    +0.000 A 
ATOM     28  O   UNL     1       0.026  11.343  22.398  0.00  0.00    +0.000 OA
BRANCH  20  29
ATOM     29  C   UNL     1      -2.468  10.842  17.455  0.00  0.00    +0.000 C 
ATOM     30  O   UNL     1      -3.274   9.982  17.174  0.00  0.00    +0.000 OA
BRANCH  29  31
ATOM     31  O   UNL     1      -1.987  11.745  16.576  0.00  0.00    +0.000 OA
ATOM     32  H   UNL     1      -1.147  11.399  16.195  0.00  0.00    +0.000 HD
ENDBRANCH  29  31
ENDBRANCH  20  29
ENDBRANCH  17  18
ENDBRANCH   1  17
TORSDOF 6
ENDMDL
MODEL 6
REMARK VINA RESULT:      -7.9      3.468      9.547
REMARK  Name = 
REMARK  9 active torsions:
REMARK  status: ('A' for Active; 'I' for Inactive)
REMARK    1  A    between atoms: C_1  and  C_2
REMARK    2  A    between atoms: C_5  and  N_6
REMARK    3  A    between atoms: C_7  and  C_8
REMARK    4  A    between atoms: C_10  and  C_11
REMARK    5  A    between atoms: C_11  and  C_13
REMARK    6  A    between atoms: C_13  and  N_14
REMARK    7  A    between atoms: C_16  and  C_17
REMARK    8  A    between atoms: C_17  and  O_19
REMARK    9  A    between atoms: C_28  and  C_29
REMARK                            x       y       z     vdW  Elec       q    Type
REMARK                         _______ _______ _______ _____ _____    ______ ____
ROOT
ATOM      1  C   UNL     1       2.729   4.582  18.840  0.00  0.00    +0.000 C 
ATOM      2  O   UNL     1       1.909   3.782  18.397  0.00  0.00    +0.000 OA
ENDROOT
BRANCH   1   7
ATOM      3  N   UNL     1       1.582   7.987  19.739  0.00  0.00    +0.000 N 
ATOM      4  C   UNL     1       2.162   8.221  18.488  0.00  0.00    +0.000 A 
ATOM      5  C   UNL     1       2.316   9.543  17.806  0.00  0.00    +0.000 C 
ATOM      6  C   UNL     1       2.656   7.027  18.007  0.00  0.00    +0.000 A 
ATOM      7  C   UNL     1       2.409   6.015  18.960  0.00  0.00    +0.000 A 
ATOM      8  C   UNL     1       1.772   6.627  20.038  0.00  0.00    +0.000 A 
ATOM      9  C   UNL     1       1.228   5.950  21.262  0.00  0.00    +0.000 C 
BRANCH   3  14
ATOM     10  C   UNL     1      -1.193  11.851  22.981  0.00  0.00    +0.000 C 
ATOM     11  C   UNL     1      -0.466  10.838  22.149  0.00  0.00    +0.000 A 
ATOM     12  C   UNL     1       0.442   9.946  22.722  0.00  0.00    +0.000 A 
ATOM     13  C   UNL     1       1.134   9.028  21.925  0.00  0.00    +0.000 A 
ATOM     14  C   UNL     1       0.889   8.948  20.548  0.00  0.00    +0.000 A 
ATOM     15  C   UNL     1      -0.039   9.831  19.984  0.00  0.00    +0.000 A 
ATOM     16  C   UNL     1      -0.689  10.784  20.772  0.00  0.00    +0.000 A 
ENDBRANCH   3  14
ENDBRANCH   1   7
BRANCH   1  17
ATOM     17  C   UNL     1       4.152   4.147  19.177  0.00  0.00    +0.000 C 
BRANCH  17  18
ATOM     18  N   UNL     1       5.046   4.515  18.079  0.00  0.00    +0.000 N 
ATOM     19  N   UNL     1       5.911   5.562  18.304  0.00  0.00    +0.000 NA
ATOM     20  C   UNL     1       6.713   5.941  17.343  0.00  0.00    +0.000 A 
ATOM     21  C   UNL     1       6.737   5.316  16.007  0.00  0.00    +0.000 A 
ATOM     22  C   UNL     1       7.592   5.701  14.966  0.00  0.00    +0.000 A 
ATOM     23  C   UNL     1       7.525   5.064  13.722  0.00  0.00    +0.000 A 
ATOM     24  C   UNL     1       6.599   4.048  13.502  0.00  0.00    +0.000 A 
ATOM     25  C   UNL     1       5.752   3.654  14.533  0.00  0.00    +0.000 A 
ATOM     26  C   UNL     1       5.833   4.279  15.787  0.00  0.00    +0.000 A 
ATOM     27  C   UNL     1       4.962   3.817  16.879  0.00  0.00    +0.000 A 
ATOM     28  O   UNL     1       4.227   2.848  16.699  0.00  0.00    +0.000 OA
BRANCH  20  29
ATOM     29  C   UNL     1       7.639   7.116  17.721  0.00  0.00    +0.000 C 
ATOM     30  O   UNL     1       7.759   8.149  17.098  0.00  0.00    +0.000 OA
BRANCH  29  31
ATOM     31  O   UNL     1       8.320   6.829  18.848  0.00  0.00    +0.000 OA
ATOM     32  H   UNL     1       8.071   5.924  19.147  0.00  0.00    +0.000 HD
ENDBRANCH  29  31
ENDBRANCH  20  29
ENDBRANCH  17  18
ENDBRANCH   1  17
TORSDOF 6
ENDMDL
MODEL 7
REMARK VINA RESULT:      -7.8      2.102      9.484
REMARK  Name = 
REMARK  9 active torsions:
REMARK  status: ('A' for Active; 'I' for Inactive)
REMARK    1  A    between atoms: C_1  and  C_2
REMARK    2  A    between atoms: C_5  and  N_6
REMARK    3  A    between atoms: C_7  and  C_8
REMARK    4  A    between atoms: C_10  and  C_11
REMARK    5  A    between atoms: C_11  and  C_13
REMARK    6  A    between atoms: C_13  and  N_14
REMARK    7  A    between atoms: C_16  and  C_17
REMARK    8  A    between atoms: C_17  and  O_19
REMARK    9  A    between atoms: C_28  and  C_29
REMARK                            x       y       z     vdW  Elec       q    Type
REMARK                         _______ _______ _______ _____ _____    ______ ____
ROOT
ATOM      1  C   UNL     1       0.071   8.508  21.077  0.00  0.00    +0.000 C 
ATOM      2  O   UNL     1      -0.688   7.573  21.320  0.00  0.00    +0.000 OA
ENDROOT
BRANCH   1   7
ATOM      3  N   UNL     1      -1.374  11.877  20.547  0.00  0.00    +0.000 N 
ATOM      4  C   UNL     1      -1.155  11.469  19.227  0.00  0.00    +0.000 A 
ATOM      5  C   UNL     1      -1.388  12.276  17.990  0.00  0.00    +0.000 C 
ATOM      6  C   UNL     1      -0.600  10.207  19.249  0.00  0.00    +0.000 A 
ATOM      7  C   UNL     1      -0.442   9.802  20.592  0.00  0.00    +0.000 A 
ATOM      8  C   UNL     1      -0.896  10.854  21.383  0.00  0.00    +0.000 A 
ATOM      9  C   UNL     1      -1.015  10.867  22.879  0.00  0.00    +0.000 C 
BRANCH   3  14
ATOM     10  C   UNL     1      -3.895  16.768  22.240  0.00  0.00    +0.000 C 
ATOM     11  C   UNL     1      -3.251  15.490  21.795  0.00  0.00    +0.000 A 
ATOM     12  C   UNL     1      -4.015  14.362  21.489  0.00  0.00    +0.000 A 
ATOM     13  C   UNL     1      -3.395  13.168  21.105  0.00  0.00    +0.000 A 
ATOM     14  C   UNL     1      -2.002  13.096  20.966  0.00  0.00    +0.000 A 
ATOM     15  C   UNL     1      -1.245  14.237  21.254  0.00  0.00    +0.000 A 
ATOM     16  C   UNL     1      -1.861  15.414  21.690  0.00  0.00    +0.000 A 
ENDBRANCH   3  14
ENDBRANCH   1   7
BRANCH   1  17
ATOM     17  C   UNL     1       1.585   8.336  21.155  0.00  0.00    +0.000 C 
BRANCH  17  18
ATOM     18  N   UNL     1       1.973   7.112  20.455  0.00  0.00    +0.000 N 
ATOM     19  N   UNL     1       1.722   5.921  21.097  0.00  0.00    +0.000 NA
ATOM     20  C   UNL     1       2.072   4.801  20.519  0.00  0.00    +0.000 A 
ATOM     21  C   UNL     1       2.745   4.736  19.207  0.00  0.00    +0.000 A 
ATOM     22  C   UNL     1       3.122   3.549  18.566  0.00  0.00    +0.000 A 
ATOM     23  C   UNL     1       3.779   3.589  17.332  0.00  0.00    +0.000 A 
ATOM     24  C   UNL     1       4.075   4.809  16.733  0.00  0.00    +0.000 A 
ATOM     25  C   UNL     1       3.696   5.993  17.358  0.00  0.00    +0.000 A 
ATOM     26  C   UNL     1       3.019   5.953  18.586  0.00  0.00    +0.000 A 
ATOM     27  C   UNL     1       2.584   7.213  19.210  0.00  0.00    +0.000 A 
ATOM     28  O   UNL     1       2.759   8.275  18.615  0.00  0.00    +0.000 OA
BRANCH  20  29
ATOM     29  C   UNL     1       1.729   3.536  21.333  0.00  0.00    +0.000 C 
ATOM     30  O   UNL     1       2.406   3.062  22.220  0.00  0.00    +0.000 OA
BRANCH  29  31
ATOM     31  O   UNL     1       0.562   3.011  20.908  0.00  0.00    +0.000 OA
ATOM     32  H   UNL     1       0.561   2.999  19.923  0.00  0.00    +0.000 HD
ENDBRANCH  29  31
ENDBRANCH  20  29
ENDBRANCH  17  18
ENDBRANCH   1  17
TORSDOF 6
ENDMDL
MODEL 8
REMARK VINA RESULT:      -7.8      1.779      3.035
REMARK  Name = 
REMARK  9 active torsions:
REMARK  status: ('A' for Active; 'I' for Inactive)
REMARK    1  A    between atoms: C_1  and  C_2
REMARK    2  A    between atoms: C_5  and  N_6
REMARK    3  A    between atoms: C_7  and  C_8
REMARK    4  A    between atoms: C_10  and  C_11
REMARK    5  A    between atoms: C_11  and  C_13
REMARK    6  A    between atoms: C_13  and  N_14
REMARK    7  A    between atoms: C_16  and  C_17
REMARK    8  A    between atoms: C_17  and  O_19
REMARK    9  A    between atoms: C_28  and  C_29
REMARK                            x       y       z     vdW  Elec       q    Type
REMARK                         _______ _______ _______ _____ _____    ______ ____
ROOT
ATOM      1  C   UNL     1       0.643   9.109  20.609  0.00  0.00    +0.000 C 
ATOM      2  O   UNL     1      -0.013   9.182  21.645  0.00  0.00    +0.000 OA
ENDROOT
BRANCH   1   7
ATOM      3  N   UNL     1       2.712   6.402  19.157  0.00  0.00    +0.000 N 
ATOM      4  C   UNL     1       2.221   5.776  20.307  0.00  0.00    +0.000 A 
ATOM      5  C   UNL     1       2.561   4.404  20.795  0.00  0.00    +0.000 C 
ATOM      6  C   UNL     1       1.419   6.672  20.981  0.00  0.00    +0.000 A 
ATOM      7  C   UNL     1       1.404   7.893  20.272  0.00  0.00    +0.000 A 
ATOM      8  C   UNL     1       2.231   7.722  19.164  0.00  0.00    +0.000 A 
ATOM      9  C   UNL     1       2.466   8.710  18.059  0.00  0.00    +0.000 C 
BRANCH   3  14
ATOM     10  C   UNL     1       5.970   3.982  15.074  0.00  0.00    +0.000 C 
ATOM     11  C   UNL     1       5.114   4.599  16.139  0.00  0.00    +0.000 A 
ATOM     12  C   UNL     1       3.965   3.960  16.607  0.00  0.00    +0.000 A 
ATOM     13  C   UNL     1       3.162   4.566  17.580  0.00  0.00    +0.000 A 
ATOM     14  C   UNL     1       3.525   5.797  18.142  0.00  0.00    +0.000 A 
ATOM     15  C   UNL     1       4.689   6.422  17.682  0.00  0.00    +0.000 A 
ATOM     16  C   UNL     1       5.461   5.842  16.672  0.00  0.00    +0.000 A 
ENDBRANCH   3  14
ENDBRANCH   1   7
BRANCH   1  17
ATOM     17  C   UNL     1       0.793  10.313  19.684  0.00  0.00    +0.000 C 
BRANCH  17  18
ATOM     18  N   UNL     1      -0.532  10.787  19.283  0.00  0.00    +0.000 N 
ATOM     19  N   UNL     1      -1.159  11.674  20.128  0.00  0.00    +0.000 NA
ATOM     20  C   UNL     1      -2.353  12.107  19.822  0.00  0.00    +0.000 A 
ATOM     21  C   UNL     1      -3.089  11.684  18.615  0.00  0.00    +0.000 A 
ATOM     22  C   UNL     1      -4.366  12.141  18.263  0.00  0.00    +0.000 A 
ATOM     23  C   UNL     1      -4.996  11.664  17.108  0.00  0.00    +0.000 A 
ATOM     24  C   UNL     1      -4.364  10.721  16.303  0.00  0.00    +0.000 A 
ATOM     25  C   UNL     1      -3.092  10.268  16.640  0.00  0.00    +0.000 A 
ATOM     26  C   UNL     1      -2.452  10.762  17.787  0.00  0.00    +0.000 A 
ATOM     27  C   UNL     1      -1.088  10.308  18.102  0.00  0.00    +0.000 A 
ATOM     28  O   UNL     1      -0.504   9.558  17.322  0.00  0.00    +0.000 OA
BRANCH  20  29
ATOM     29  C   UNL     1      -2.945  13.102  20.842  0.00  0.00    +0.000 C 
ATOM     30  O   UNL     1      -3.392  12.814  21.931  0.00  0.00    +0.000 OA
BRANCH  29  31
ATOM     31  O   UNL     1      -2.911  14.354  20.344  0.00  0.00    +0.000 OA
ATOM     32  H   UNL     1      -2.821  14.990  21.091  0.00  0.00    +0.000 HD
ENDBRANCH  29  31
ENDBRANCH  20  29
ENDBRANCH  17  18
ENDBRANCH   1  17
TORSDOF 6
ENDMDL
MODEL 9
REMARK VINA RESULT:      -7.8      1.195      1.597
REMARK  Name = 
REMARK  9 active torsions:
REMARK  status: ('A' for Active; 'I' for Inactive)
REMARK    1  A    between atoms: C_1  and  C_2
REMARK    2  A    between atoms: C_5  and  N_6
REMARK    3  A    between atoms: C_7  and  C_8
REMARK    4  A    between atoms: C_10  and  C_11
REMARK    5  A    between atoms: C_11  and  C_13
REMARK    6  A    between atoms: C_13  and  N_14
REMARK    7  A    between atoms: C_16  and  C_17
REMARK    8  A    between atoms: C_17  and  O_19
REMARK    9  A    between atoms: C_28  and  C_29
REMARK                            x       y       z     vdW  Elec       q    Type
REMARK                         _______ _______ _______ _____ _____    ______ ____
ROOT
ATOM      1  C   UNL     1       0.722   7.882  21.188  0.00  0.00    +0.000 C 
ATOM      2  O   UNL     1      -0.499   7.764  21.128  0.00  0.00    +0.000 OA
ENDROOT
BRANCH   1   7
ATOM      3  N   UNL     1       3.024   5.837  19.128  0.00  0.00    +0.000 N 
ATOM      4  C   UNL     1       2.724   4.944  20.161  0.00  0.00    +0.000 A 
ATOM      5  C   UNL     1       3.295   3.575  20.356  0.00  0.00    +0.000 C 
ATOM      6  C   UNL     1       1.863   5.568  21.040  0.00  0.00    +0.000 A 
ATOM      7  C   UNL     1       1.616   6.880  20.581  0.00  0.00    +0.000 A 
ATOM      8  C   UNL     1       2.363   7.044  19.416  0.00  0.00    +0.000 A 
ATOM      9  C   UNL     1       2.363   8.240  18.510  0.00  0.00    +0.000 C 
BRANCH   3  14
ATOM     10  C   UNL     1       6.247   4.720  14.491  0.00  0.00    +0.000 C 
ATOM     11  C   UNL     1       5.412   5.025  15.698  0.00  0.00    +0.000 A 
ATOM     12  C   UNL     1       5.593   6.202  16.426  0.00  0.00    +0.000 A 
ATOM     13  C   UNL     1       4.826   6.455  17.568  0.00  0.00    +0.000 A 
ATOM     14  C   UNL     1       3.825   5.561  17.972  0.00  0.00    +0.000 A 
ATOM     15  C   UNL     1       3.636   4.393  17.224  0.00  0.00    +0.000 A 
ATOM     16  C   UNL     1       4.439   4.114  16.116  0.00  0.00    +0.000 A 
ENDBRANCH   3  14
ENDBRANCH   1   7
BRANCH   1  17
ATOM     17  C   UNL     1       1.367   9.007  21.991  0.00  0.00    +0.000 C 
BRANCH  17  18
ATOM     18  N   UNL     1       0.679  10.266  21.706  0.00  0.00    +0.000 N 
ATOM     19  N   UNL     1       1.066  10.944  20.573  0.00  0.00    +0.000 NA
ATOM     20  C   UNL     1       0.495  12.085  20.289  0.00  0.00    +0.000 A 
ATOM     21  C   UNL     1      -0.544  12.709  21.132  0.00  0.00    +0.000 A 
ATOM     22  C   UNL     1      -1.175  13.926  20.844  0.00  0.00    +0.000 A 
ATOM     23  C   UNL     1      -2.134  14.451  21.718  0.00  0.00    +0.000 A 
ATOM     24  C   UNL     1      -2.462  13.774  22.889  0.00  0.00    +0.000 A 
ATOM     25  C   UNL     1      -1.847  12.560  23.178  0.00  0.00    +0.000 A 
ATOM     26  C   UNL     1      -0.901  12.024  22.291  0.00  0.00    +0.000 A 
ATOM     27  C   UNL     1      -0.295  10.716  22.590  0.00  0.00    +0.000 A 
ATOM     28  O   UNL     1      -0.676  10.082  23.573  0.00  0.00    +0.000 OA
BRANCH  20  29
ATOM     29  C   UNL     1       1.006  12.742  18.990  0.00  0.00    +0.000 C 
ATOM     30  O   UNL     1       1.357  13.896  18.874  0.00  0.00    +0.000 OA
BRANCH  29  31
ATOM     31  O   UNL     1       0.995  11.849  17.981  0.00  0.00    +0.000 OA
ATOM     32  H   UNL     1       1.576  12.181  17.258  0.00  0.00    +0.000 HD
ENDBRANCH  29  31
ENDBRANCH  20  29
ENDBRANCH  17  18
ENDBRANCH   1  17
TORSDOF 6
ENDMDL
