MODEL 1
REMARK VINA RESULT:      -8.0      0.000      0.000
REMARK  Name = 
REMARK  4 active torsions:
REMARK  status: ('A' for Active; 'I' for Inactive)
REMARK    1  A    between atoms: C_4  and  C_5
REMARK    2  A    between atoms: C_5  and  N_6
REMARK    3  A    between atoms: C_10  and  C_11
REMARK    4  A    between atoms: C_11  and  N_12
REMARK                            x       y       z     vdW  Elec       q    Type
REMARK                         _______ _______ _______ _____ _____    ______ ____
ROOT
ATOM      1  C   UNL     1       3.941   2.950  17.505  0.00  0.00    +0.000 C 
ENDROOT
BRANCH   1   5
ATOM      2  O   UNL     1       5.153   6.918  15.231  0.00  0.00    +0.000 OA
ATOM      3  C   UNL     1       5.342   6.185  16.198  0.00  0.00    +0.000 A 
ATOM      4  N   UNL     1       4.597   5.054  16.420  0.00  0.00    +0.000 N 
ATOM      5  C   UNL     1       4.836   4.185  17.450  0.00  0.00    +0.000 A 
ATOM      6  N   UNL     1       5.753   4.381  18.346  0.00  0.00    +0.000 NA
ATOM      7  C   UNL     1       6.547   5.543  18.230  0.00  0.00    +0.000 A 
ATOM      8  C   UNL     1       7.530   5.780  19.193  0.00  0.00    +0.000 A 
ATOM      9  C   UNL     1       8.349   6.912  19.106  0.00  0.00    +0.000 A 
ATOM     10  C   UNL     1       8.195   7.814  18.052  0.00  0.00    +0.000 A 
ATOM     11  C   UNL     1       7.216   7.590  17.086  0.00  0.00    +0.000 A 
ATOM     12  C   UNL     1       6.394   6.455  17.187  0.00  0.00    +0.000 A 
ATOM     13  H   UNL     1       3.900   4.822  15.725  0.00  0.00    +0.000 HD
ENDBRANCH   1   5
BRANCH   1  14
ATOM     14  N   UNL     1       2.624   3.275  18.116  0.00  0.00    +0.000 NA
ATOM     15  C   UNL     1       2.052   2.080  18.765  0.00  0.00    +0.000 C 
ATOM     16  C   UNL     1       0.776   2.380  19.546  0.00  0.00    +0.000 C 
ATOM     17  C   UNL     1       0.989   3.491  20.563  0.00  0.00    +0.000 C 
ATOM     18  C   UNL     1       1.521   4.752  19.876  0.00  0.00    +0.000 C 
ATOM     19  C   UNL     1       2.765   4.431  19.021  0.00  0.00    +0.000 C 
BRANCH  18  20
ATOM     20  C   UNL     1       1.870   5.849  20.905  0.00  0.00    +0.000 C 
BRANCH  20  21
ATOM     21  N   UNL     1       1.639   7.200  20.442  0.00  0.00    +0.000 N 
ATOM     22  C   UNL     1       2.037   7.760  19.267  0.00  0.00    +0.000 A 
ATOM     23  N   UNL     1       1.658   9.016  19.231  0.00  0.00    +0.000 NA
ATOM     24  C   UNL     1       1.004   9.173  20.419  0.00  0.00    +0.000 A 
ATOM     25  N   UNL     1       0.952   8.082  21.189  0.00  0.00    +0.000 NA
ENDBRANCH  20  21
ENDBRANCH  18  20
ENDBRANCH   1  14
TORSDOF 4
ENDMDL
MODEL 2
REMARK VINA RESULT:      -7.9      2.496      7.023
REMARK  Name = 
REMARK  4 active torsions:
REMARK  status: ('A' for Active; 'I' for Inactive)
REMARK    1  A    between atoms: C_4  and  C_5
REMARK    2  A    between atoms: C_5  and  N_6
REMARK    3  A    between atoms: C_10  and  C_11
REMARK    4  A    between atoms: C_11  and  N_12
REMARK                            x       y       z     vdW  Elec       q    Type
REMARK                         _______ _______ _______ _____ _____    ______ ____
ROOT
ATOM      1  C   UNL     1       3.173   5.480  18.944  0.00  0.00    +0.000 C 
ENDROOT
BRANCH   1   5
ATOM      2  O   UNL     1       1.927   9.752  17.339  0.00  0.00    +0.000 OA
ATOM      3  C   UNL     1       1.900   8.952  18.270  0.00  0.00    +0.000 A 
ATOM      4  N   UNL     1       2.439   7.694  18.174  0.00  0.00    +0.000 N 
ATOM      5  C   UNL     1       2.483   6.813  19.220  0.00  0.00    +0.000 A 
ATOM      6  N   UNL     1       1.967   7.065  20.384  0.00  0.00    +0.000 NA
ATOM      7  C   UNL     1       1.348   8.320  20.570  0.00  0.00    +0.000 A 
ATOM      8  C   UNL     1       0.773   8.606  21.810  0.00  0.00    +0.000 A 
ATOM      9  C   UNL     1       0.163   9.845  22.040  0.00  0.00    +0.000 A 
ATOM     10  C   UNL     1       0.129  10.811  21.034  0.00  0.00    +0.000 A 
ATOM     11  C   UNL     1       0.697  10.538  19.791  0.00  0.00    +0.000 A 
ATOM     12  C   UNL     1       1.299   9.288  19.567  0.00  0.00    +0.000 A 
ATOM     13  H   UNL     1       2.901   7.459  17.306  0.00  0.00    +0.000 HD
ENDBRANCH   1   5
BRANCH   1  14
ATOM     14  N   UNL     1       4.493   5.688  18.293  0.00  0.00    +0.000 NA
ATOM     15  C   UNL     1       5.583   5.452  19.258  0.00  0.00    +0.000 C 
ATOM     16  C   UNL     1       6.967   5.497  18.616  0.00  0.00    +0.000 C 
ATOM     17  C   UNL     1       7.073   4.533  17.444  0.00  0.00    +0.000 C 
ATOM     18  C   UNL     1       5.979   4.823  16.412  0.00  0.00    +0.000 C 
ATOM     19  C   UNL     1       4.587   4.859  17.078  0.00  0.00    +0.000 C 
BRANCH  18  20
ATOM     20  C   UNL     1       5.984   3.776  15.278  0.00  0.00    +0.000 C 
BRANCH  20  21
ATOM     21  N   UNL     1       6.613   4.221  14.053  0.00  0.00    +0.000 N 
ATOM     22  C   UNL     1       7.484   5.253  13.888  0.00  0.00    +0.000 A 
ATOM     23  N   UNL     1       7.808   5.354  12.620  0.00  0.00    +0.000 NA
ATOM     24  C   UNL     1       7.112   4.330  12.044  0.00  0.00    +0.000 A 
ATOM     25  N   UNL     1       6.378   3.596  12.886  0.00  0.00    +0.000 NA
ENDBRANCH  20  21
ENDBRANCH  18  20
ENDBRANCH   1  14
TORSDOF 4
ENDMDL
MODEL 3
REMARK VINA RESULT:      -7.9      2.466      6.740
REMARK  Name = 
REMARK  4 active torsions:
REMARK  status: ('A' for Active; 'I' for Inactive)
REMARK    1  A    between atoms: C_4  and  C_5
REMARK    2  A    between atoms: C_5  and  N_6
REMARK    3  A    between atoms: C_10  and  C_11
REMARK    4  A    between atoms: C_11  and  N_12
REMARK                            x       y       z     vdW  Elec       q    Type
REMARK                         _______ _______ _______ _____ _____    ______ ____
ROOT
ATOM      1  C   UNL     1       2.555   7.780  18.016  0.00  0.00    +0.000 C 
ENDROOT
BRANCH   1   5
ATOM      2  O   UNL     1      -0.332  11.502  18.462  0.00  0.00    +0.000 OA
ATOM      3  C   UNL     1       0.211  10.547  19.010  0.00  0.00    +0.000 A 
ATOM      4  N   UNL     1       1.003   9.660  18.326  0.00  0.00    +0.000 N 
ATOM      5  C   UNL     1       1.675   8.631  18.928  0.00  0.00    +0.000 A 
ATOM      6  N   UNL     1       1.579   8.365  20.195  0.00  0.00    +0.000 NA
ATOM      7  C   UNL     1       0.750   9.196  20.979  0.00  0.00    +0.000 A 
ATOM      8  C   UNL     1       0.621   8.918  22.341  0.00  0.00    +0.000 A 
ATOM      9  C   UNL     1      -0.179   9.727  23.158  0.00  0.00    +0.000 A 
ATOM     10  C   UNL     1      -0.851  10.824  22.619  0.00  0.00    +0.000 A 
ATOM     11  C   UNL     1      -0.732  11.112  21.261  0.00  0.00    +0.000 A 
ATOM     12  C   UNL     1       0.066  10.289  20.448  0.00  0.00    +0.000 A 
ATOM     13  H   UNL     1       1.157   9.846  17.344  0.00  0.00    +0.000 HD
ENDBRANCH   1   5
BRANCH   1  14
ATOM     14  N   UNL     1       2.757   6.422  18.587  0.00  0.00    +0.000 NA
ATOM     15  C   UNL     1       1.893   5.444  17.900  0.00  0.00    +0.000 C 
ATOM     16  C   UNL     1       2.163   4.005  18.330  0.00  0.00    +0.000 C 
ATOM     17  C   UNL     1       3.629   3.635  18.161  0.00  0.00    +0.000 C 
ATOM     18  C   UNL     1       4.521   4.615  18.930  0.00  0.00    +0.000 C 
ATOM     19  C   UNL     1       4.189   6.075  18.554  0.00  0.00    +0.000 C 
BRANCH  18  20
ATOM     20  C   UNL     1       6.017   4.340  18.667  0.00  0.00    +0.000 C 
BRANCH  20  21
ATOM     21  N   UNL     1       6.496   4.806  17.384  0.00  0.00    +0.000 N 
ATOM     22  C   UNL     1       7.193   5.943  17.115  0.00  0.00    +0.000 A 
ATOM     23  N   UNL     1       7.418   6.023  15.824  0.00  0.00    +0.000 NA
ATOM     24  C   UNL     1       6.847   4.880  15.342  0.00  0.00    +0.000 A 
ATOM     25  N   UNL     1       6.283   4.093  16.264  0.00  0.00    +0.000 NA
ENDBRANCH  20  21
ENDBRANCH  18  20
ENDBRANCH   1  14
TORSDOF 4
ENDMDL
MODEL 4
REMARK VINA RESULT:      -7.8      3.311      5.921
REMARK  Name = 
REMARK  4 active torsions:
REMARK  status: ('A' for Active; 'I' for Inactive)
REMARK    1  A    between atoms: C_4  and  C_5
REMARK    2  A    between atoms: C_5  and  N_6
REMARK    3  A    between atoms: C_10  and  C_11
REMARK    4  A    between atoms: C_11  and  N_12
REMARK                            x       y       z     vdW  Elec       q    Type
REMARK                         _______ _______ _______ _____ _____    ______ ____
ROOT
ATOM      1  C   UNL     1       2.571   8.664  18.181  0.00  0.00    +0.000 C 
ENDROOT
BRANCH   1   5
ATOM      2  O   UNL     1       5.627   5.401  16.633  0.00  0.00    +0.000 OA
ATOM      3  C   UNL     1       4.546   5.630  17.167  0.00  0.00    +0.000 A 
ATOM      4  N   UNL     1       4.121   6.903  17.453  0.00  0.00    +0.000 N 
ATOM      5  C   UNL     1       2.891   7.186  17.983  0.00  0.00    +0.000 A 
ATOM      6  N   UNL     1       2.035   6.270  18.317  0.00  0.00    +0.000 NA
ATOM      7  C   UNL     1       2.397   4.922  18.103  0.00  0.00    +0.000 A 
ATOM      8  C   UNL     1       1.495   3.921  18.469  0.00  0.00    +0.000 A 
ATOM      9  C   UNL     1       1.809   2.572  18.259  0.00  0.00    +0.000 A 
ATOM     10  C   UNL     1       3.025   2.215  17.675  0.00  0.00    +0.000 A 
ATOM     11  C   UNL     1       3.934   3.205  17.306  0.00  0.00    +0.000 A 
ATOM     12  C   UNL     1       3.613   4.555  17.529  0.00  0.00    +0.000 A 
ATOM     13  H   UNL     1       4.726   7.662  17.168  0.00  0.00    +0.000 HD
ENDBRANCH   1   5
BRANCH   1  14
ATOM     14  N   UNL     1       1.234   8.840  18.808  0.00  0.00    +0.000 NA
ATOM     15  C   UNL     1       1.373   9.055  20.260  0.00  0.00    +0.000 C 
ATOM     16  C   UNL     1       0.052   9.398  20.942  0.00  0.00    +0.000 C 
ATOM     17  C   UNL     1      -0.624  10.593  20.286  0.00  0.00    +0.000 C 
ATOM     18  C   UNL     1      -0.827  10.339  18.789  0.00  0.00    +0.000 C 
ATOM     19  C   UNL     1       0.495   9.913  18.117  0.00  0.00    +0.000 C 
BRANCH  18  20
ATOM     20  C   UNL     1      -1.390  11.589  18.079  0.00  0.00    +0.000 C 
BRANCH  20  21
ATOM     21  N   UNL     1      -2.581  11.346  17.293  0.00  0.00    +0.000 N 
ATOM     22  C   UNL     1      -2.659  10.906  16.008  0.00  0.00    +0.000 A 
ATOM     23  N   UNL     1      -3.919  10.840  15.644  0.00  0.00    +0.000 NA
ATOM     24  C   UNL     1      -4.583  11.237  16.768  0.00  0.00    +0.000 A 
ATOM     25  N   UNL     1      -3.806  11.542  17.812  0.00  0.00    +0.000 NA
ENDBRANCH  20  21
ENDBRANCH  18  20
ENDBRANCH   1  14
TORSDOF 4
ENDMDL
MODEL 5
REMARK VINA RESULT:      -7.8      2.549      6.747
REMARK  Name = 
REMARK  4 active torsions:
REMARK  status: ('A' for Active; 'I' for Inactive)
REMARK    1  A    between atoms: C_4  and  C_5
REMARK    2  A    between atoms: C_5  and  N_6
REMARK    3  A    between atoms: C_10  and  C_11
REMARK    4  A    between atoms: C_11  and  N_12
REMARK                            x       y       z     vdW  Elec       q    Type
REMARK                         _______ _______ _______ _____ _____    ______ ____
ROOT
ATOM      1  C   UNL     1       2.804   7.386  17.874  0.00  0.00    +0.000 C 
ENDROOT
BRANCH   1   5
ATOM      2  O   UNL     1      -0.045  11.145  18.254  0.00  0.00    +0.000 OA
ATOM      3  C   UNL     1       0.498  10.201  18.821  0.00  0.00    +0.000 A 
ATOM      4  N   UNL     1       1.273   9.288  18.152  0.00  0.00    +0.000 N 
ATOM      5  C   UNL     1       1.945   8.270  18.774  0.00  0.00    +0.000 A 
ATOM      6  N   UNL     1       1.864   8.041  20.048  0.00  0.00    +0.000 NA
ATOM      7  C   UNL     1       1.054   8.902  20.821  0.00  0.00    +0.000 A 
ATOM      8  C   UNL     1       0.941   8.664  22.192  0.00  0.00    +0.000 A 
ATOM      9  C   UNL     1       0.161   9.503  22.996  0.00  0.00    +0.000 A 
ATOM     10  C   UNL     1      -0.510  10.591  22.435  0.00  0.00    +0.000 A 
ATOM     11  C   UNL     1      -0.408  10.838  21.068  0.00  0.00    +0.000 A 
ATOM     12  C   UNL     1       0.372   9.985  20.268  0.00  0.00    +0.000 A 
ATOM     13  H   UNL     1       1.414   9.445  17.163  0.00  0.00    +0.000 HD
ENDBRANCH   1   5
BRANCH   1  14
ATOM     14  N   UNL     1       3.527   6.359  18.671  0.00  0.00    +0.000 NA
ATOM     15  C   UNL     1       2.717   5.132  18.780  0.00  0.00    +0.000 C 
ATOM     16  C   UNL     1       3.463   3.983  19.452  0.00  0.00    +0.000 C 
ATOM     17  C   UNL     1       4.785   3.691  18.757  0.00  0.00    +0.000 C 
ATOM     18  C   UNL     1       5.652   4.953  18.703  0.00  0.00    +0.000 C 
ATOM     19  C   UNL     1       4.867   6.136  18.098  0.00  0.00    +0.000 C 
BRANCH  18  20
ATOM     20  C   UNL     1       6.941   4.716  17.888  0.00  0.00    +0.000 C 
BRANCH  20  21
ATOM     21  N   UNL     1       6.736   4.614  16.459  0.00  0.00    +0.000 N 
ATOM     22  C   UNL     1       5.952   3.728  15.788  0.00  0.00    +0.000 A 
ATOM     23  N   UNL     1       6.054   3.942  14.497  0.00  0.00    +0.000 NA
ATOM     24  C   UNL     1       6.913   5.002  14.430  0.00  0.00    +0.000 A 
ATOM     25  N   UNL     1       7.344   5.460  15.609  0.00  0.00    +0.000 NA
ENDBRANCH  20  21
ENDBRANCH  18  20
ENDBRANCH   1  14
TORSDOF 4
ENDMDL
MODEL 6
REMARK VINA RESULT:      -7.6      2.416      6.598
REMARK  Name = 
REMARK  4 active torsions:
REMARK  status: ('A' for Active; 'I' for Inactive)
REMARK    1  A    between atoms: C_4  and  C_5
REMARK    2  A    between atoms: C_5  and  N_6
REMARK    3  A    between atoms: C_10  and  C_11
REMARK    4  A    between atoms: C_11  and  N_12
REMARK                            x       y       z     vdW  Elec       q    Type
REMARK                         _______ _______ _______ _____ _____    ______ ____
ROOT
ATOM      1  C   UNL     1       2.619   7.742  18.394  0.00  0.00    +0.000 C 
ENDROOT
BRANCH   1   5
ATOM      2  O   UNL     1      -0.249  11.504  18.452  0.00  0.00    +0.000 OA
ATOM      3  C   UNL     1       0.242  10.572  19.083  0.00  0.00    +0.000 A 
ATOM      4  N   UNL     1       1.071   9.647  18.501  0.00  0.00    +0.000 N 
ATOM      5  C   UNL     1       1.686   8.642  19.199  0.00  0.00    +0.000 A 
ATOM      6  N   UNL     1       1.495   8.438  20.466  0.00  0.00    +0.000 NA
ATOM      7  C   UNL     1       0.622   9.313  21.148  0.00  0.00    +0.000 A 
ATOM      8  C   UNL     1       0.391   9.101  22.509  0.00  0.00    +0.000 A 
ATOM      9  C   UNL     1      -0.456   9.955  23.225  0.00  0.00    +0.000 A 
ATOM     10  C   UNL     1      -1.075  11.031  22.588  0.00  0.00    +0.000 A 
ATOM     11  C   UNL     1      -0.855  11.252  21.230  0.00  0.00    +0.000 A 
ATOM     12  C   UNL     1      -0.009  10.384  20.517  0.00  0.00    +0.000 A 
ATOM     13  H   UNL     1       1.298   9.784  17.525  0.00  0.00    +0.000 HD
ENDBRANCH   1   5
BRANCH   1  14
ATOM     14  N   UNL     1       2.429   6.313  18.763  0.00  0.00    +0.000 NA
ATOM     15  C   UNL     1       1.664   5.612  17.716  0.00  0.00    +0.000 C 
ATOM     16  C   UNL     1       1.567   4.108  17.956  0.00  0.00    +0.000 C 
ATOM     17  C   UNL     1       2.941   3.478  18.127  0.00  0.00    +0.000 C 
ATOM     18  C   UNL     1       3.709   4.167  19.260  0.00  0.00    +0.000 C 
ATOM     19  C   UNL     1       3.735   5.696  19.058  0.00  0.00    +0.000 C 
BRANCH  18  20
ATOM     20  C   UNL     1       5.154   3.633  19.365  0.00  0.00    +0.000 C 
BRANCH  20  21
ATOM     21  N   UNL     1       6.161   4.519  18.822  0.00  0.00    +0.000 N 
ATOM     22  C   UNL     1       6.520   4.676  17.519  0.00  0.00    +0.000 A 
ATOM     23  N   UNL     1       7.492   5.555  17.436  0.00  0.00    +0.000 NA
ATOM     24  C   UNL     1       7.681   5.926  18.737  0.00  0.00    +0.000 A 
ATOM     25  N   UNL     1       6.876   5.329  19.621  0.00  0.00    +0.000 NA
ENDBRANCH  20  21
ENDBRANCH  18  20
ENDBRANCH   1  14
TORSDOF 4
ENDMDL
MODEL 7
REMARK VINA RESULT:      -7.6      1.980      2.848
REMARK  Name = 
REMARK  4 active torsions:
REMARK  status: ('A' for Active; 'I' for Inactive)
REMARK    1  A    between atoms: C_4  and  C_5
REMARK    2  A    between atoms: C_5  and  N_6
REMARK    3  A    between atoms: C_10  and  C_11
REMARK    4  A    between atoms: C_11  and  N_12
REMARK                            x       y       z     vdW  Elec       q    Type
REMARK                         _______ _______ _______ _____ _____    ______ ____
ROOT
ATOM      1  C   UNL     1       4.228   2.722  18.949  0.00  0.00    +0.000 C 
ENDROOT
BRANCH   1   5
ATOM      2  O   UNL     1       8.000   5.404  17.968  0.00  0.00    +0.000 OA
ATOM      3  C   UNL     1       7.074   4.726  17.530  0.00  0.00    +0.000 A 
ATOM      4  N   UNL     1       6.202   4.057  18.350  0.00  0.00    +0.000 N 
ATOM      5  C   UNL     1       5.122   3.355  17.886  0.00  0.00    +0.000 A 
ATOM      6  N   UNL     1       4.858   3.210  16.624  0.00  0.00    +0.000 NA
ATOM      7  C   UNL     1       5.725   3.826  15.696  0.00  0.00    +0.000 A 
ATOM      8  C   UNL     1       5.467   3.670  14.333  0.00  0.00    +0.000 A 
ATOM      9  C   UNL     1       6.294   4.278  13.381  0.00  0.00    +0.000 A 
ATOM     10  C   UNL     1       7.383   5.052  13.785  0.00  0.00    +0.000 A 
ATOM     11  C   UNL     1       7.652   5.214  15.142  0.00  0.00    +0.000 A 
ATOM     12  C   UNL     1       6.821   4.593  16.090  0.00  0.00    +0.000 A 
ATOM     13  H   UNL     1       6.327   4.174  19.346  0.00  0.00    +0.000 HD
ENDBRANCH   1   5
BRANCH   1  14
ATOM     14  N   UNL     1       2.924   3.431  19.039  0.00  0.00    +0.000 NA
ATOM     15  C   UNL     1       2.036   2.750  19.999  0.00  0.00    +0.000 C 
ATOM     16  C   UNL     1       0.739   3.513  20.256  0.00  0.00    +0.000 C 
ATOM     17  C   UNL     1       1.009   4.943  20.699  0.00  0.00    +0.000 C 
ATOM     18  C   UNL     1       1.879   5.668  19.667  0.00  0.00    +0.000 C 
ATOM     19  C   UNL     1       3.150   4.855  19.347  0.00  0.00    +0.000 C 
BRANCH  18  20
ATOM     20  C   UNL     1       2.275   7.078  20.157  0.00  0.00    +0.000 C 
BRANCH  20  21
ATOM     21  N   UNL     1       1.983   8.142  19.221  0.00  0.00    +0.000 N 
ATOM     22  C   UNL     1       2.419   8.269  17.938  0.00  0.00    +0.000 A 
ATOM     23  N   UNL     1       1.958   9.387  17.428  0.00  0.00    +0.000 NA
ATOM     24  C   UNL     1       1.216   9.907  18.450  0.00  0.00    +0.000 A 
ATOM     25  N   UNL     1       1.188   9.170  19.565  0.00  0.00    +0.000 NA
ENDBRANCH  20  21
ENDBRANCH  18  20
ENDBRANCH   1  14
TORSDOF 4
ENDMDL
MODEL 8
REMARK VINA RESULT:      -7.6      2.105      3.054
REMARK  Name = 
REMARK  4 active torsions:
REMARK  status: ('A' for Active; 'I' for Inactive)
REMARK    1  A    between atoms: C_4  and  C_5
REMARK    2  A    between atoms: C_5  and  N_6
REMARK    3  A    between atoms: C_10  and  C_11
REMARK    4  A    between atoms: C_11  and  N_12
REMARK                            x       y       z     vdW  Elec       q    Type
REMARK                         _______ _______ _______ _____ _____    ______ ____
ROOT
ATOM      1  C   UNL     1       5.028   3.987  18.913  0.00  0.00    +0.000 C 
ENDROOT
BRANCH   1   5
ATOM      2  O   UNL     1       7.841   6.869  16.430  0.00  0.00    +0.000 OA
ATOM      3  C   UNL     1       7.120   5.875  16.425  0.00  0.00    +0.000 A 
ATOM      4  N   UNL     1       6.514   5.400  17.560  0.00  0.00    +0.000 N 
ATOM      5  C   UNL     1       5.651   4.337  17.565  0.00  0.00    +0.000 A 
ATOM      6  N   UNL     1       5.373   3.644  16.504  0.00  0.00    +0.000 NA
ATOM      7  C   UNL     1       5.983   4.027  15.290  0.00  0.00    +0.000 A 
ATOM      8  C   UNL     1       5.708   3.285  14.139  0.00  0.00    +0.000 A 
ATOM      9  C   UNL     1       6.280   3.642  12.912  0.00  0.00    +0.000 A 
ATOM     10  C   UNL     1       7.128   4.746  12.825  0.00  0.00    +0.000 A 
ATOM     11  C   UNL     1       7.412   5.494  13.966  0.00  0.00    +0.000 A 
ATOM     12  C   UNL     1       6.840   5.123  15.194  0.00  0.00    +0.000 A 
ATOM     13  H   UNL     1       6.654   5.930  18.409  0.00  0.00    +0.000 HD
ENDBRANCH   1   5
BRANCH   1  14
ATOM     14  N   UNL     1       3.574   4.300  18.924  0.00  0.00    +0.000 NA
ATOM     15  C   UNL     1       2.823   3.226  19.600  0.00  0.00    +0.000 C 
ATOM     16  C   UNL     1       1.345   3.556  19.785  0.00  0.00    +0.000 C 
ATOM     17  C   UNL     1       1.153   4.880  20.509  0.00  0.00    +0.000 C 
ATOM     18  C   UNL     1       1.880   6.007  19.769  0.00  0.00    +0.000 C 
ATOM     19  C   UNL     1       3.356   5.635  19.510  0.00  0.00    +0.000 C 
BRANCH  18  20
ATOM     20  C   UNL     1       1.810   7.333  20.555  0.00  0.00    +0.000 C 
BRANCH  20  21
ATOM     21  N   UNL     1       1.564   8.502  19.738  0.00  0.00    +0.000 N 
ATOM     22  C   UNL     1       1.029   9.693  20.123  0.00  0.00    +0.000 A 
ATOM     23  N   UNL     1       0.942  10.490  19.084  0.00  0.00    +0.000 NA
ATOM     24  C   UNL     1       1.466   9.734  18.074  0.00  0.00    +0.000 A 
ATOM     25  N   UNL     1       1.876   8.514  18.431  0.00  0.00    +0.000 NA
ENDBRANCH  20  21
ENDBRANCH  18  20
ENDBRANCH   1  14
TORSDOF 4
ENDMDL
MODEL 9
REMARK VINA RESULT:      -7.6      2.606      6.714
REMARK  Name = 
REMARK  4 active torsions:
REMARK  status: ('A' for Active; 'I' for Inactive)
REMARK    1  A    between atoms: C_4  and  C_5
REMARK    2  A    between atoms: C_5  and  N_6
REMARK    3  A    between atoms: C_10  and  C_11
REMARK    4  A    between atoms: C_11  and  N_12
REMARK                            x       y       z     vdW  Elec       q    Type
REMARK                         _______ _______ _______ _____ _____    ______ ____
ROOT
ATOM      1  C   UNL     1       2.312   7.984  17.776  0.00  0.00    +0.000 C 
ENDROOT
BRANCH   1   5
ATOM      2  O   UNL     1      -0.660  11.560  18.653  0.00  0.00    +0.000 OA
ATOM      3  C   UNL     1      -0.032  10.606  19.105  0.00  0.00    +0.000 A 
ATOM      4  N   UNL     1       0.726   9.782  18.312  0.00  0.00    +0.000 N 
ATOM      5  C   UNL     1       1.490   8.758  18.802  0.00  0.00    +0.000 A 
ATOM      6  N   UNL     1       1.521   8.435  20.059  0.00  0.00    +0.000 NA
ATOM      7  C   UNL     1       0.738   9.197  20.953  0.00  0.00    +0.000 A 
ATOM      8  C   UNL     1       0.746   8.856  22.307  0.00  0.00    +0.000 A 
ATOM      9  C   UNL     1      -0.004   9.596  23.229  0.00  0.00    +0.000 A 
ATOM     10  C   UNL     1      -0.765  10.686  22.804  0.00  0.00    +0.000 A 
ATOM     11  C   UNL     1      -0.783  11.035  21.455  0.00  0.00    +0.000 A 
ATOM     12  C   UNL     1      -0.033  10.281  20.537  0.00  0.00    +0.000 A 
ATOM     13  H   UNL     1       0.781  10.016  17.329  0.00  0.00    +0.000 HD
ENDBRANCH   1   5
BRANCH   1  14
ATOM     14  N   UNL     1       2.747   6.671  18.323  0.00  0.00    +0.000 NA
ATOM     15  C   UNL     1       1.831   5.603  17.883  0.00  0.00    +0.000 C 
ATOM     16  C   UNL     1       2.308   4.209  18.280  0.00  0.00    +0.000 C 
ATOM     17  C   UNL     1       3.721   3.938  17.787  0.00  0.00    +0.000 C 
ATOM     18  C   UNL     1       4.683   5.014  18.301  0.00  0.00    +0.000 C 
ATOM     19  C   UNL     1       4.158   6.427  17.970  0.00  0.00    +0.000 C 
BRANCH  18  20
ATOM     20  C   UNL     1       6.096   4.834  17.706  0.00  0.00    +0.000 C 
BRANCH  20  21
ATOM     21  N   UNL     1       6.959   5.987  17.851  0.00  0.00    +0.000 N 
ATOM     22  C   UNL     1       7.798   6.279  18.881  0.00  0.00    +0.000 A 
ATOM     23  N   UNL     1       8.387   7.430  18.653  0.00  0.00    +0.000 NA
ATOM     24  C   UNL     1       7.880   7.798  17.440  0.00  0.00    +0.000 A 
ATOM     25  N   UNL     1       7.013   6.937  16.900  0.00  0.00    +0.000 NA
ENDBRANCH  20  21
ENDBRANCH  18  20
ENDBRANCH   1  14
TORSDOF 4
ENDMDL
