MODEL 1
REMARK VINA RESULT:      -7.8      0.000      0.000
REMARK  Name = 
REMARK  10 active torsions:
REMARK  status: ('A' for Active; 'I' for Inactive)
REMARK    1  A    between atoms: C_2  and  S_3
REMARK    2  A    between atoms: S_3  and  C_6
REMARK    3  A    between atoms: C_8  and  O_9
REMARK    4  A    between atoms: O_9  and  C_10
REMARK    5  A    between atoms: C_12  and  C_13
REMARK    6  A    between atoms: C_13  and  O_14
REMARK    7  A    between atoms: O_14  and  C_15
REMARK    8  A    between atoms: C_15  and  C_16
REMARK    9  A    between atoms: C_15  and  C_22
REMARK   10  A    between atoms: C_15  and  C_28
REMARK                            x       y       z     vdW  Elec       q    Type
REMARK                         _______ _______ _______ _____ _____    ______ ____
ROOT
ATOM      1  C   UNL     1       5.254   5.444  16.744  0.00  0.00    +0.000 C 
ENDROOT
BRANCH   1   2
ATOM      2  C   UNL     1       4.622   4.238  17.529  0.00  0.00    +0.000 A 
ATOM      3  C   UNL     1       5.072   3.921  18.825  0.00  0.00    +0.000 A 
ATOM      4  C   UNL     1       4.556   2.819  19.519  0.00  0.00    +0.000 A 
ATOM      5  C   UNL     1       3.598   1.999  18.926  0.00  0.00    +0.000 A 
ATOM      6  C   UNL     1       3.084   2.333  17.683  0.00  0.00    +0.000 A 
ATOM      7  C   UNL     1       3.547   3.475  17.027  0.00  0.00    +0.000 A 
ENDBRANCH   1   2
BRANCH   1   8
ATOM      8  C   UNL     1       5.764   4.838  15.386  0.00  0.00    +0.000 A 
ATOM      9  C   UNL     1       7.097   4.967  14.951  0.00  0.00    +0.000 A 
ATOM     10  C   UNL     1       7.483   4.567  13.662  0.00  0.00    +0.000 A 
ATOM     11  C   UNL     1       6.552   4.019  12.782  0.00  0.00    +0.000 A 
ATOM     12  C   UNL     1       5.241   3.838  13.204  0.00  0.00    +0.000 A 
ATOM     13  C   UNL     1       4.853   4.231  14.492  0.00  0.00    +0.000 A 
ENDBRANCH   1   8
BRANCH   1  14
ATOM     14  C   UNL     1       6.379   6.219  17.509  0.00  0.00    +0.000 A 
ATOM     15  C   UNL     1       6.799   7.507  17.091  0.00  0.00    +0.000 A 
ATOM     16  C   UNL     1       7.808   8.221  17.733  0.00  0.00    +0.000 A 
ATOM     17  C   UNL     1       8.475   7.637  18.796  0.00  0.00    +0.000 A 
ATOM     18  C   UNL     1       8.150   6.338  19.185  0.00  0.00    +0.000 A 
ATOM     19  C   UNL     1       7.125   5.630  18.543  0.00  0.00    +0.000 A 
ENDBRANCH   1  14
BRANCH   1  20
ATOM     20  O   UNL     1       4.202   6.428  16.431  0.00  0.00    +0.000 OA
BRANCH  20  21
ATOM     21  C   UNL     1       3.799   7.271  17.525  0.00  0.00    +0.000 C 
BRANCH  21  26
ATOM     22  C   UNL     1       1.841   8.023  18.904  0.00  0.00    +0.000 C 
ATOM     23  C   UNL     1       1.764   7.735  20.202  0.00  0.00    +0.000 C 
ATOM     24  C   UNL     1       2.252   6.360  20.416  0.00  0.00    +0.000 C 
ATOM     25  O   UNL     1       2.609   5.856  19.121  0.00  0.00    +0.000 OA
ATOM     26  C   UNL     1       2.437   6.904  18.136  0.00  0.00    +0.000 C 
BRANCH  22  27
ATOM     27  S   UNL     1       1.427   9.548  18.241  0.00  0.00    +0.000 S 
ATOM     28  O   UNL     1       0.194   9.416  17.498  0.00  0.00    +0.000 OA
ATOM     29  O   UNL     1       2.612  10.076  17.591  0.00  0.00    +0.000 OA
BRANCH  27  31
ATOM     30  C   UNL     1       0.287  11.567  19.608  0.00  0.00    +0.000 C 
ATOM     31  C   UNL     1       1.128  10.522  19.660  0.00  0.00    +0.000 C 
ENDBRANCH  27  31
ENDBRANCH  22  27
BRANCH  24  32
ATOM     32  O   UNL     1       1.188   5.631  20.997  0.00  0.00    +0.000 OA
ATOM     33  C   UNL     1       1.131   4.303  20.496  0.00  0.00    +0.000 C 
ENDBRANCH  24  32
ENDBRANCH  21  26
ENDBRANCH  20  21
ENDBRANCH   1  20
TORSDOF 9
ENDMDL
MODEL 2
REMARK VINA RESULT:      -7.7      5.552      9.713
REMARK  Name = 
REMARK  10 active torsions:
REMARK  status: ('A' for Active; 'I' for Inactive)
REMARK    1  A    between atoms: C_2  and  S_3
REMARK    2  A    between atoms: S_3  and  C_6
REMARK    3  A    between atoms: C_8  and  O_9
REMARK    4  A    between atoms: O_9  and  C_10
REMARK    5  A    between atoms: C_12  and  C_13
REMARK    6  A    between atoms: C_13  and  O_14
REMARK    7  A    between atoms: O_14  and  C_15
REMARK    8  A    between atoms: C_15  and  C_16
REMARK    9  A    between atoms: C_15  and  C_22
REMARK   10  A    between atoms: C_15  and  C_28
REMARK                            x       y       z     vdW  Elec       q    Type
REMARK                         _______ _______ _______ _____ _____    ______ ____
ROOT
ATOM      1  C   UNL     1      -0.626  11.028  19.727  0.00  0.00    +0.000 C 
ENDROOT
BRANCH   1   2
ATOM      2  C   UNL     1      -1.797  10.959  18.682  0.00  0.00    +0.000 A 
ATOM      3  C   UNL     1      -1.683  10.141  17.541  0.00  0.00    +0.000 A 
ATOM      4  C   UNL     1      -2.696  10.106  16.574  0.00  0.00    +0.000 A 
ATOM      5  C   UNL     1      -3.831  10.903  16.714  0.00  0.00    +0.000 A 
ATOM      6  C   UNL     1      -4.001  11.658  17.864  0.00  0.00    +0.000 A 
ATOM      7  C   UNL     1      -3.024  11.631  18.860  0.00  0.00    +0.000 A 
ENDBRANCH   1   2
BRANCH   1   8
ATOM      8  C   UNL     1       0.119  12.380  19.432  0.00  0.00    +0.000 A 
ATOM      9  C   UNL     1       1.314  12.745  20.082  0.00  0.00    +0.000 A 
ATOM     10  C   UNL     1       1.863  14.028  19.927  0.00  0.00    +0.000 A 
ATOM     11  C   UNL     1       1.242  14.970  19.111  0.00  0.00    +0.000 A 
ATOM     12  C   UNL     1       0.087  14.618  18.422  0.00  0.00    +0.000 A 
ATOM     13  C   UNL     1      -0.461  13.338  18.571  0.00  0.00    +0.000 A 
ENDBRANCH   1   8
BRANCH   1  14
ATOM     14  C   UNL     1       0.345   9.799  19.719  0.00  0.00    +0.000 A 
ATOM     15  C   UNL     1       0.560   9.025  20.887  0.00  0.00    +0.000 A 
ATOM     16  C   UNL     1       1.429   7.936  20.927  0.00  0.00    +0.000 A 
ATOM     17  C   UNL     1       2.161   7.618  19.796  0.00  0.00    +0.000 A 
ATOM     18  C   UNL     1       2.042   8.406  18.652  0.00  0.00    +0.000 A 
ATOM     19  C   UNL     1       1.157   9.492  18.614  0.00  0.00    +0.000 A 
ENDBRANCH   1  14
BRANCH   1  20
ATOM     20  O   UNL     1      -1.189  11.111  21.087  0.00  0.00    +0.000 OA
BRANCH  20  21
ATOM     21  C   UNL     1      -1.733  12.391  21.453  0.00  0.00    +0.000 C 
BRANCH  21  26
ATOM     22  C   UNL     1      -2.804  13.445  23.465  0.00  0.00    +0.000 C 
ATOM     23  C   UNL     1      -2.494  14.685  23.837  0.00  0.00    +0.000 C 
ATOM     24  C   UNL     1      -1.044  14.889  23.659  0.00  0.00    +0.000 C 
ATOM     25  O   UNL     1      -0.523  13.649  23.163  0.00  0.00    +0.000 OA
ATOM     26  C   UNL     1      -1.617  12.721  22.951  0.00  0.00    +0.000 C 
BRANCH  22  27
ATOM     27  S   UNL     1      -4.401  12.823  23.459  0.00  0.00    +0.000 S 
ATOM     28  O   UNL     1      -4.541  11.884  24.549  0.00  0.00    +0.000 OA
ATOM     29  O   UNL     1      -4.701  12.408  22.102  0.00  0.00    +0.000 OA
BRANCH  27  31
ATOM     30  C   UNL     1      -6.354  14.608  22.969  0.00  0.00    +0.000 C 
ATOM     31  C   UNL     1      -5.371  14.235  23.802  0.00  0.00    +0.000 C 
ENDBRANCH  27  31
ENDBRANCH  22  27
BRANCH  24  32
ATOM     32  O   UNL     1      -0.516  15.219  24.930  0.00  0.00    +0.000 OA
ATOM     33  C   UNL     1      -1.501  15.808  25.766  0.00  0.00    +0.000 C 
ENDBRANCH  24  32
ENDBRANCH  21  26
ENDBRANCH  20  21
ENDBRANCH   1  20
TORSDOF 9
ENDMDL
MODEL 3
REMARK VINA RESULT:      -7.7      7.551     10.550
REMARK  Name = 
REMARK  10 active torsions:
REMARK  status: ('A' for Active; 'I' for Inactive)
REMARK    1  A    between atoms: C_2  and  S_3
REMARK    2  A    between atoms: S_3  and  C_6
REMARK    3  A    between atoms: C_8  and  O_9
REMARK    4  A    between atoms: O_9  and  C_10
REMARK    5  A    between atoms: C_12  and  C_13
REMARK    6  A    between atoms: C_13  and  O_14
REMARK    7  A    between atoms: O_14  and  C_15
REMARK    8  A    between atoms: C_15  and  C_16
REMARK    9  A    between atoms: C_15  and  C_22
REMARK   10  A    between atoms: C_15  and  C_28
REMARK                            x       y       z     vdW  Elec       q    Type
REMARK                         _______ _______ _______ _____ _____    ______ ____
ROOT
ATOM      1  C   UNL     1      -1.112  12.002  19.482  0.00  0.00    +0.000 C 
ENDROOT
BRANCH   1   2
ATOM      2  C   UNL     1       0.223  12.715  19.058  0.00  0.00    +0.000 A 
ATOM      3  C   UNL     1       0.325  14.118  19.107  0.00  0.00    +0.000 A 
ATOM      4  C   UNL     1       1.490  14.772  18.685  0.00  0.00    +0.000 A 
ATOM      5  C   UNL     1       2.566  14.042  18.185  0.00  0.00    +0.000 A 
ATOM      6  C   UNL     1       2.519  12.656  18.197  0.00  0.00    +0.000 A 
ATOM      7  C   UNL     1       1.386  12.007  18.690  0.00  0.00    +0.000 A 
ENDBRANCH   1   2
BRANCH   1   8
ATOM      8  C   UNL     1      -0.718  11.045  20.665  0.00  0.00    +0.000 A 
ATOM      9  C   UNL     1      -0.280   9.722  20.457  0.00  0.00    +0.000 A 
ATOM     10  C   UNL     1      -0.100   8.838  21.532  0.00  0.00    +0.000 A 
ATOM     11  C   UNL     1      -0.340   9.256  22.840  0.00  0.00    +0.000 A 
ATOM     12  C   UNL     1      -0.726  10.570  23.075  0.00  0.00    +0.000 A 
ATOM     13  C   UNL     1      -0.902  11.456  22.005  0.00  0.00    +0.000 A 
ENDBRANCH   1   8
BRANCH   1  14
ATOM     14  C   UNL     1      -1.858  11.249  18.330  0.00  0.00    +0.000 A 
ATOM     15  C   UNL     1      -1.994  11.826  17.043  0.00  0.00    +0.000 A 
ATOM     16  C   UNL     1      -2.666  11.197  15.997  0.00  0.00    +0.000 A 
ATOM     17  C   UNL     1      -3.278   9.976  16.226  0.00  0.00    +0.000 A 
ATOM     18  C   UNL     1      -3.240   9.415  17.502  0.00  0.00    +0.000 A 
ATOM     19  C   UNL     1      -2.551  10.046  18.546  0.00  0.00    +0.000 A 
ENDBRANCH   1  14
BRANCH   1  20
ATOM     20  O   UNL     1      -2.054  13.005  20.010  0.00  0.00    +0.000 OA
BRANCH  20  21
ATOM     21  C   UNL     1      -3.140  12.480  20.795  0.00  0.00    +0.000 C 
BRANCH  21  26
ATOM     22  C   UNL     1      -5.570  12.661  21.401  0.00  0.00    +0.000 C 
ATOM     23  C   UNL     1      -6.481  11.881  20.824  0.00  0.00    +0.000 C 
ATOM     24  C   UNL     1      -6.151  11.739  19.393  0.00  0.00    +0.000 C 
ATOM     25  O   UNL     1      -4.968  12.521  19.176  0.00  0.00    +0.000 OA
ATOM     26  C   UNL     1      -4.517  13.066  20.440  0.00  0.00    +0.000 C 
BRANCH  22  27
ATOM     27  S   UNL     1      -5.554  13.029  23.075  0.00  0.00    +0.000 S 
ATOM     28  O   UNL     1      -4.513  12.256  23.714  0.00  0.00    +0.000 OA
ATOM     29  O   UNL     1      -6.921  12.939  23.554  0.00  0.00    +0.000 OA
BRANCH  27  31
ATOM     30  C   UNL     1      -3.857  15.084  23.447  0.00  0.00    +0.000 C 
ATOM     31  C   UNL     1      -5.099  14.716  23.099  0.00  0.00    +0.000 C 
ENDBRANCH  27  31
ENDBRANCH  22  27
BRANCH  24  32
ATOM     32  O   UNL     1      -7.258  12.233  18.664  0.00  0.00    +0.000 OA
ATOM     33  C   UNL     1      -6.864  12.734  17.395  0.00  0.00    +0.000 C 
ENDBRANCH  24  32
ENDBRANCH  21  26
ENDBRANCH  20  21
ENDBRANCH   1  20
TORSDOF 9
ENDMDL
MODEL 4
REMARK VINA RESULT:      -7.6      7.721     11.178
REMARK  Name = 
REMARK  10 active torsions:
REMARK  status: ('A' for Active; 'I' for Inactive)
REMARK    1  A    between atoms: C_2  and  S_3
REMARK    2  A    between atoms: S_3  and  C_6
REMARK    3  A    between atoms: C_8  and  O_9
REMARK    4  A    between atoms: O_9  and  C_10
REMARK    5  A    between atoms: C_12  and  C_13
REMARK    6  A    between atoms: C_13  and  O_14
REMARK    7  A    between atoms: O_14  and  C_15
REMARK    8  A    between atoms: C_15  and  C_16
REMARK    9  A    between atoms: C_15  and  C_22
REMARK   10  A    between atoms: C_15  and  C_28
REMARK                            x       y       z     vdW  Elec       q    Type
REMARK                         _______ _______ _______ _____ _____    ______ ____
ROOT
ATOM      1  C   UNL     1      -1.699  12.149  20.250  0.00  0.00    +0.000 C 
ENDROOT
BRANCH   1   2
ATOM      2  C   UNL     1      -0.871  13.472  20.067  0.00  0.00    +0.000 A 
ATOM      3  C   UNL     1      -0.647  13.996  18.780  0.00  0.00    +0.000 A 
ATOM      4  C   UNL     1       0.130  15.146  18.594  0.00  0.00    +0.000 A 
ATOM      5  C   UNL     1       0.719  15.783  19.686  0.00  0.00    +0.000 A 
ATOM      6  C   UNL     1       0.451  15.330  20.969  0.00  0.00    +0.000 A 
ATOM      7  C   UNL     1      -0.386  14.230  21.153  0.00  0.00    +0.000 A 
ENDBRANCH   1   2
BRANCH   1   8
ATOM      8  C   UNL     1      -0.850  11.256  21.226  0.00  0.00    +0.000 A 
ATOM      9  C   UNL     1       0.361  10.650  20.840  0.00  0.00    +0.000 A 
ATOM     10  C   UNL     1       1.008   9.723  21.672  0.00  0.00    +0.000 A 
ATOM     11  C   UNL     1       0.470   9.388  22.912  0.00  0.00    +0.000 A 
ATOM     12  C   UNL     1      -0.700  10.007  23.336  0.00  0.00    +0.000 A 
ATOM     13  C   UNL     1      -1.346  10.936  22.511  0.00  0.00    +0.000 A 
ENDBRANCH   1   8
BRANCH   1  14
ATOM     14  C   UNL     1      -2.060  11.402  18.923  0.00  0.00    +0.000 A 
ATOM     15  C   UNL     1      -1.147  10.505  18.313  0.00  0.00    +0.000 A 
ATOM     16  C   UNL     1      -1.422   9.835  17.122  0.00  0.00    +0.000 A 
ATOM     17  C   UNL     1      -2.616  10.087  16.468  0.00  0.00    +0.000 A 
ATOM     18  C   UNL     1      -3.505  11.025  16.991  0.00  0.00    +0.000 A 
ATOM     19  C   UNL     1      -3.228  11.686  18.195  0.00  0.00    +0.000 A 
ENDBRANCH   1  14
BRANCH   1  20
ATOM     20  O   UNL     1      -2.975  12.460  20.919  0.00  0.00    +0.000 OA
BRANCH  20  21
ATOM     21  C   UNL     1      -3.428  13.819  20.786  0.00  0.00    +0.000 C 
BRANCH  21  26
ATOM     22  C   UNL     1      -5.618  13.128  21.802  0.00  0.00    +0.000 C 
ATOM     23  C   UNL     1      -6.368  12.183  21.239  0.00  0.00    +0.000 C 
ATOM     24  C   UNL     1      -6.327  12.350  19.774  0.00  0.00    +0.000 C 
ATOM     25  O   UNL     1      -5.495  13.492  19.525  0.00  0.00    +0.000 OA
ATOM     26  C   UNL     1      -4.958  13.976  20.781  0.00  0.00    +0.000 C 
BRANCH  22  27
ATOM     27  S   UNL     1      -5.349  13.250  23.490  0.00  0.00    +0.000 S 
ATOM     28  O   UNL     1      -4.993  14.614  23.809  0.00  0.00    +0.000 OA
ATOM     29  O   UNL     1      -4.467  12.163  23.871  0.00  0.00    +0.000 OA
BRANCH  27  31
ATOM     30  C   UNL     1      -7.847  13.876  24.274  0.00  0.00    +0.000 C 
ATOM     31  C   UNL     1      -6.925  12.907  24.162  0.00  0.00    +0.000 C 
ENDBRANCH  27  31
ENDBRANCH  22  27
BRANCH  24  32
ATOM     32  O   UNL     1      -7.659  12.558  19.345  0.00  0.00    +0.000 OA
ATOM     33  C   UNL     1      -7.769  13.715  18.528  0.00  0.00    +0.000 C 
ENDBRANCH  24  32
ENDBRANCH  21  26
ENDBRANCH  20  21
ENDBRANCH   1  20
TORSDOF 9
ENDMDL
MODEL 5
REMARK VINA RESULT:      -7.6      6.314     10.369
REMARK  Name = 
REMARK  10 active torsions:
REMARK  status: ('A' for Active; 'I' for Inactive)
REMARK    1  A    between atoms: C_2  and  S_3
REMARK    2  A    between atoms: S_3  and  C_6
REMARK    3  A    between atoms: C_8  and  O_9
REMARK    4  A    between atoms: O_9  and  C_10
REMARK    5  A    between atoms: C_12  and  C_13
REMARK    6  A    between atoms: C_13  and  O_14
REMARK    7  A    between atoms: O_14  and  C_15
REMARK    8  A    between atoms: C_15  and  C_16
REMARK    9  A    between atoms: C_15  and  C_22
REMARK   10  A    between atoms: C_15  and  C_28
REMARK                            x       y       z     vdW  Elec       q    Type
REMARK                         _______ _______ _______ _____ _____    ______ ____
ROOT
ATOM      1  C   UNL     1      -1.045  11.545  19.909  0.00  0.00    +0.000 C 
ENDROOT
BRANCH   1   2
ATOM      2  C   UNL     1      -0.125  12.796  19.671  0.00  0.00    +0.000 A 
ATOM      3  C   UNL     1       1.131  12.884  20.301  0.00  0.00    +0.000 A 
ATOM      4  C   UNL     1       1.942  14.015  20.140  0.00  0.00    +0.000 A 
ATOM      5  C   UNL     1       1.507  15.089  19.366  0.00  0.00    +0.000 A 
ATOM      6  C   UNL     1       0.309  14.996  18.675  0.00  0.00    +0.000 A 
ATOM      7  C   UNL     1      -0.460  13.836  18.778  0.00  0.00    +0.000 A 
ENDBRANCH   1   2
BRANCH   1   8
ATOM      8  C   UNL     1      -0.066  10.366  20.260  0.00  0.00    +0.000 A 
ATOM      9  C   UNL     1       0.805   9.796  19.311  0.00  0.00    +0.000 A 
ATOM     10  C   UNL     1       1.541   8.637  19.604  0.00  0.00    +0.000 A 
ATOM     11  C   UNL     1       1.436   8.028  20.852  0.00  0.00    +0.000 A 
ATOM     12  C   UNL     1       0.619   8.599  21.821  0.00  0.00    +0.000 A 
ATOM     13  C   UNL     1      -0.113   9.757  21.534  0.00  0.00    +0.000 A 
ENDBRANCH   1   8
BRANCH   1  14
ATOM     14  C   UNL     1      -2.003  11.189  18.723  0.00  0.00    +0.000 A 
ATOM     15  C   UNL     1      -1.527  10.511  17.572  0.00  0.00    +0.000 A 
ATOM     16  C   UNL     1      -2.342  10.193  16.488  0.00  0.00    +0.000 A 
ATOM     17  C   UNL     1      -3.666  10.598  16.498  0.00  0.00    +0.000 A 
ATOM     18  C   UNL     1      -4.152  11.341  17.573  0.00  0.00    +0.000 A 
ATOM     19  C   UNL     1      -3.330  11.647  18.667  0.00  0.00    +0.000 A 
ENDBRANCH   1  14
BRANCH   1  20
ATOM     20  O   UNL     1      -1.901  11.784  21.084  0.00  0.00    +0.000 OA
BRANCH  20  21
ATOM     21  C   UNL     1      -1.828  13.108  21.643  0.00  0.00    +0.000 C 
BRANCH  21  26
ATOM     22  C   UNL     1      -2.961  13.657  23.816  0.00  0.00    +0.000 C 
ATOM     23  C   UNL     1      -2.741  14.817  24.430  0.00  0.00    +0.000 C 
ATOM     24  C   UNL     1      -1.311  15.159  24.310  0.00  0.00    +0.000 C 
ATOM     25  O   UNL     1      -0.703  14.084  23.580  0.00  0.00    +0.000 OA
ATOM     26  C   UNL     1      -1.726  13.140  23.178  0.00  0.00    +0.000 C 
BRANCH  22  27
ATOM     27  S   UNL     1      -4.507  12.933  23.672  0.00  0.00    +0.000 S 
ATOM     28  O   UNL     1      -4.740  12.092  24.825  0.00  0.00    +0.000 OA
ATOM     29  O   UNL     1      -4.604  12.374  22.336  0.00  0.00    +0.000 OA
BRANCH  27  31
ATOM     30  C   UNL     1      -6.021  14.895  22.622  0.00  0.00    +0.000 C 
ATOM     31  C   UNL     1      -5.588  14.303  23.746  0.00  0.00    +0.000 C 
ENDBRANCH  27  31
ENDBRANCH  22  27
BRANCH  24  32
ATOM     32  O   UNL     1      -0.801  15.266  25.625  0.00  0.00    +0.000 OA
ATOM     33  C   UNL     1      -0.425  16.601  25.930  0.00  0.00    +0.000 C 
ENDBRANCH  24  32
ENDBRANCH  21  26
ENDBRANCH  20  21
ENDBRANCH   1  20
TORSDOF 9
ENDMDL
MODEL 6
REMARK VINA RESULT:      -7.6      6.167     10.317
REMARK  Name = 
REMARK  10 active torsions:
REMARK  status: ('A' for Active; 'I' for Inactive)
REMARK    1  A    between atoms: C_2  and  S_3
REMARK    2  A    between atoms: S_3  and  C_6
REMARK    3  A    between atoms: C_8  and  O_9
REMARK    4  A    between atoms: O_9  and  C_10
REMARK    5  A    between atoms: C_12  and  C_13
REMARK    6  A    between atoms: C_13  and  O_14
REMARK    7  A    between atoms: O_14  and  C_15
REMARK    8  A    between atoms: C_15  and  C_16
REMARK    9  A    between atoms: C_15  and  C_22
REMARK   10  A    between atoms: C_15  and  C_28
REMARK                            x       y       z     vdW  Elec       q    Type
REMARK                         _______ _______ _______ _____ _____    ______ ____
ROOT
ATOM      1  C   UNL     1      -0.936  11.477  19.882  0.00  0.00    +0.000 C 
ENDROOT
BRANCH   1   2
ATOM      2  C   UNL     1      -0.003  12.730  19.705  0.00  0.00    +0.000 A 
ATOM      3  C   UNL     1       1.135  12.888  20.519  0.00  0.00    +0.000 A 
ATOM      4  C   UNL     1       1.949  14.022  20.409  0.00  0.00    +0.000 A 
ATOM      5  C   UNL     1       1.632  15.032  19.503  0.00  0.00    +0.000 A 
ATOM      6  C   UNL     1       0.560  14.866  18.639  0.00  0.00    +0.000 A 
ATOM      7  C   UNL     1      -0.202  13.699  18.700  0.00  0.00    +0.000 A 
ENDBRANCH   1   2
BRANCH   1   8
ATOM      8  C   UNL     1       0.031  10.276  20.188  0.00  0.00    +0.000 A 
ATOM      9  C   UNL     1       0.968   9.799  19.250  0.00  0.00    +0.000 A 
ATOM     10  C   UNL     1       1.696   8.622  19.485  0.00  0.00    +0.000 A 
ATOM     11  C   UNL     1       1.515   7.900  20.662  0.00  0.00    +0.000 A 
ATOM     12  C   UNL     1       0.631   8.375  21.623  0.00  0.00    +0.000 A 
ATOM     13  C   UNL     1      -0.094   9.552  21.395  0.00  0.00    +0.000 A 
ENDBRANCH   1   8
BRANCH   1  14
ATOM     14  C   UNL     1      -1.888  11.183  18.675  0.00  0.00    +0.000 A 
ATOM     15  C   UNL     1      -3.200  11.718  18.626  0.00  0.00    +0.000 A 
ATOM     16  C   UNL     1      -4.084  11.465  17.580  0.00  0.00    +0.000 A 
ATOM     17  C   UNL     1      -3.696  10.612  16.560  0.00  0.00    +0.000 A 
ATOM     18  C   UNL     1      -2.445   9.998  16.614  0.00  0.00    +0.000 A 
ATOM     19  C   UNL     1      -1.555  10.267  17.663  0.00  0.00    +0.000 A 
ENDBRANCH   1  14
BRANCH   1  20
ATOM     20  O   UNL     1      -1.798  11.673  21.061  0.00  0.00    +0.000 OA
BRANCH  20  21
ATOM     21  C   UNL     1      -1.839  13.013  21.582  0.00  0.00    +0.000 C 
BRANCH  21  26
ATOM     22  C   UNL     1      -3.661  13.945  23.037  0.00  0.00    +0.000 C 
ATOM     23  C   UNL     1      -3.477  15.063  23.735  0.00  0.00    +0.000 C 
ATOM     24  C   UNL     1      -2.108  15.064  24.284  0.00  0.00    +0.000 C 
ATOM     25  O   UNL     1      -1.505  13.834  23.858  0.00  0.00    +0.000 OA
ATOM     26  C   UNL     1      -2.429  13.122  22.998  0.00  0.00    +0.000 C 
BRANCH  22  27
ATOM     27  S   UNL     1      -5.101  13.582  22.182  0.00  0.00    +0.000 S 
ATOM     28  O   UNL     1      -5.214  12.147  22.043  0.00  0.00    +0.000 OA
ATOM     29  O   UNL     1      -5.135  14.429  21.004  0.00  0.00    +0.000 OA
BRANCH  27  31
ATOM     30  C   UNL     1      -7.001  13.282  24.065  0.00  0.00    +0.000 C 
ATOM     31  C   UNL     1      -6.351  14.143  23.266  0.00  0.00    +0.000 C 
ENDBRANCH  27  31
ENDBRANCH  22  27
BRANCH  24  32
ATOM     32  O   UNL     1      -2.229  15.139  25.692  0.00  0.00    +0.000 OA
ATOM     33  C   UNL     1      -1.099  15.768  26.279  0.00  0.00    +0.000 C 
ENDBRANCH  24  32
ENDBRANCH  21  26
ENDBRANCH  20  21
ENDBRANCH   1  20
TORSDOF 9
ENDMDL
MODEL 7
REMARK VINA RESULT:      -7.6      5.209      9.190
REMARK  Name = 
REMARK  10 active torsions:
REMARK  status: ('A' for Active; 'I' for Inactive)
REMARK    1  A    between atoms: C_2  and  S_3
REMARK    2  A    between atoms: S_3  and  C_6
REMARK    3  A    between atoms: C_8  and  O_9
REMARK    4  A    between atoms: O_9  and  C_10
REMARK    5  A    between atoms: C_12  and  C_13
REMARK    6  A    between atoms: C_13  and  O_14
REMARK    7  A    between atoms: O_14  and  C_15
REMARK    8  A    between atoms: C_15  and  C_16
REMARK    9  A    between atoms: C_15  and  C_22
REMARK   10  A    between atoms: C_15  and  C_28
REMARK                            x       y       z     vdW  Elec       q    Type
REMARK                         _______ _______ _______ _____ _____    ______ ____
ROOT
ATOM      1  C   UNL     1      -0.248  11.053  19.530  0.00  0.00    +0.000 C 
ENDROOT
BRANCH   1   2
ATOM      2  C   UNL     1       0.726   9.845  19.280  0.00  0.00    +0.000 A 
ATOM      3  C   UNL     1       1.325   9.665  18.019  0.00  0.00    +0.000 A 
ATOM      4  C   UNL     1       2.155   8.566  17.763  0.00  0.00    +0.000 A 
ATOM      5  C   UNL     1       2.385   7.612  18.753  0.00  0.00    +0.000 A 
ATOM      6  C   UNL     1       1.868   7.806  20.025  0.00  0.00    +0.000 A 
ATOM      7  C   UNL     1       1.104   8.942  20.295  0.00  0.00    +0.000 A 
ENDBRANCH   1   2
BRANCH   1   8
ATOM      8  C   UNL     1      -1.433  10.852  18.518  0.00  0.00    +0.000 A 
ATOM      9  C   UNL     1      -2.296   9.740  18.572  0.00  0.00    +0.000 A 
ATOM     10  C   UNL     1      -3.235   9.498  17.556  0.00  0.00    +0.000 A 
ATOM     11  C   UNL     1      -3.343  10.365  16.471  0.00  0.00    +0.000 A 
ATOM     12  C   UNL     1      -2.535  11.494  16.419  0.00  0.00    +0.000 A 
ATOM     13  C   UNL     1      -1.601  11.741  17.432  0.00  0.00    +0.000 A 
ENDBRANCH   1   8
BRANCH   1  14
ATOM     14  C   UNL     1       0.407  12.470  19.405  0.00  0.00    +0.000 A 
ATOM     15  C   UNL     1       1.722  12.715  19.875  0.00  0.00    +0.000 A 
ATOM     16  C   UNL     1       2.334  13.965  19.800  0.00  0.00    +0.000 A 
ATOM     17  C   UNL     1       1.617  15.036  19.294  0.00  0.00    +0.000 A 
ATOM     18  C   UNL     1       0.292  14.856  18.900  0.00  0.00    +0.000 A 
ATOM     19  C   UNL     1      -0.313  13.593  18.966  0.00  0.00    +0.000 A 
ENDBRANCH   1  14
BRANCH   1  20
ATOM     20  O   UNL     1      -0.799  10.962  20.893  0.00  0.00    +0.000 OA
BRANCH  20  21
ATOM     21  C   UNL     1      -1.750  11.983  21.246  0.00  0.00    +0.000 C 
BRANCH  21  26
ATOM     22  C   UNL     1      -2.658  13.450  23.070  0.00  0.00    +0.000 C 
ATOM     23  C   UNL     1      -2.309  14.732  23.158  0.00  0.00    +0.000 C 
ATOM     24  C   UNL     1      -0.873  14.859  22.842  0.00  0.00    +0.000 C 
ATOM     25  O   UNL     1      -0.404  13.530  22.574  0.00  0.00    +0.000 OA
ATOM     26  C   UNL     1      -1.520  12.607  22.632  0.00  0.00    +0.000 C 
BRANCH  22  27
ATOM     27  S   UNL     1      -4.258  12.881  23.302  0.00  0.00    +0.000 S 
ATOM     28  O   UNL     1      -4.271  11.966  24.421  0.00  0.00    +0.000 OA
ATOM     29  O   UNL     1      -4.760  12.452  22.010  0.00  0.00    +0.000 OA
BRANCH  27  31
ATOM     30  C   UNL     1      -5.990  14.900  22.892  0.00  0.00    +0.000 C 
ATOM     31  C   UNL     1      -5.127  14.330  23.747  0.00  0.00    +0.000 C 
ENDBRANCH  27  31
ENDBRANCH  22  27
BRANCH  24  32
ATOM     32  O   UNL     1      -0.250  15.426  23.979  0.00  0.00    +0.000 OA
ATOM     33  C   UNL     1       0.271  16.716  23.697  0.00  0.00    +0.000 C 
ENDBRANCH  24  32
ENDBRANCH  21  26
ENDBRANCH  20  21
ENDBRANCH   1  20
TORSDOF 9
ENDMDL
MODEL 8
REMARK VINA RESULT:      -7.6      5.183      9.259
REMARK  Name = 
REMARK  10 active torsions:
REMARK  status: ('A' for Active; 'I' for Inactive)
REMARK    1  A    between atoms: C_2  and  S_3
REMARK    2  A    between atoms: S_3  and  C_6
REMARK    3  A    between atoms: C_8  and  O_9
REMARK    4  A    between atoms: O_9  and  C_10
REMARK    5  A    between atoms: C_12  and  C_13
REMARK    6  A    between atoms: C_13  and  O_14
REMARK    7  A    between atoms: O_14  and  C_15
REMARK    8  A    between atoms: C_15  and  C_16
REMARK    9  A    between atoms: C_15  and  C_22
REMARK   10  A    between atoms: C_15  and  C_28
REMARK                            x       y       z     vdW  Elec       q    Type
REMARK                         _______ _______ _______ _____ _____    ______ ____
ROOT
ATOM      1  C   UNL     1      -0.039  11.127  19.787  0.00  0.00    +0.000 C 
ENDROOT
BRANCH   1   2
ATOM      2  C   UNL     1       0.876   9.914  19.387  0.00  0.00    +0.000 A 
ATOM      3  C   UNL     1       1.494   9.877  18.122  0.00  0.00    +0.000 A 
ATOM      4  C   UNL     1       2.272   8.781  17.730  0.00  0.00    +0.000 A 
ATOM      5  C   UNL     1       2.430   7.689  18.582  0.00  0.00    +0.000 A 
ATOM      6  C   UNL     1       1.895   7.734  19.860  0.00  0.00    +0.000 A 
ATOM      7  C   UNL     1       1.185   8.861  20.273  0.00  0.00    +0.000 A 
ENDBRANCH   1   2
BRANCH   1   8
ATOM      8  C   UNL     1      -1.392  10.902  19.018  0.00  0.00    +0.000 A 
ATOM      9  C   UNL     1      -1.550   9.902  18.038  0.00  0.00    +0.000 A 
ATOM     10  C   UNL     1      -2.709   9.836  17.248  0.00  0.00    +0.000 A 
ATOM     11  C   UNL     1      -3.741  10.754  17.426  0.00  0.00    +0.000 A 
ATOM     12  C   UNL     1      -3.629  11.720  18.419  0.00  0.00    +0.000 A 
ATOM     13  C   UNL     1      -2.476  11.788  19.211  0.00  0.00    +0.000 A 
ENDBRANCH   1   8
BRANCH   1  14
ATOM     14  C   UNL     1       0.574  12.541  19.511  0.00  0.00    +0.000 A 
ATOM     15  C   UNL     1       1.851  12.898  20.011  0.00  0.00    +0.000 A 
ATOM     16  C   UNL     1       2.424  14.151  19.803  0.00  0.00    +0.000 A 
ATOM     17  C   UNL     1       1.702  15.118  19.125  0.00  0.00    +0.000 A 
ATOM     18  C   UNL     1       0.408  14.835  18.691  0.00  0.00    +0.000 A 
ATOM     19  C   UNL     1      -0.158  13.568  18.891  0.00  0.00    +0.000 A 
ENDBRANCH   1  14
BRANCH   1  20
ATOM     20  O   UNL     1      -0.327  11.067  21.231  0.00  0.00    +0.000 OA
BRANCH  20  21
ATOM     21  C   UNL     1      -1.456  11.843  21.669  0.00  0.00    +0.000 C 
BRANCH  21  26
ATOM     22  C   UNL     1      -2.231  13.744  23.116  0.00  0.00    +0.000 C 
ATOM     23  C   UNL     1      -1.761  14.977  22.939  0.00  0.00    +0.000 C 
ATOM     24  C   UNL     1      -0.318  14.899  22.642  0.00  0.00    +0.000 C 
ATOM     25  O   UNL     1       0.024  13.507  22.675  0.00  0.00    +0.000 OA
ATOM     26  C   UNL     1      -1.176  12.725  22.898  0.00  0.00    +0.000 C 
BRANCH  22  27
ATOM     27  S   UNL     1      -3.880  13.388  23.421  0.00  0.00    +0.000 S 
ATOM     28  O   UNL     1      -4.457  14.469  24.187  0.00  0.00    +0.000 OA
ATOM     29  O   UNL     1      -3.947  12.028  23.921  0.00  0.00    +0.000 OA
BRANCH  27  31
ATOM     30  C   UNL     1      -5.650  12.631  21.540  0.00  0.00    +0.000 C 
ATOM     31  C   UNL     1      -4.582  13.394  21.821  0.00  0.00    +0.000 C 
ENDBRANCH  27  31
ENDBRANCH  22  27
BRANCH  24  32
ATOM     32  O   UNL     1       0.350  15.636  23.649  0.00  0.00    +0.000 OA
ATOM     33  C   UNL     1      -0.332  16.845  23.948  0.00  0.00    +0.000 C 
ENDBRANCH  24  32
ENDBRANCH  21  26
ENDBRANCH  20  21
ENDBRANCH   1  20
TORSDOF 9
ENDMDL
MODEL 9
REMARK VINA RESULT:      -7.5      7.057     10.754
REMARK  Name = 
REMARK  10 active torsions:
REMARK  status: ('A' for Active; 'I' for Inactive)
REMARK    1  A    between atoms: C_2  and  S_3
REMARK    2  A    between atoms: S_3  and  C_6
REMARK    3  A    between atoms: C_8  and  O_9
REMARK    4  A    between atoms: O_9  and  C_10
REMARK    5  A    between atoms: C_12  and  C_13
REMARK    6  A    between atoms: C_13  and  O_14
REMARK    7  A    between atoms: O_14  and  C_15
REMARK    8  A    between atoms: C_15  and  C_16
REMARK    9  A    between atoms: C_15  and  C_22
REMARK   10  A    between atoms: C_15  and  C_28
REMARK                            x       y       z     vdW  Elec       q    Type
REMARK                         _______ _______ _______ _____ _____    ______ ____
ROOT
ATOM      1  C   UNL     1      -1.324  11.776  20.106  0.00  0.00    +0.000 C 
ENDROOT
BRANCH   1   2
ATOM      2  C   UNL     1      -0.266  12.921  19.910  0.00  0.00    +0.000 A 
ATOM      3  C   UNL     1       0.861  12.997  20.750  0.00  0.00    +0.000 A 
ATOM      4  C   UNL     1       1.788  14.040  20.622  0.00  0.00    +0.000 A 
ATOM      5  C   UNL     1       1.597  15.039  19.669  0.00  0.00    +0.000 A 
ATOM      6  C   UNL     1       0.537  14.945  18.781  0.00  0.00    +0.000 A 
ATOM      7  C   UNL     1      -0.341  13.863  18.863  0.00  0.00    +0.000 A 
ENDBRANCH   1   2
BRANCH   1   8
ATOM      8  C   UNL     1      -0.550  10.608  20.820  0.00  0.00    +0.000 A 
ATOM      9  C   UNL     1      -0.643  10.373  22.205  0.00  0.00    +0.000 A 
ATOM     10  C   UNL     1       0.188   9.437  22.840  0.00  0.00    +0.000 A 
ATOM     11  C   UNL     1       1.121   8.706  22.108  0.00  0.00    +0.000 A 
ATOM     12  C   UNL     1       1.199   8.887  20.732  0.00  0.00    +0.000 A 
ATOM     13  C   UNL     1       0.368   9.816  20.094  0.00  0.00    +0.000 A 
ENDBRANCH   1   8
BRANCH   1  14
ATOM     14  C   UNL     1      -2.040  11.301  18.796  0.00  0.00    +0.000 A 
ATOM     15  C   UNL     1      -3.391  11.642  18.533  0.00  0.00    +0.000 A 
ATOM     16  C   UNL     1      -4.069  11.225  17.390  0.00  0.00    +0.000 A 
ATOM     17  C   UNL     1      -3.423  10.397  16.488  0.00  0.00    +0.000 A 
ATOM     18  C   UNL     1      -2.123   9.970  16.752  0.00  0.00    +0.000 A 
ATOM     19  C   UNL     1      -1.441  10.404  17.897  0.00  0.00    +0.000 A 
ENDBRANCH   1  14
BRANCH   1  20
ATOM     20  O   UNL     1      -2.382  12.240  21.020  0.00  0.00    +0.000 OA
BRANCH  20  21
ATOM     21  C   UNL     1      -2.103  13.467  21.717  0.00  0.00    +0.000 C 
BRANCH  21  26
ATOM     22  C   UNL     1      -3.736  14.178  23.487  0.00  0.00    +0.000 C 
ATOM     23  C   UNL     1      -3.514  15.260  24.230  0.00  0.00    +0.000 C 
ATOM     24  C   UNL     1      -2.080  15.319  24.572  0.00  0.00    +0.000 C 
ATOM     25  O   UNL     1      -1.479  14.163  23.974  0.00  0.00    +0.000 OA
ATOM     26  C   UNL     1      -2.478  13.445  23.208  0.00  0.00    +0.000 C 
BRANCH  22  27
ATOM     27  S   UNL     1      -5.265  13.773  22.827  0.00  0.00    +0.000 S 
ATOM     28  O   UNL     1      -5.438  12.339  22.894  0.00  0.00    +0.000 OA
ATOM     29  O   UNL     1      -5.386  14.459  21.555  0.00  0.00    +0.000 OA
BRANCH  27  31
ATOM     30  C   UNL     1      -7.634  14.063  24.072  0.00  0.00    +0.000 C 
ATOM     31  C   UNL     1      -6.382  14.528  23.939  0.00  0.00    +0.000 C 
ENDBRANCH  27  31
ENDBRANCH  22  27
BRANCH  24  32
ATOM     32  O   UNL     1      -1.992  15.296  25.984  0.00  0.00    +0.000 OA
ATOM     33  C   UNL     1      -0.958  16.148  26.455  0.00  0.00    +0.000 C 
ENDBRANCH  24  32
ENDBRANCH  21  26
ENDBRANCH  20  21
ENDBRANCH   1  20
TORSDOF 9
ENDMDL
