MODEL 1
REMARK VINA RESULT:      -7.4      0.000      0.000
REMARK  Name = 
REMARK  14 active torsions:
REMARK  status: ('A' for Active; 'I' for Inactive)
REMARK    1  A    between atoms: C_1  and  O_2
REMARK    2  A    between atoms: O_2  and  C_3
REMARK    3  A    between atoms: C_6  and  C_7
REMARK    4  A    between atoms: C_14  and  O_15
REMARK    5  A    between atoms: O_15  and  C_16
REMARK    6  A    between atoms: C_16  and  C_17
REMARK    7  A    between atoms: C_17  and  C_18
REMARK    8  A    between atoms: C_18  and  C_19
REMARK    9  A    between atoms: C_19  and  C_20
REMARK   10  A    between atoms: C_20  and  C_21
REMARK   11  A    between atoms: C_21  and  N_22
REMARK   12  A    between atoms: C_25  and  C_26
REMARK   13  A    between atoms: C_26  and  C_27
REMARK   14  A    between atoms: C_27  and  O_28
REMARK                            x       y       z     vdW  Elec       q    Type
REMARK                         _______ _______ _______ _____ _____    ______ ____
ROOT
ATOM      1  C   UNL     1       0.101  10.381  20.367  0.00  0.00    +0.000 A 
ATOM      2  C   UNL     1       0.909  10.748  19.371  0.00  0.00    +0.000 A 
ATOM      3  C   UNL     1       1.521   9.729  18.555  0.00  0.00    +0.000 A 
ATOM      4  O   UNL     1       1.914   9.987  17.428  0.00  0.00    +0.000 OA
ATOM      5  C   UNL     1       1.664   8.428  19.180  0.00  0.00    +0.000 A 
ATOM      6  C   UNL     1       2.595   7.562  18.620  0.00  0.00    +0.000 A 
ATOM      7  C   UNL     1       2.895   6.396  19.290  0.00  0.00    +0.000 A 
ATOM      8  C   UNL     1       2.257   6.061  20.492  0.00  0.00    +0.000 A 
ATOM      9  C   UNL     1       1.267   6.916  21.022  0.00  0.00    +0.000 A 
ATOM     10  C   UNL     1       0.969   8.137  20.362  0.00  0.00    +0.000 A 
ATOM     11  O   UNL     1       0.035   9.054  20.868  0.00  0.00    +0.000 OA
ENDROOT
BRANCH   1  15
ATOM     12  C   UNL     1      -2.502  13.227  22.378  0.00  0.00    +0.000 A 
ATOM     13  C   UNL     1      -1.387  12.703  23.009  0.00  0.00    +0.000 A 
ATOM     14  C   UNL     1      -0.508  11.882  22.303  0.00  0.00    +0.000 A 
ATOM     15  C   UNL     1      -0.745  11.476  20.962  0.00  0.00    +0.000 A 
ATOM     16  C   UNL     1      -1.808  12.103  20.309  0.00  0.00    +0.000 A 
ATOM     17  C   UNL     1      -2.684  12.966  21.014  0.00  0.00    +0.000 A 
BRANCH  12  19
ATOM     18  C   UNL     1      -4.714  13.924  22.918  0.00  0.00    +0.000 C 
ATOM     19  O   UNL     1      -3.328  13.932  23.207  0.00  0.00    +0.000 OA
ENDBRANCH  12  19
ENDBRANCH   1  15
BRANCH   8  20
ATOM     20  O   UNL     1       2.780   4.892  20.955  0.00  0.00    +0.000 OA
BRANCH  20  21
ATOM     21  C   UNL     1       2.030   3.763  21.377  0.00  0.00    +0.000 C 
BRANCH  21  22
ATOM     22  C   UNL     1       0.775   3.729  20.464  0.00  0.00    +0.000 C 
BRANCH  22  23
ATOM     23  C   UNL     1       0.886   2.708  19.330  0.00  0.00    +0.000 C 
BRANCH  23  24
ATOM     24  C   UNL     1       1.463   3.265  18.009  0.00  0.00    +0.000 C 
BRANCH  24  25
ATOM     25  C   UNL     1       2.728   2.478  17.630  0.00  0.00    +0.000 C 
BRANCH  25  26
ATOM     26  C   UNL     1       4.019   2.879  18.370  0.00  0.00    +0.000 C 
BRANCH  26  27
ATOM     27  N   UNL     1       4.611   4.174  17.981  0.00  0.00    +0.000 NA
ATOM     28  C   UNL     1       6.045   4.240  18.308  0.00  0.00    +0.000 C 
ATOM     29  C   UNL     1       6.671   5.571  17.875  0.00  0.00    +0.000 C 
ATOM     30  C   UNL     1       6.464   5.861  16.380  0.00  0.00    +0.000 C 
ATOM     31  C   UNL     1       4.963   5.748  16.084  0.00  0.00    +0.000 C 
ATOM     32  C   UNL     1       4.385   4.406  16.547  0.00  0.00    +0.000 C 
BRANCH  30  33
ATOM     33  C   UNL     1       7.345   4.941  15.507  0.00  0.00    +0.000 C 
BRANCH  33  34
ATOM     34  C   UNL     1       6.815   4.745  14.090  0.00  0.00    +0.000 C 
BRANCH  34  35
ATOM     35  O   UNL     1       6.458   3.382  13.898  0.00  0.00    +0.000 OA
ATOM     36  H   UNL     1       5.581   3.251  14.293  0.00  0.00    +0.000 HD
ENDBRANCH  34  35
ENDBRANCH  33  34
ENDBRANCH  30  33
ENDBRANCH  26  27
ENDBRANCH  25  26
ENDBRANCH  24  25
ENDBRANCH  23  24
ENDBRANCH  22  23
ENDBRANCH  21  22
ENDBRANCH  20  21
ENDBRANCH   8  20
TORSDOF 13
ENDMDL
MODEL 2
REMARK VINA RESULT:      -7.1      4.554      6.601
REMARK  Name = 
REMARK  14 active torsions:
REMARK  status: ('A' for Active; 'I' for Inactive)
REMARK    1  A    between atoms: C_1  and  O_2
REMARK    2  A    between atoms: O_2  and  C_3
REMARK    3  A    between atoms: C_6  and  C_7
REMARK    4  A    between atoms: C_14  and  O_15
REMARK    5  A    between atoms: O_15  and  C_16
REMARK    6  A    between atoms: C_16  and  C_17
REMARK    7  A    between atoms: C_17  and  C_18
REMARK    8  A    between atoms: C_18  and  C_19
REMARK    9  A    between atoms: C_19  and  C_20
REMARK   10  A    between atoms: C_20  and  C_21
REMARK   11  A    between atoms: C_21  and  N_22
REMARK   12  A    between atoms: C_25  and  C_26
REMARK   13  A    between atoms: C_26  and  C_27
REMARK   14  A    between atoms: C_27  and  O_28
REMARK                            x       y       z     vdW  Elec       q    Type
REMARK                         _______ _______ _______ _____ _____    ______ ____
ROOT
ATOM      1  C   UNL     1       1.519   7.622  20.469  0.00  0.00    +0.000 A 
ATOM      2  C   UNL     1       1.080   6.445  20.920  0.00  0.00    +0.000 A 
ATOM      3  C   UNL     1       1.892   5.271  20.714  0.00  0.00    +0.000 A 
ATOM      4  O   UNL     1       1.758   4.290  21.428  0.00  0.00    +0.000 OA
ATOM      5  C   UNL     1       2.816   5.336  19.598  0.00  0.00    +0.000 A 
ATOM      6  C   UNL     1       3.295   4.127  19.109  0.00  0.00    +0.000 A 
ATOM      7  C   UNL     1       4.024   4.132  17.940  0.00  0.00    +0.000 A 
ATOM      8  C   UNL     1       4.313   5.327  17.267  0.00  0.00    +0.000 A 
ATOM      9  C   UNL     1       3.875   6.558  17.803  0.00  0.00    +0.000 A 
ATOM     10  C   UNL     1       3.096   6.568  18.990  0.00  0.00    +0.000 A 
ATOM     11  O   UNL     1       2.586   7.752  19.542  0.00  0.00    +0.000 OA
ENDROOT
BRANCH   1  15
ATOM     12  C   UNL     1      -0.882  10.834  22.152  0.00  0.00    +0.000 A 
ATOM     13  C   UNL     1      -0.169   9.970  22.965  0.00  0.00    +0.000 A 
ATOM     14  C   UNL     1       0.681   9.022  22.396  0.00  0.00    +0.000 A 
ATOM     15  C   UNL     1       0.795   8.835  20.992  0.00  0.00    +0.000 A 
ATOM     16  C   UNL     1       0.159   9.787  20.192  0.00  0.00    +0.000 A 
ATOM     17  C   UNL     1      -0.679  10.774  20.768  0.00  0.00    +0.000 A 
BRANCH  12  19
ATOM     18  C   UNL     1      -1.302  12.942  23.179  0.00  0.00    +0.000 C 
ATOM     19  O   UNL     1      -1.749  11.644  22.830  0.00  0.00    +0.000 OA
ENDBRANCH  12  19
ENDBRANCH   1  15
BRANCH   8  20
ATOM     20  O   UNL     1       4.995   5.033  16.125  0.00  0.00    +0.000 OA
BRANCH  20  21
ATOM     21  C   UNL     1       6.232   5.609  15.733  0.00  0.00    +0.000 C 
BRANCH  21  22
ATOM     22  C   UNL     1       7.262   5.157  16.803  0.00  0.00    +0.000 C 
BRANCH  22  23
ATOM     23  C   UNL     1       7.580   6.249  17.827  0.00  0.00    +0.000 C 
BRANCH  23  24
ATOM     24  C   UNL     1       7.190   7.679  17.394  0.00  0.00    +0.000 C 
BRANCH  24  25
ATOM     25  C   UNL     1       8.399   8.614  17.565  0.00  0.00    +0.000 C 
BRANCH  25  26
ATOM     26  C   UNL     1       8.472   9.386  18.897  0.00  0.00    +0.000 C 
BRANCH  26  27
ATOM     27  N   UNL     1       9.649  10.258  19.075  0.00  0.00    +0.000 NA
ATOM     28  C   UNL     1       9.844  11.157  17.925  0.00  0.00    +0.000 C 
ATOM     29  C   UNL     1      11.046  12.087  18.122  0.00  0.00    +0.000 C 
ATOM     30  C   UNL     1      10.948  12.911  19.415  0.00  0.00    +0.000 C 
ATOM     31  C   UNL     1      10.714  11.936  20.576  0.00  0.00    +0.000 C 
ATOM     32  C   UNL     1       9.510  11.022  20.323  0.00  0.00    +0.000 C 
BRANCH  30  33
ATOM     33  C   UNL     1       9.871  14.011  19.295  0.00  0.00    +0.000 C 
BRANCH  33  34
ATOM     34  C   UNL     1      10.325  15.234  18.505  0.00  0.00    +0.000 C 
BRANCH  34  35
ATOM     35  O   UNL     1       9.266  16.182  18.443  0.00  0.00    +0.000 OA
ATOM     36  H   UNL     1       8.890  16.260  19.335  0.00  0.00    +0.000 HD
ENDBRANCH  34  35
ENDBRANCH  33  34
ENDBRANCH  30  33
ENDBRANCH  26  27
ENDBRANCH  25  26
ENDBRANCH  24  25
ENDBRANCH  23  24
ENDBRANCH  22  23
ENDBRANCH  21  22
ENDBRANCH  20  21
ENDBRANCH   8  20
TORSDOF 13
ENDMDL
MODEL 3
REMARK VINA RESULT:      -7.0      1.923      4.554
REMARK  Name = 
REMARK  14 active torsions:
REMARK  status: ('A' for Active; 'I' for Inactive)
REMARK    1  A    between atoms: C_1  and  O_2
REMARK    2  A    between atoms: O_2  and  C_3
REMARK    3  A    between atoms: C_6  and  C_7
REMARK    4  A    between atoms: C_14  and  O_15
REMARK    5  A    between atoms: O_15  and  C_16
REMARK    6  A    between atoms: C_16  and  C_17
REMARK    7  A    between atoms: C_17  and  C_18
REMARK    8  A    between atoms: C_18  and  C_19
REMARK    9  A    between atoms: C_19  and  C_20
REMARK   10  A    between atoms: C_20  and  C_21
REMARK   11  A    between atoms: C_21  and  N_22
REMARK   12  A    between atoms: C_25  and  C_26
REMARK   13  A    between atoms: C_26  and  C_27
REMARK   14  A    between atoms: C_27  and  O_28
REMARK                            x       y       z     vdW  Elec       q    Type
REMARK                         _______ _______ _______ _____ _____    ______ ____
ROOT
ATOM      1  C   UNL     1      -0.865  11.856  21.481  0.00  0.00    +0.000 A 
ATOM      2  C   UNL     1      -0.950  11.073  22.558  0.00  0.00    +0.000 A 
ATOM      3  C   UNL     1       0.048  10.053  22.762  0.00  0.00    +0.000 A 
ATOM      4  O   UNL     1       0.260   9.605  23.877  0.00  0.00    +0.000 OA
ATOM      5  C   UNL     1       0.726   9.592  21.565  0.00  0.00    +0.000 A 
ATOM      6  C   UNL     1       1.364   8.360  21.641  0.00  0.00    +0.000 A 
ATOM      7  C   UNL     1       1.857   7.802  20.482  0.00  0.00    +0.000 A 
ATOM      8  C   UNL     1       1.756   8.466  19.253  0.00  0.00    +0.000 A 
ATOM      9  C   UNL     1       1.162   9.746  19.194  0.00  0.00    +0.000 A 
ATOM     10  C   UNL     1       0.619  10.322  20.373  0.00  0.00    +0.000 A 
ATOM     11  O   UNL     1      -0.032  11.564  20.369  0.00  0.00    +0.000 OA
ENDROOT
BRANCH   1  15
ATOM     12  C   UNL     1      -3.664  15.178  21.254  0.00  0.00    +0.000 A 
ATOM     13  C   UNL     1      -3.974  14.024  21.953  0.00  0.00    +0.000 A 
ATOM     14  C   UNL     1      -3.015  13.023  22.105  0.00  0.00    +0.000 A 
ATOM     15  C   UNL     1      -1.733  13.087  21.495  0.00  0.00    +0.000 A 
ATOM     16  C   UNL     1      -1.399  14.302  20.892  0.00  0.00    +0.000 A 
ATOM     17  C   UNL     1      -2.360  15.337  20.767  0.00  0.00    +0.000 A 
BRANCH  12  19
ATOM     18  C   UNL     1      -5.673  15.721  20.096  0.00  0.00    +0.000 C 
ATOM     19  O   UNL     1      -4.720  16.031  21.096  0.00  0.00    +0.000 OA
ENDBRANCH  12  19
ENDBRANCH   1  15
BRANCH   8  20
ATOM     20  O   UNL     1       2.276   7.668  18.279  0.00  0.00    +0.000 OA
BRANCH  20  21
ATOM     21  C   UNL     1       3.134   8.097  17.233  0.00  0.00    +0.000 C 
BRANCH  21  22
ATOM     22  C   UNL     1       4.398   7.202  17.335  0.00  0.00    +0.000 C 
BRANCH  22  23
ATOM     23  C   UNL     1       4.898   6.713  15.975  0.00  0.00    +0.000 C 
BRANCH  23  24
ATOM     24  C   UNL     1       6.048   5.683  16.037  0.00  0.00    +0.000 C 
BRANCH  24  25
ATOM     25  C   UNL     1       5.462   4.262  16.087  0.00  0.00    +0.000 C 
BRANCH  25  26
ATOM     26  C   UNL     1       5.012   3.767  17.474  0.00  0.00    +0.000 C 
BRANCH  26  27
ATOM     27  N   UNL     1       3.637   3.235  17.556  0.00  0.00    +0.000 NA
ATOM     28  C   UNL     1       3.486   2.278  18.664  0.00  0.00    +0.000 C 
ATOM     29  C   UNL     1       2.050   1.750  18.773  0.00  0.00    +0.000 C 
ATOM     30  C   UNL     1       1.016   2.877  18.914  0.00  0.00    +0.000 C 
ATOM     31  C   UNL     1       1.236   3.862  17.759  0.00  0.00    +0.000 C 
ATOM     32  C   UNL     1       2.687   4.349  17.688  0.00  0.00    +0.000 C 
BRANCH  30  33
ATOM     33  C   UNL     1       1.089   3.527  20.313  0.00  0.00    +0.000 C 
BRANCH  33  34
ATOM     34  C   UNL     1       1.503   2.563  21.420  0.00  0.00    +0.000 C 
BRANCH  34  35
ATOM     35  O   UNL     1       2.682   3.042  22.053  0.00  0.00    +0.000 OA
ATOM     36  H   UNL     1       3.183   3.549  21.394  0.00  0.00    +0.000 HD
ENDBRANCH  34  35
ENDBRANCH  33  34
ENDBRANCH  30  33
ENDBRANCH  26  27
ENDBRANCH  25  26
ENDBRANCH  24  25
ENDBRANCH  23  24
ENDBRANCH  22  23
ENDBRANCH  21  22
ENDBRANCH  20  21
ENDBRANCH   8  20
TORSDOF 13
ENDMDL
MODEL 4
REMARK VINA RESULT:      -7.0      3.653     10.687
REMARK  Name = 
REMARK  14 active torsions:
REMARK  status: ('A' for Active; 'I' for Inactive)
REMARK    1  A    between atoms: C_1  and  O_2
REMARK    2  A    between atoms: O_2  and  C_3
REMARK    3  A    between atoms: C_6  and  C_7
REMARK    4  A    between atoms: C_14  and  O_15
REMARK    5  A    between atoms: O_15  and  C_16
REMARK    6  A    between atoms: C_16  and  C_17
REMARK    7  A    between atoms: C_17  and  C_18
REMARK    8  A    between atoms: C_18  and  C_19
REMARK    9  A    between atoms: C_19  and  C_20
REMARK   10  A    between atoms: C_20  and  C_21
REMARK   11  A    between atoms: C_21  and  N_22
REMARK   12  A    between atoms: C_25  and  C_26
REMARK   13  A    between atoms: C_26  and  C_27
REMARK   14  A    between atoms: C_27  and  O_28
REMARK                            x       y       z     vdW  Elec       q    Type
REMARK                         _______ _______ _______ _____ _____    ______ ____
ROOT
ATOM      1  C   UNL     1       2.248   7.379  18.993  0.00  0.00    +0.000 A 
ATOM      2  C   UNL     1       2.076   8.231  17.981  0.00  0.00    +0.000 A 
ATOM      3  C   UNL     1       1.787   9.614  18.273  0.00  0.00    +0.000 A 
ATOM      4  O   UNL     1       2.021  10.485  17.450  0.00  0.00    +0.000 OA
ATOM      5  C   UNL     1       1.178   9.867  19.565  0.00  0.00    +0.000 A 
ATOM      6  C   UNL     1       0.513  11.078  19.718  0.00  0.00    +0.000 A 
ATOM      7  C   UNL     1      -0.234  11.278  20.858  0.00  0.00    +0.000 A 
ATOM      8  C   UNL     1      -0.302  10.306  21.865  0.00  0.00    +0.000 A 
ATOM      9  C   UNL     1       0.427   9.105  21.731  0.00  0.00    +0.000 A 
ATOM     10  C   UNL     1       1.176   8.868  20.548  0.00  0.00    +0.000 A 
ATOM     11  O   UNL     1       1.876   7.672  20.331  0.00  0.00    +0.000 OA
ENDROOT
BRANCH   1  15
ATOM     12  C   UNL     1       3.654   3.344  18.182  0.00  0.00    +0.000 A 
ATOM     13  C   UNL     1       2.499   3.832  17.597  0.00  0.00    +0.000 A 
ATOM     14  C   UNL     1       2.133   5.165  17.784  0.00  0.00    +0.000 A 
ATOM     15  C   UNL     1       2.855   6.048  18.632  0.00  0.00    +0.000 A 
ATOM     16  C   UNL     1       4.075   5.573  19.120  0.00  0.00    +0.000 A 
ATOM     17  C   UNL     1       4.467   4.228  18.902  0.00  0.00    +0.000 A 
BRANCH  12  19
ATOM     18  C   UNL     1       3.692   1.157  19.126  0.00  0.00    +0.000 C 
ATOM     19  O   UNL     1       3.843   2.003  18.000  0.00  0.00    +0.000 OA
ENDBRANCH  12  19
ENDBRANCH   1  15
BRANCH   8  20
ATOM     20  O   UNL     1      -1.145  10.745  22.841  0.00  0.00    +0.000 OA
BRANCH  20  21
ATOM     21  C   UNL     1      -1.540  12.093  23.044  0.00  0.00    +0.000 C 
BRANCH  21  22
ATOM     22  C   UNL     1      -3.007  12.029  23.547  0.00  0.00    +0.000 C 
BRANCH  22  23
ATOM     23  C   UNL     1      -3.493  13.348  24.151  0.00  0.00    +0.000 C 
BRANCH  23  24
ATOM     24  C   UNL     1      -3.934  14.411  23.120  0.00  0.00    +0.000 C 
BRANCH  24  25
ATOM     25  C   UNL     1      -4.534  13.713  21.888  0.00  0.00    +0.000 C 
BRANCH  25  26
ATOM     26  C   UNL     1      -6.073  13.659  21.827  0.00  0.00    +0.000 C 
BRANCH  26  27
ATOM     27  N   UNL     1      -6.652  13.119  20.581  0.00  0.00    +0.000 NA
ATOM     28  C   UNL     1      -5.952  13.622  19.389  0.00  0.00    +0.000 C 
ATOM     29  C   UNL     1      -6.530  13.037  18.095  0.00  0.00    +0.000 C 
ATOM     30  C   UNL     1      -6.527  11.501  18.090  0.00  0.00    +0.000 C 
ATOM     31  C   UNL     1      -7.237  11.027  19.364  0.00  0.00    +0.000 C 
ATOM     32  C   UNL     1      -6.629  11.650  20.626  0.00  0.00    +0.000 C 
BRANCH  30  33
ATOM     33  C   UNL     1      -5.095  10.947  17.929  0.00  0.00    +0.000 C 
BRANCH  33  34
ATOM     34  C   UNL     1      -4.332  11.545  16.751  0.00  0.00    +0.000 C 
BRANCH  34  35
ATOM     35  O   UNL     1      -4.457  10.694  15.619  0.00  0.00    +0.000 OA
ATOM     36  H   UNL     1      -3.607  10.240  15.499  0.00  0.00    +0.000 HD
ENDBRANCH  34  35
ENDBRANCH  33  34
ENDBRANCH  30  33
ENDBRANCH  26  27
ENDBRANCH  25  26
ENDBRANCH  24  25
ENDBRANCH  23  24
ENDBRANCH  22  23
ENDBRANCH  21  22
ENDBRANCH  20  21
ENDBRANCH   8  20
TORSDOF 13
ENDMDL
MODEL 5
REMARK VINA RESULT:      -6.9      3.686     10.747
REMARK  Name = 
REMARK  14 active torsions:
REMARK  status: ('A' for Active; 'I' for Inactive)
REMARK    1  A    between atoms: C_1  and  O_2
REMARK    2  A    between atoms: O_2  and  C_3
REMARK    3  A    between atoms: C_6  and  C_7
REMARK    4  A    between atoms: C_14  and  O_15
REMARK    5  A    between atoms: O_15  and  C_16
REMARK    6  A    between atoms: C_16  and  C_17
REMARK    7  A    between atoms: C_17  and  C_18
REMARK    8  A    between atoms: C_18  and  C_19
REMARK    9  A    between atoms: C_19  and  C_20
REMARK   10  A    between atoms: C_20  and  C_21
REMARK   11  A    between atoms: C_21  and  N_22
REMARK   12  A    between atoms: C_25  and  C_26
REMARK   13  A    between atoms: C_26  and  C_27
REMARK   14  A    between atoms: C_27  and  O_28
REMARK                            x       y       z     vdW  Elec       q    Type
REMARK                         _______ _______ _______ _____ _____    ______ ____
ROOT
ATOM      1  C   UNL     1       2.171   7.289  19.324  0.00  0.00    +0.000 A 
ATOM      2  C   UNL     1       2.006   8.058  18.246  0.00  0.00    +0.000 A 
ATOM      3  C   UNL     1       1.716   9.459  18.425  0.00  0.00    +0.000 A 
ATOM      4  O   UNL     1       1.956  10.262  17.536  0.00  0.00    +0.000 OA
ATOM      5  C   UNL     1       1.098   9.815  19.688  0.00  0.00    +0.000 A 
ATOM      6  C   UNL     1       0.432  11.034  19.738  0.00  0.00    +0.000 A 
ATOM      7  C   UNL     1      -0.323  11.325  20.853  0.00  0.00    +0.000 A 
ATOM      8  C   UNL     1      -0.399  10.436  21.934  0.00  0.00    +0.000 A 
ATOM      9  C   UNL     1       0.330   9.228  21.902  0.00  0.00    +0.000 A 
ATOM     10  C   UNL     1       1.088   8.897  20.747  0.00  0.00    +0.000 A 
ATOM     11  O   UNL     1       1.789   7.688  20.631  0.00  0.00    +0.000 OA
ENDROOT
BRANCH   1  15
ATOM     12  C   UNL     1       3.933   3.321  19.060  0.00  0.00    +0.000 A 
ATOM     13  C   UNL     1       2.621   3.499  19.465  0.00  0.00    +0.000 A 
ATOM     14  C   UNL     1       2.048   4.770  19.431  0.00  0.00    +0.000 A 
ATOM     15  C   UNL     1       2.780   5.934  19.075  0.00  0.00    +0.000 A 
ATOM     16  C   UNL     1       4.062   5.721  18.562  0.00  0.00    +0.000 A 
ATOM     17  C   UNL     1       4.636   4.425  18.562  0.00  0.00    +0.000 A 
BRANCH  12  19
ATOM     18  C   UNL     1       4.729   1.643  20.552  0.00  0.00    +0.000 C 
ATOM     19  O   UNL     1       4.399   2.049  19.236  0.00  0.00    +0.000 OA
ENDBRANCH  12  19
ENDBRANCH   1  15
BRANCH   8  20
ATOM     20  O   UNL     1      -1.248  10.951  22.866  0.00  0.00    +0.000 OA
BRANCH  20  21
ATOM     21  C   UNL     1      -1.710  12.293  22.908  0.00  0.00    +0.000 C 
BRANCH  21  22
ATOM     22  C   UNL     1      -3.129  12.228  23.536  0.00  0.00    +0.000 C 
BRANCH  22  23
ATOM     23  C   UNL     1      -4.056  13.337  23.037  0.00  0.00    +0.000 C 
BRANCH  23  24
ATOM     24  C   UNL     1      -5.559  13.096  23.302  0.00  0.00    +0.000 C 
BRANCH  24  25
ATOM     25  C   UNL     1      -6.380  13.617  22.110  0.00  0.00    +0.000 C 
BRANCH  25  26
ATOM     26  C   UNL     1      -7.648  12.814  21.762  0.00  0.00    +0.000 C 
BRANCH  26  27
ATOM     27  N   UNL     1      -7.718  12.281  20.388  0.00  0.00    +0.000 NA
ATOM     28  C   UNL     1      -7.352  13.296  19.387  0.00  0.00    +0.000 C 
ATOM     29  C   UNL     1      -7.392  12.735  17.960  0.00  0.00    +0.000 C 
ATOM     30  C   UNL     1      -6.504  11.493  17.790  0.00  0.00    +0.000 C 
ATOM     31  C   UNL     1      -6.901  10.481  18.873  0.00  0.00    +0.000 C 
ATOM     32  C   UNL     1      -6.856  11.095  20.277  0.00  0.00    +0.000 C 
BRANCH  30  33
ATOM     33  C   UNL     1      -5.007  11.871  17.807  0.00  0.00    +0.000 C 
BRANCH  33  34
ATOM     34  C   UNL     1      -4.067  10.671  17.747  0.00  0.00    +0.000 C 
BRANCH  34  35
ATOM     35  O   UNL     1      -2.798  11.033  18.276  0.00  0.00    +0.000 OA
ATOM     36  H   UNL     1      -2.830  11.979  18.494  0.00  0.00    +0.000 HD
ENDBRANCH  34  35
ENDBRANCH  33  34
ENDBRANCH  30  33
ENDBRANCH  26  27
ENDBRANCH  25  26
ENDBRANCH  24  25
ENDBRANCH  23  24
ENDBRANCH  22  23
ENDBRANCH  21  22
ENDBRANCH  20  21
ENDBRANCH   8  20
TORSDOF 13
ENDMDL
MODEL 6
REMARK VINA RESULT:      -6.9      1.056      1.418
REMARK  Name = 
REMARK  14 active torsions:
REMARK  status: ('A' for Active; 'I' for Inactive)
REMARK    1  A    between atoms: C_1  and  O_2
REMARK    2  A    between atoms: O_2  and  C_3
REMARK    3  A    between atoms: C_6  and  C_7
REMARK    4  A    between atoms: C_14  and  O_15
REMARK    5  A    between atoms: O_15  and  C_16
REMARK    6  A    between atoms: C_16  and  C_17
REMARK    7  A    between atoms: C_17  and  C_18
REMARK    8  A    between atoms: C_18  and  C_19
REMARK    9  A    between atoms: C_19  and  C_20
REMARK   10  A    between atoms: C_20  and  C_21
REMARK   11  A    between atoms: C_21  and  N_22
REMARK   12  A    between atoms: C_25  and  C_26
REMARK   13  A    between atoms: C_26  and  C_27
REMARK   14  A    between atoms: C_27  and  O_28
REMARK                            x       y       z     vdW  Elec       q    Type
REMARK                         _______ _______ _______ _____ _____    ______ ____
ROOT
ATOM      1  C   UNL     1      -0.238  10.782  20.735  0.00  0.00    +0.000 A 
ATOM      2  C   UNL     1       0.529  11.234  19.742  0.00  0.00    +0.000 A 
ATOM      3  C   UNL     1       1.134  10.287  18.838  0.00  0.00    +0.000 A 
ATOM      4  O   UNL     1       1.484  10.630  17.720  0.00  0.00    +0.000 OA
ATOM      5  C   UNL     1       1.324   8.950  19.368  0.00  0.00    +0.000 A 
ATOM      6  C   UNL     1       2.253   8.145  18.720  0.00  0.00    +0.000 A 
ATOM      7  C   UNL     1       2.599   6.943  19.298  0.00  0.00    +0.000 A 
ATOM      8  C   UNL     1       2.008   6.513  20.494  0.00  0.00    +0.000 A 
ATOM      9  C   UNL     1       1.019   7.308  21.113  0.00  0.00    +0.000 A 
ATOM     10  C   UNL     1       0.674   8.564  20.548  0.00  0.00    +0.000 A 
ATOM     11  O   UNL     1      -0.260   9.423  21.146  0.00  0.00    +0.000 OA
ENDROOT
BRANCH   1  15
ATOM     12  C   UNL     1      -2.407  14.080  22.561  0.00  0.00    +0.000 A 
ATOM     13  C   UNL     1      -2.450  13.861  21.195  0.00  0.00    +0.000 A 
ATOM     14  C   UNL     1      -1.839  12.732  20.651  0.00  0.00    +0.000 A 
ATOM     15  C   UNL     1      -1.085  11.814  21.432  0.00  0.00    +0.000 A 
ATOM     16  C   UNL     1      -1.149  11.988  22.816  0.00  0.00    +0.000 A 
ATOM     17  C   UNL     1      -1.799  13.116  23.375  0.00  0.00    +0.000 A 
BRANCH  12  19
ATOM     18  C   UNL     1      -2.098  16.237  23.524  0.00  0.00    +0.000 C 
ATOM     19  O   UNL     1      -2.957  15.269  22.949  0.00  0.00    +0.000 OA
ENDBRANCH  12  19
ENDBRANCH   1  15
BRANCH   8  20
ATOM     20  O   UNL     1       2.570   5.327  20.858  0.00  0.00    +0.000 OA
BRANCH  20  21
ATOM     21  C   UNL     1       1.867   4.111  21.065  0.00  0.00    +0.000 C 
BRANCH  21  22
ATOM     22  C   UNL     1       0.799   4.048  19.940  0.00  0.00    +0.000 C 
BRANCH  22  23
ATOM     23  C   UNL     1       0.813   2.724  19.174  0.00  0.00    +0.000 C 
BRANCH  23  24
ATOM     24  C   UNL     1       1.894   1.720  19.632  0.00  0.00    +0.000 C 
BRANCH  24  25
ATOM     25  C   UNL     1       3.114   1.820  18.700  0.00  0.00    +0.000 C 
BRANCH  25  26
ATOM     26  C   UNL     1       3.024   2.877  17.583  0.00  0.00    +0.000 C 
BRANCH  26  27
ATOM     27  N   UNL     1       3.803   4.112  17.798  0.00  0.00    +0.000 NA
ATOM     28  C   UNL     1       4.977   3.878  18.654  0.00  0.00    +0.000 C 
ATOM     29  C   UNL     1       5.807   5.152  18.851  0.00  0.00    +0.000 C 
ATOM     30  C   UNL     1       6.250   5.779  17.521  0.00  0.00    +0.000 C 
ATOM     31  C   UNL     1       4.999   5.974  16.655  0.00  0.00    +0.000 C 
ATOM     32  C   UNL     1       4.200   4.674  16.499  0.00  0.00    +0.000 C 
BRANCH  30  33
ATOM     33  C   UNL     1       7.352   4.934  16.846  0.00  0.00    +0.000 C 
BRANCH  33  34
ATOM     34  C   UNL     1       7.107   4.671  15.364  0.00  0.00    +0.000 C 
BRANCH  34  35
ATOM     35  O   UNL     1       7.919   5.540  14.584  0.00  0.00    +0.000 OA
ATOM     36  H   UNL     1       7.326   6.112  14.070  0.00  0.00    +0.000 HD
ENDBRANCH  34  35
ENDBRANCH  33  34
ENDBRANCH  30  33
ENDBRANCH  26  27
ENDBRANCH  25  26
ENDBRANCH  24  25
ENDBRANCH  23  24
ENDBRANCH  22  23
ENDBRANCH  21  22
ENDBRANCH  20  21
ENDBRANCH   8  20
TORSDOF 13
ENDMDL
MODEL 7
REMARK VINA RESULT:      -6.9      5.671      7.391
REMARK  Name = 
REMARK  14 active torsions:
REMARK  status: ('A' for Active; 'I' for Inactive)
REMARK    1  A    between atoms: C_1  and  O_2
REMARK    2  A    between atoms: O_2  and  C_3
REMARK    3  A    between atoms: C_6  and  C_7
REMARK    4  A    between atoms: C_14  and  O_15
REMARK    5  A    between atoms: O_15  and  C_16
REMARK    6  A    between atoms: C_16  and  C_17
REMARK    7  A    between atoms: C_17  and  C_18
REMARK    8  A    between atoms: C_18  and  C_19
REMARK    9  A    between atoms: C_19  and  C_20
REMARK   10  A    between atoms: C_20  and  C_21
REMARK   11  A    between atoms: C_21  and  N_22
REMARK   12  A    between atoms: C_25  and  C_26
REMARK   13  A    between atoms: C_26  and  C_27
REMARK   14  A    between atoms: C_27  and  O_28
REMARK                            x       y       z     vdW  Elec       q    Type
REMARK                         _______ _______ _______ _____ _____    ______ ____
ROOT
ATOM      1  C   UNL     1       4.917  15.953  18.418  0.00  0.00    +0.000 A 
ATOM      2  C   UNL     1       5.722  16.915  18.874  0.00  0.00    +0.000 A 
ATOM      3  C   UNL     1       7.107  16.915  18.475  0.00  0.00    +0.000 A 
ATOM      4  O   UNL     1       7.765  17.943  18.512  0.00  0.00    +0.000 OA
ATOM      5  C   UNL     1       7.646  15.627  18.081  0.00  0.00    +0.000 A 
ATOM      6  C   UNL     1       9.029  15.494  18.098  0.00  0.00    +0.000 A 
ATOM      7  C   UNL     1       9.571  14.241  17.913  0.00  0.00    +0.000 A 
ATOM      8  C   UNL     1       8.760  13.123  17.676  0.00  0.00    +0.000 A 
ATOM      9  C   UNL     1       7.359  13.278  17.598  0.00  0.00    +0.000 A 
ATOM     10  C   UNL     1       6.781  14.556  17.819  0.00  0.00    +0.000 A 
ATOM     11  O   UNL     1       5.394  14.763  17.809  0.00  0.00    +0.000 OA
ENDROOT
BRANCH   1  15
ATOM     12  C   UNL     1       0.595  16.199  18.835  0.00  0.00    +0.000 A 
ATOM     13  C   UNL     1       1.360  15.454  19.717  0.00  0.00    +0.000 A 
ATOM     14  C   UNL     1       2.752  15.485  19.628  0.00  0.00    +0.000 A 
ATOM     15  C   UNL     1       3.441  16.190  18.606  0.00  0.00    +0.000 A 
ATOM     16  C   UNL     1       2.662  17.023  17.800  0.00  0.00    +0.000 A 
ATOM     17  C   UNL     1       1.249  17.022  17.910  0.00  0.00    +0.000 A 
BRANCH  12  19
ATOM     18  C   UNL     1      -1.212  15.374  20.150  0.00  0.00    +0.000 C 
ATOM     19  O   UNL     1      -0.751  16.002  18.968  0.00  0.00    +0.000 OA
ENDBRANCH  12  19
ENDBRANCH   1  15
BRANCH   8  20
ATOM     20  O   UNL     1       9.552  12.019  17.583  0.00  0.00    +0.000 OA
BRANCH  20  21
ATOM     21  C   UNL     1       9.536  10.915  18.475  0.00  0.00    +0.000 C 
BRANCH  21  22
ATOM     22  C   UNL     1       8.450   9.950  17.927  0.00  0.00    +0.000 C 
BRANCH  22  23
ATOM     23  C   UNL     1       8.548   8.541  18.516  0.00  0.00    +0.000 C 
BRANCH  23  24
ATOM     24  C   UNL     1       7.639   7.490  17.841  0.00  0.00    +0.000 C 
BRANCH  24  25
ATOM     25  C   UNL     1       7.840   6.126  18.522  0.00  0.00    +0.000 C 
BRANCH  25  26
ATOM     26  C   UNL     1       6.616   5.556  19.264  0.00  0.00    +0.000 C 
BRANCH  26  27
ATOM     27  N   UNL     1       5.349   5.542  18.507  0.00  0.00    +0.000 NA
ATOM     28  C   UNL     1       5.245   4.360  17.636  0.00  0.00    +0.000 C 
ATOM     29  C   UNL     1       3.915   4.325  16.874  0.00  0.00    +0.000 C 
ATOM     30  C   UNL     1       2.698   4.392  17.808  0.00  0.00    +0.000 C 
ATOM     31  C   UNL     1       2.869   5.618  18.714  0.00  0.00    +0.000 C 
ATOM     32  C   UNL     1       4.218   5.610  19.442  0.00  0.00    +0.000 C 
BRANCH  30  33
ATOM     33  C   UNL     1       2.513   3.066  18.578  0.00  0.00    +0.000 C 
BRANCH  33  34
ATOM     34  C   UNL     1       2.926   1.831  17.785  0.00  0.00    +0.000 C 
BRANCH  34  35
ATOM     35  O   UNL     1       3.948   1.133  18.486  0.00  0.00    +0.000 OA
ATOM     36  H   UNL     1       3.812   1.291  19.435  0.00  0.00    +0.000 HD
ENDBRANCH  34  35
ENDBRANCH  33  34
ENDBRANCH  30  33
ENDBRANCH  26  27
ENDBRANCH  25  26
ENDBRANCH  24  25
ENDBRANCH  23  24
ENDBRANCH  22  23
ENDBRANCH  21  22
ENDBRANCH  20  21
ENDBRANCH   8  20
TORSDOF 13
ENDMDL
MODEL 8
REMARK VINA RESULT:      -6.8      7.675      9.433
REMARK  Name = 
REMARK  14 active torsions:
REMARK  status: ('A' for Active; 'I' for Inactive)
REMARK    1  A    between atoms: C_1  and  O_2
REMARK    2  A    between atoms: O_2  and  C_3
REMARK    3  A    between atoms: C_6  and  C_7
REMARK    4  A    between atoms: C_14  and  O_15
REMARK    5  A    between atoms: O_15  and  C_16
REMARK    6  A    between atoms: C_16  and  C_17
REMARK    7  A    between atoms: C_17  and  C_18
REMARK    8  A    between atoms: C_18  and  C_19
REMARK    9  A    between atoms: C_19  and  C_20
REMARK   10  A    between atoms: C_20  and  C_21
REMARK   11  A    between atoms: C_21  and  N_22
REMARK   12  A    between atoms: C_25  and  C_26
REMARK   13  A    between atoms: C_26  and  C_27
REMARK   14  A    between atoms: C_27  and  O_28
REMARK                            x       y       z     vdW  Elec       q    Type
REMARK                         _______ _______ _______ _____ _____    ______ ____
ROOT
ATOM      1  C   UNL     1      10.024  14.451  21.362  0.00  0.00    +0.000 A 
ATOM      2  C   UNL     1      10.875  14.825  20.404  0.00  0.00    +0.000 A 
ATOM      3  C   UNL     1      10.736  14.257  19.086  0.00  0.00    +0.000 A 
ATOM      4  O   UNL     1      11.188  14.834  18.110  0.00  0.00    +0.000 OA
ATOM      5  C   UNL     1      10.076  12.966  19.026  0.00  0.00    +0.000 A 
ATOM      6  C   UNL     1      10.289  12.206  17.882  0.00  0.00    +0.000 A 
ATOM      7  C   UNL     1       9.837  10.905  17.864  0.00  0.00    +0.000 A 
ATOM      8  C   UNL     1       9.144  10.358  18.953  0.00  0.00    +0.000 A 
ATOM      9  C   UNL     1       8.877  11.157  20.087  0.00  0.00    +0.000 A 
ATOM     10  C   UNL     1       9.365  12.490  20.136  0.00  0.00    +0.000 A 
ATOM     11  O   UNL     1       9.180  13.315  21.255  0.00  0.00    +0.000 OA
ENDROOT
BRANCH   1  15
ATOM     12  C   UNL     1      10.416  16.735  25.043  0.00  0.00    +0.000 A 
ATOM     13  C   UNL     1      11.217  17.000  23.944  0.00  0.00    +0.000 A 
ATOM     14  C   UNL     1      10.992  16.330  22.742  0.00  0.00    +0.000 A 
ATOM     15  C   UNL     1      10.018  15.305  22.603  0.00  0.00    +0.000 A 
ATOM     16  C   UNL     1       9.149  15.133  23.682  0.00  0.00    +0.000 A 
ATOM     17  C   UNL     1       9.352  15.837  24.895  0.00  0.00    +0.000 A 
BRANCH  12  19
ATOM     18  C   UNL     1      10.627  16.715  27.415  0.00  0.00    +0.000 C 
ATOM     19  O   UNL     1      10.804  17.385  26.180  0.00  0.00    +0.000 OA
ENDBRANCH  12  19
ENDBRANCH   1  15
BRANCH   8  20
ATOM     20  O   UNL     1       8.865   9.053  18.684  0.00  0.00    +0.000 OA
BRANCH  20  21
ATOM     21  C   UNL     1       8.297   8.563  17.479  0.00  0.00    +0.000 C 
BRANCH  21  22
ATOM     22  C   UNL     1       7.254   7.496  17.910  0.00  0.00    +0.000 C 
BRANCH  22  23
ATOM     23  C   UNL     1       7.864   6.362  18.735  0.00  0.00    +0.000 C 
BRANCH  23  24
ATOM     24  C   UNL     1       6.943   5.138  18.938  0.00  0.00    +0.000 C 
BRANCH  24  25
ATOM     25  C   UNL     1       5.705   5.273  18.035  0.00  0.00    +0.000 C 
BRANCH  25  26
ATOM     26  C   UNL     1       5.253   3.989  17.313  0.00  0.00    +0.000 C 
BRANCH  26  27
ATOM     27  N   UNL     1       3.819   3.656  17.424  0.00  0.00    +0.000 NA
ATOM     28  C   UNL     1       3.579   2.592  18.412  0.00  0.00    +0.000 C 
ATOM     29  C   UNL     1       2.087   2.267  18.553  0.00  0.00    +0.000 C 
ATOM     30  C   UNL     1       1.245   3.502  18.905  0.00  0.00    +0.000 C 
ATOM     31  C   UNL     1       1.554   4.590  17.868  0.00  0.00    +0.000 C 
ATOM     32  C   UNL     1       3.057   4.868  17.757  0.00  0.00    +0.000 C 
BRANCH  30  33
ATOM     33  C   UNL     1       1.485   3.944  20.365  0.00  0.00    +0.000 C 
BRANCH  33  34
ATOM     34  C   UNL     1       1.414   2.801  21.373  0.00  0.00    +0.000 C 
BRANCH  34  35
ATOM     35  O   UNL     1       2.683   2.632  21.992  0.00  0.00    +0.000 OA
ATOM     36  H   UNL     1       2.721   3.236  22.752  0.00  0.00    +0.000 HD
ENDBRANCH  34  35
ENDBRANCH  33  34
ENDBRANCH  30  33
ENDBRANCH  26  27
ENDBRANCH  25  26
ENDBRANCH  24  25
ENDBRANCH  23  24
ENDBRANCH  22  23
ENDBRANCH  21  22
ENDBRANCH  20  21
ENDBRANCH   8  20
TORSDOF 13
ENDMDL
MODEL 9
REMARK VINA RESULT:      -6.8      1.973      4.521
REMARK  Name = 
REMARK  14 active torsions:
REMARK  status: ('A' for Active; 'I' for Inactive)
REMARK    1  A    between atoms: C_1  and  O_2
REMARK    2  A    between atoms: O_2  and  C_3
REMARK    3  A    between atoms: C_6  and  C_7
REMARK    4  A    between atoms: C_14  and  O_15
REMARK    5  A    between atoms: O_15  and  C_16
REMARK    6  A    between atoms: C_16  and  C_17
REMARK    7  A    between atoms: C_17  and  C_18
REMARK    8  A    between atoms: C_18  and  C_19
REMARK    9  A    between atoms: C_19  and  C_20
REMARK   10  A    between atoms: C_20  and  C_21
REMARK   11  A    between atoms: C_21  and  N_22
REMARK   12  A    between atoms: C_25  and  C_26
REMARK   13  A    between atoms: C_26  and  C_27
REMARK   14  A    between atoms: C_27  and  O_28
REMARK                            x       y       z     vdW  Elec       q    Type
REMARK                         _______ _______ _______ _____ _____    ______ ____
ROOT
ATOM      1  C   UNL     1      -1.188  11.774  21.519  0.00  0.00    +0.000 A 
ATOM      2  C   UNL     1      -1.209  11.010  22.612  0.00  0.00    +0.000 A 
ATOM      3  C   UNL     1      -0.151  10.051  22.815  0.00  0.00    +0.000 A 
ATOM      4  O   UNL     1       0.107   9.638  23.934  0.00  0.00    +0.000 OA
ATOM      5  C   UNL     1       0.528   9.603  21.614  0.00  0.00    +0.000 A 
ATOM      6  C   UNL     1       1.234   8.410  21.701  0.00  0.00    +0.000 A 
ATOM      7  C   UNL     1       1.735   7.856  20.543  0.00  0.00    +0.000 A 
ATOM      8  C   UNL     1       1.573   8.489  19.303  0.00  0.00    +0.000 A 
ATOM      9  C   UNL     1       0.907   9.732  19.232  0.00  0.00    +0.000 A 
ATOM     10  C   UNL     1       0.357  10.301  20.410  0.00  0.00    +0.000 A 
ATOM     11  O   UNL     1      -0.362  11.505  20.396  0.00  0.00    +0.000 OA
ENDROOT
BRANCH   1  15
ATOM     12  C   UNL     1      -3.977  15.080  21.980  0.00  0.00    +0.000 A 
ATOM     13  C   UNL     1      -2.750  15.080  22.623  0.00  0.00    +0.000 A 
ATOM     14  C   UNL     1      -1.830  14.064  22.367  0.00  0.00    +0.000 A 
ATOM     15  C   UNL     1      -2.123  12.956  21.527  0.00  0.00    +0.000 A 
ATOM     16  C   UNL     1      -3.314  13.031  20.802  0.00  0.00    +0.000 A 
ATOM     17  C   UNL     1      -4.237  14.082  21.033  0.00  0.00    +0.000 A 
BRANCH  12  19
ATOM     18  C   UNL     1      -4.318  17.016  23.324  0.00  0.00    +0.000 C 
ATOM     19  O   UNL     1      -4.819  16.074  22.393  0.00  0.00    +0.000 OA
ENDBRANCH  12  19
ENDBRANCH   1  15
BRANCH   8  20
ATOM     20  O   UNL     1       2.117   7.700  18.334  0.00  0.00    +0.000 OA
BRANCH  20  21
ATOM     21  C   UNL     1       3.025   8.133  17.334  0.00  0.00    +0.000 C 
BRANCH  21  22
ATOM     22  C   UNL     1       4.301   7.269  17.524  0.00  0.00    +0.000 C 
BRANCH  22  23
ATOM     23  C   UNL     1       4.896   6.779  16.203  0.00  0.00    +0.000 C 
BRANCH  23  24
ATOM     24  C   UNL     1       5.097   5.250  16.108  0.00  0.00    +0.000 C 
BRANCH  24  25
ATOM     25  C   UNL     1       5.563   4.709  17.470  0.00  0.00    +0.000 C 
BRANCH  25  26
ATOM     26  C   UNL     1       5.081   3.291  17.833  0.00  0.00    +0.000 C 
BRANCH  26  27
ATOM     27  N   UNL     1       3.620   3.083  17.824  0.00  0.00    +0.000 NA
ATOM     28  C   UNL     1       3.201   2.100  18.837  0.00  0.00    +0.000 C 
ATOM     29  C   UNL     1       1.680   1.906  18.853  0.00  0.00    +0.000 C 
ATOM     30  C   UNL     1       0.920   3.225  19.062  0.00  0.00    +0.000 C 
ATOM     31  C   UNL     1       1.413   4.223  18.006  0.00  0.00    +0.000 C 
ATOM     32  C   UNL     1       2.939   4.370  18.024  0.00  0.00    +0.000 C 
BRANCH  30  33
ATOM     33  C   UNL     1       1.065   3.728  20.514  0.00  0.00    +0.000 C 
BRANCH  33  34
ATOM     34  C   UNL     1       1.357   2.622  21.523  0.00  0.00    +0.000 C 
BRANCH  34  35
ATOM     35  O   UNL     1       2.614   2.861  22.143  0.00  0.00    +0.000 OA
ATOM     36  H   UNL     1       2.957   2.006  22.451  0.00  0.00    +0.000 HD
ENDBRANCH  34  35
ENDBRANCH  33  34
ENDBRANCH  30  33
ENDBRANCH  26  27
ENDBRANCH  25  26
ENDBRANCH  24  25
ENDBRANCH  23  24
ENDBRANCH  22  23
ENDBRANCH  21  22
ENDBRANCH  20  21
ENDBRANCH   8  20
TORSDOF 13
ENDMDL
