MODEL 1
REMARK VINA RESULT:      -7.6      0.000      0.000
REMARK  Name = 
REMARK  7 active torsions:
REMARK  status: ('A' for Active; 'I' for Inactive)
REMARK    1  A    between atoms: C_2  and  C_3
REMARK    2  A    between atoms: C_7  and  O_8
REMARK    3  A    between atoms: C_9  and  C_10
REMARK    4  A    between atoms: C_10  and  O_11
REMARK    5  A    between atoms: O_11  and  C_12
REMARK    6  A    between atoms: N_15  and  C_16
REMARK    7  A    between atoms: N_19  and  C_20
REMARK                            x       y       z     vdW  Elec       q    Type
REMARK                         _______ _______ _______ _____ _____    ______ ____
ROOT
ATOM      1  C   UNL     1       1.590   7.972  19.849  0.00  0.00    +0.000 A 
ATOM      2  N   UNL     1       2.388   7.458  18.890  0.00  0.00    +0.000 NA
ATOM      3  C   UNL     1       2.689   8.175  17.793  0.00  0.00    +0.000 A 
ATOM      4  N   UNL     1       3.597   7.642  16.872  0.00  0.00    +0.000 N 
ATOM      5  N   UNL     1       2.200   9.394  17.518  0.00  0.00    +0.000 NA
ATOM      6  C   UNL     1       1.451   9.892  18.513  0.00  0.00    +0.000 A 
ATOM      7  N   UNL     1       0.906  11.148  18.514  0.00  0.00    +0.000 N 
ATOM      8  C   UNL     1       0.244  11.360  19.696  0.00  0.00    +0.000 A 
ATOM      9  C   UNL     1       0.350  10.208  20.449  0.00  0.00    +0.000 A 
ATOM     10 CL   UNL     1      -0.287   9.973  22.006  0.00  0.00    +0.000 Cl
ATOM     11  C   UNL     1       1.111   9.270  19.705  0.00  0.00    +0.000 A 
ATOM     12  H   UNL     1       3.599   8.216  16.039  0.00  0.00    +0.000 HD
ATOM     13  H   UNL     1       1.015  11.810  17.759  0.00  0.00    +0.000 HD
ENDROOT
BRANCH   4  14
ATOM     14  C   UNL     1       4.513   6.669  17.068  0.00  0.00    +0.000 A 
ATOM     15  C   UNL     1       4.877   6.000  18.255  0.00  0.00    +0.000 A 
ATOM     16  N   UNL     1       5.843   5.099  18.062  0.00  0.00    +0.000 NA
ATOM     17  N   UNL     1       6.114   5.215  16.752  0.00  0.00    +0.000 N 
ATOM     18  C   UNL     1       7.138   4.389  16.162  0.00  0.00    +0.000 C 
ATOM     19  C   UNL     1       5.351   6.151  16.112  0.00  0.00    +0.000 A 
ENDBRANCH   4  14
BRANCH   1  20
ATOM     20  O   UNL     1       1.303   7.200  20.966  0.00  0.00    +0.000 OA
BRANCH  20  21
ATOM     21  C   UNL     1       2.191   6.078  21.067  0.00  0.00    +0.000 C 
BRANCH  21  27
ATOM     22  C   UNL     1       2.569   3.010  17.945  0.00  0.00    +0.000 C 
ATOM     23  O   UNL     1       1.806   3.277  17.021  0.00  0.00    +0.000 OA
ATOM     24  N   UNL     1       2.353   3.448  19.231  0.00  0.00    +0.000 N 
ATOM     25  C   UNL     1       3.147   3.174  20.425  0.00  0.00    +0.000 C 
ATOM     26  C   UNL     1       2.240   3.612  21.576  0.00  0.00    +0.000 C 
ATOM     27  C   UNL     1       1.418   4.762  20.980  0.00  0.00    +0.000 C 
ATOM     28  C   UNL     1       1.224   4.322  19.528  0.00  0.00    +0.000 C 
BRANCH  22  30
ATOM     29  C   UNL     1       3.940   1.017  18.372  0.00  0.00    +0.000 C 
ATOM     30  C   UNL     1       3.784   2.179  17.722  0.00  0.00    +0.000 C 
ENDBRANCH  22  30
BRANCH  26  31
ATOM     31  O   UNL     1       1.373   2.539  21.950  0.00  0.00    +0.000 OA
ATOM     32  H   UNL     1       1.703   2.167  22.789  0.00  0.00    +0.000 HD
ENDBRANCH  26  31
ENDBRANCH  21  27
ENDBRANCH  20  21
ENDBRANCH   1  20
TORSDOF 6
ENDMDL
MODEL 2
REMARK VINA RESULT:      -7.6      4.947      9.596
REMARK  Name = 
REMARK  7 active torsions:
REMARK  status: ('A' for Active; 'I' for Inactive)
REMARK    1  A    between atoms: C_2  and  C_3
REMARK    2  A    between atoms: C_7  and  O_8
REMARK    3  A    between atoms: C_9  and  C_10
REMARK    4  A    between atoms: C_10  and  O_11
REMARK    5  A    between atoms: O_11  and  C_12
REMARK    6  A    between atoms: N_15  and  C_16
REMARK    7  A    between atoms: N_19  and  C_20
REMARK                            x       y       z     vdW  Elec       q    Type
REMARK                         _______ _______ _______ _____ _____    ______ ____
ROOT
ATOM      1  C   UNL     1      -0.059  10.230  19.604  0.00  0.00    +0.000 A 
ATOM      2  N   UNL     1      -0.736  10.780  20.634  0.00  0.00    +0.000 NA
ATOM      3  C   UNL     1      -0.605  10.289  21.878  0.00  0.00    +0.000 A 
ATOM      4  N   UNL     1      -1.249  10.949  22.930  0.00  0.00    +0.000 N 
ATOM      5  N   UNL     1       0.130   9.214  22.203  0.00  0.00    +0.000 NA
ATOM      6  C   UNL     1       0.826   8.725  21.166  0.00  0.00    +0.000 A 
ATOM      7  N   UNL     1       1.712   7.684  21.253  0.00  0.00    +0.000 N 
ATOM      8  C   UNL     1       2.287   7.469  20.028  0.00  0.00    +0.000 A 
ATOM      9  C   UNL     1       1.739   8.373  19.141  0.00  0.00    +0.000 A 
ATOM     10 CL   UNL     1       2.139   8.524  17.497  0.00  0.00    +0.000 Cl
ATOM     11  C   UNL     1       0.808   9.172  19.853  0.00  0.00    +0.000 A 
ATOM     12  H   UNL     1      -1.186  10.381  23.765  0.00  0.00    +0.000 HD
ATOM     13  H   UNL     1       1.914   7.187  22.109  0.00  0.00    +0.000 HD
ENDROOT
BRANCH   4  14
ATOM     14  C   UNL     1      -1.701  12.221  22.968  0.00  0.00    +0.000 A 
ATOM     15  C   UNL     1      -0.982  13.430  23.084  0.00  0.00    +0.000 A 
ATOM     16  N   UNL     1      -1.778  14.501  23.102  0.00  0.00    +0.000 NA
ATOM     17  N   UNL     1      -3.009  13.971  23.025  0.00  0.00    +0.000 N 
ATOM     18  C   UNL     1      -4.159  14.840  23.030  0.00  0.00    +0.000 C 
ATOM     19  C   UNL     1      -3.018  12.606  22.953  0.00  0.00    +0.000 A 
ENDBRANCH   4  14
BRANCH   1  20
ATOM     20  O   UNL     1      -0.223  10.765  18.333  0.00  0.00    +0.000 OA
BRANCH  20  21
ATOM     21  C   UNL     1      -1.558  11.253  18.141  0.00  0.00    +0.000 C 
BRANCH  21  27
ATOM     22  C   UNL     1      -5.936  10.886  18.129  0.00  0.00    +0.000 C 
ATOM     23  O   UNL     1      -6.280  10.120  19.025  0.00  0.00    +0.000 OA
ATOM     24  N   UNL     1      -4.688  10.836  17.554  0.00  0.00    +0.000 N 
ATOM     25  C   UNL     1      -4.162  11.649  16.462  0.00  0.00    +0.000 C 
ATOM     26  C   UNL     1      -2.893  10.911  16.033  0.00  0.00    +0.000 C 
ATOM     27  C   UNL     1      -2.389  10.261  17.329  0.00  0.00    +0.000 C 
ATOM     28  C   UNL     1      -3.688   9.897  18.051  0.00  0.00    +0.000 C 
BRANCH  22  30
ATOM     29  C   UNL     1      -7.350  12.874  18.415  0.00  0.00    +0.000 C 
ATOM     30  C   UNL     1      -6.867  11.921  17.604  0.00  0.00    +0.000 C 
ENDBRANCH  22  30
BRANCH  26  31
ATOM     31  O   UNL     1      -3.215   9.898  15.077  0.00  0.00    +0.000 OA
ATOM     32  H   UNL     1      -3.231   9.042  15.543  0.00  0.00    +0.000 HD
ENDBRANCH  26  31
ENDBRANCH  21  27
ENDBRANCH  20  21
ENDBRANCH   1  20
TORSDOF 6
ENDMDL
MODEL 3
REMARK VINA RESULT:      -7.5      3.022      6.493
REMARK  Name = 
REMARK  7 active torsions:
REMARK  status: ('A' for Active; 'I' for Inactive)
REMARK    1  A    between atoms: C_2  and  C_3
REMARK    2  A    between atoms: C_7  and  O_8
REMARK    3  A    between atoms: C_9  and  C_10
REMARK    4  A    between atoms: C_10  and  O_11
REMARK    5  A    between atoms: O_11  and  C_12
REMARK    6  A    between atoms: N_15  and  C_16
REMARK    7  A    between atoms: N_19  and  C_20
REMARK                            x       y       z     vdW  Elec       q    Type
REMARK                         _______ _______ _______ _____ _____    ______ ____
ROOT
ATOM      1  C   UNL     1       2.596   4.889  18.670  0.00  0.00    +0.000 A 
ATOM      2  N   UNL     1       2.081   6.127  18.827  0.00  0.00    +0.000 NA
ATOM      3  C   UNL     1       1.611   6.526  20.021  0.00  0.00    +0.000 A 
ATOM      4  N   UNL     1       1.175   7.848  20.162  0.00  0.00    +0.000 N 
ATOM      5  N   UNL     1       1.550   5.753  21.116  0.00  0.00    +0.000 NA
ATOM      6  C   UNL     1       2.114   4.550  20.937  0.00  0.00    +0.000 A 
ATOM      7  N   UNL     1       2.254   3.608  21.922  0.00  0.00    +0.000 N 
ATOM      8  C   UNL     1       2.915   2.516  21.422  0.00  0.00    +0.000 A 
ATOM      9  C   UNL     1       3.177   2.758  20.089  0.00  0.00    +0.000 A 
ATOM     10 CL   UNL     1       3.998   1.714  19.030  0.00  0.00    +0.000 Cl
ATOM     11  C   UNL     1       2.670   4.044  19.771  0.00  0.00    +0.000 A 
ATOM     12  H   UNL     1       0.712   7.950  21.056  0.00  0.00    +0.000 HD
ATOM     13  H   UNL     1       1.936   3.736  22.873  0.00  0.00    +0.000 HD
ENDROOT
BRANCH   4  14
ATOM     14  C   UNL     1       1.477   8.915  19.392  0.00  0.00    +0.000 A 
ATOM     15  C   UNL     1       2.157   8.971  18.157  0.00  0.00    +0.000 A 
ATOM     16  N   UNL     1       2.283  10.218  17.697  0.00  0.00    +0.000 NA
ATOM     17  N   UNL     1       1.706  10.960  18.655  0.00  0.00    +0.000 N 
ATOM     18  C   UNL     1       1.658  12.394  18.512  0.00  0.00    +0.000 C 
ATOM     19  C   UNL     1       1.215  10.227  19.699  0.00  0.00    +0.000 A 
ENDBRANCH   4  14
BRANCH   1  20
ATOM     20  O   UNL     1       3.070   4.515  17.420  0.00  0.00    +0.000 OA
BRANCH  20  21
ATOM     21  C   UNL     1       4.294   5.194  17.101  0.00  0.00    +0.000 C 
BRANCH  21  27
ATOM     22  C   UNL     1       6.927   4.406  13.674  0.00  0.00    +0.000 C 
ATOM     23  O   UNL     1       6.431   3.524  12.978  0.00  0.00    +0.000 OA
ATOM     24  N   UNL     1       6.643   4.536  15.013  0.00  0.00    +0.000 N 
ATOM     25  C   UNL     1       7.186   5.503  15.963  0.00  0.00    +0.000 C 
ATOM     26  C   UNL     1       6.789   4.938  17.328  0.00  0.00    +0.000 C 
ATOM     27  C   UNL     1       5.464   4.213  17.055  0.00  0.00    +0.000 C 
ATOM     28  C   UNL     1       5.670   3.653  15.647  0.00  0.00    +0.000 C 
BRANCH  22  30
ATOM     29  C   UNL     1       7.831   5.704  11.795  0.00  0.00    +0.000 C 
ATOM     30  C   UNL     1       7.880   5.394  13.098  0.00  0.00    +0.000 C 
ENDBRANCH  22  30
BRANCH  26  31
ATOM     31  O   UNL     1       7.771   4.001  17.775  0.00  0.00    +0.000 OA
ATOM     32  H   UNL     1       8.517   4.505  18.149  0.00  0.00    +0.000 HD
ENDBRANCH  26  31
ENDBRANCH  21  27
ENDBRANCH  20  21
ENDBRANCH   1  20
TORSDOF 6
ENDMDL
MODEL 4
REMARK VINA RESULT:      -7.4      2.429      6.396
REMARK  Name = 
REMARK  7 active torsions:
REMARK  status: ('A' for Active; 'I' for Inactive)
REMARK    1  A    between atoms: C_2  and  C_3
REMARK    2  A    between atoms: C_7  and  O_8
REMARK    3  A    between atoms: C_9  and  C_10
REMARK    4  A    between atoms: C_10  and  O_11
REMARK    5  A    between atoms: O_11  and  C_12
REMARK    6  A    between atoms: N_15  and  C_16
REMARK    7  A    between atoms: N_19  and  C_20
REMARK                            x       y       z     vdW  Elec       q    Type
REMARK                         _______ _______ _______ _____ _____    ______ ____
ROOT
ATOM      1  C   UNL     1       3.091   5.510  18.444  0.00  0.00    +0.000 A 
ATOM      2  N   UNL     1       4.249   5.269  17.793  0.00  0.00    +0.000 NA
ATOM      3  C   UNL     1       5.111   4.345  18.250  0.00  0.00    +0.000 A 
ATOM      4  N   UNL     1       6.252   4.059  17.492  0.00  0.00    +0.000 N 
ATOM      5  N   UNL     1       4.950   3.642  19.382  0.00  0.00    +0.000 NA
ATOM      6  C   UNL     1       3.769   3.870  19.975  0.00  0.00    +0.000 A 
ATOM      7  N   UNL     1       3.329   3.219  21.096  0.00  0.00    +0.000 N 
ATOM      8  C   UNL     1       2.067   3.651  21.411  0.00  0.00    +0.000 A 
ATOM      9  C   UNL     1       1.709   4.612  20.488  0.00  0.00    +0.000 A 
ATOM     10 CL   UNL     1       0.226   5.440  20.435  0.00  0.00    +0.000 Cl
ATOM     11  C   UNL     1       2.784   4.761  19.574  0.00  0.00    +0.000 A 
ATOM     12  H   UNL     1       6.870   3.470  18.034  0.00  0.00    +0.000 HD
ATOM     13  H   UNL     1       3.861   2.510  21.580  0.00  0.00    +0.000 HD
ENDROOT
BRANCH   4  14
ATOM     14  C   UNL     1       6.466   4.299  16.181  0.00  0.00    +0.000 A 
ATOM     15  C   UNL     1       7.117   5.385  15.558  0.00  0.00    +0.000 A 
ATOM     16  N   UNL     1       7.123   5.285  14.227  0.00  0.00    +0.000 NA
ATOM     17  N   UNL     1       6.451   4.145  14.000  0.00  0.00    +0.000 N 
ATOM     18  C   UNL     1       6.240   3.701  12.645  0.00  0.00    +0.000 C 
ATOM     19  C   UNL     1       6.026   3.520  15.140  0.00  0.00    +0.000 A 
ENDBRANCH   4  14
BRANCH   1  20
ATOM     20  O   UNL     1       2.228   6.473  17.940  0.00  0.00    +0.000 OA
BRANCH  20  21
ATOM     21  C   UNL     1       2.420   7.737  18.591  0.00  0.00    +0.000 C 
BRANCH  21  27
ATOM     22  C   UNL     1      -1.115  10.327  18.895  0.00  0.00    +0.000 C 
ATOM     23  O   UNL     1      -2.049   9.811  18.286  0.00  0.00    +0.000 OA
ATOM     24  N   UNL     1       0.200  10.057  18.597  0.00  0.00    +0.000 N 
ATOM     25  C   UNL     1       1.399  10.625  19.205  0.00  0.00    +0.000 C 
ATOM     26  C   UNL     1       2.520  10.230  18.242  0.00  0.00    +0.000 C 
ATOM     27  C   UNL     1       2.049   8.891  17.659  0.00  0.00    +0.000 C 
ATOM     28  C   UNL     1       0.533   9.075  17.572  0.00  0.00    +0.000 C 
BRANCH  22  30
ATOM     29  C   UNL     1      -2.263  12.273  19.858  0.00  0.00    +0.000 C 
ATOM     30  C   UNL     1      -1.361  11.292  20.001  0.00  0.00    +0.000 C 
ENDBRANCH  22  30
BRANCH  26  31
ATOM     31  O   UNL     1       2.633  11.200  17.198  0.00  0.00    +0.000 OA
ATOM     32  H   UNL     1       3.012  10.755  16.417  0.00  0.00    +0.000 HD
ENDBRANCH  26  31
ENDBRANCH  21  27
ENDBRANCH  20  21
ENDBRANCH   1  20
TORSDOF 6
ENDMDL
MODEL 5
REMARK VINA RESULT:      -7.3      3.342      6.027
REMARK  Name = 
REMARK  7 active torsions:
REMARK  status: ('A' for Active; 'I' for Inactive)
REMARK    1  A    between atoms: C_2  and  C_3
REMARK    2  A    between atoms: C_7  and  O_8
REMARK    3  A    between atoms: C_9  and  C_10
REMARK    4  A    between atoms: C_10  and  O_11
REMARK    5  A    between atoms: O_11  and  C_12
REMARK    6  A    between atoms: N_15  and  C_16
REMARK    7  A    between atoms: N_19  and  C_20
REMARK                            x       y       z     vdW  Elec       q    Type
REMARK                         _______ _______ _______ _____ _____    ______ ____
ROOT
ATOM      1  C   UNL     1       5.061   4.483  16.368  0.00  0.00    +0.000 A 
ATOM      2  N   UNL     1       5.252   4.293  15.046  0.00  0.00    +0.000 NA
ATOM      3  C   UNL     1       6.317   4.828  14.424  0.00  0.00    +0.000 A 
ATOM      4  N   UNL     1       6.527   4.527  13.075  0.00  0.00    +0.000 N 
ATOM      5  N   UNL     1       7.226   5.621  15.012  0.00  0.00    +0.000 NA
ATOM      6  C   UNL     1       7.033   5.747  16.333  0.00  0.00    +0.000 A 
ATOM      7  N   UNL     1       7.867   6.435  17.173  0.00  0.00    +0.000 N 
ATOM      8  C   UNL     1       7.412   6.326  18.461  0.00  0.00    +0.000 A 
ATOM      9  C   UNL     1       6.253   5.578  18.436  0.00  0.00    +0.000 A 
ATOM     10 CL   UNL     1       5.316   5.144  19.785  0.00  0.00    +0.000 Cl
ATOM     11  C   UNL     1       6.003   5.208  17.089  0.00  0.00    +0.000 A 
ATOM     12  H   UNL     1       7.265   5.118  12.715  0.00  0.00    +0.000 HD
ATOM     13  H   UNL     1       8.702   6.915  16.869  0.00  0.00    +0.000 HD
ENDROOT
BRANCH   4  14
ATOM     14  C   UNL     1       6.036   3.489  12.363  0.00  0.00    +0.000 A 
ATOM     15  C   UNL     1       4.784   3.343  11.730  0.00  0.00    +0.000 A 
ATOM     16  N   UNL     1       4.648   2.160  11.127  0.00  0.00    +0.000 NA
ATOM     17  N   UNL     1       5.807   1.540  11.400  0.00  0.00    +0.000 N 
ATOM     18  C   UNL     1       6.030   0.202  10.912  0.00  0.00    +0.000 C 
ATOM     19  C   UNL     1       6.671   2.291  12.148  0.00  0.00    +0.000 A 
ENDBRANCH   4  14
BRANCH   1  20
ATOM     20  O   UNL     1       3.947   3.915  16.972  0.00  0.00    +0.000 OA
BRANCH  20  21
ATOM     21  C   UNL     1       4.284   2.689  17.638  0.00  0.00    +0.000 C 
BRANCH  21  27
ATOM     22  C   UNL     1       2.049   4.584  20.910  0.00  0.00    +0.000 C 
ATOM     23  O   UNL     1       2.571   4.288  21.982  0.00  0.00    +0.000 OA
ATOM     24  N   UNL     1       2.173   3.801  19.787  0.00  0.00    +0.000 N 
ATOM     25  C   UNL     1       1.577   4.008  18.470  0.00  0.00    +0.000 C 
ATOM     26  C   UNL     1       1.769   2.663  17.766  0.00  0.00    +0.000 C 
ATOM     27  C   UNL     1       3.070   2.115  18.367  0.00  0.00    +0.000 C 
ATOM     28  C   UNL     1       3.005   2.604  19.815  0.00  0.00    +0.000 C 
BRANCH  22  30
ATOM     29  C   UNL     1       1.833   7.014  20.618  0.00  0.00    +0.000 C 
ATOM     30  C   UNL     1       1.236   5.823  20.769  0.00  0.00    +0.000 C 
ENDBRANCH  22  30
BRANCH  26  31
ATOM     31  O   UNL     1       0.684   1.787  18.080  0.00  0.00    +0.000 OA
ATOM     32  H   UNL     1      -0.028   2.324  18.476  0.00  0.00    +0.000 HD
ENDBRANCH  26  31
ENDBRANCH  21  27
ENDBRANCH  20  21
ENDBRANCH   1  20
TORSDOF 6
ENDMDL
MODEL 6
REMARK VINA RESULT:      -7.1      2.835      6.248
REMARK  Name = 
REMARK  7 active torsions:
REMARK  status: ('A' for Active; 'I' for Inactive)
REMARK    1  A    between atoms: C_2  and  C_3
REMARK    2  A    between atoms: C_7  and  O_8
REMARK    3  A    between atoms: C_9  and  C_10
REMARK    4  A    between atoms: C_10  and  O_11
REMARK    5  A    between atoms: O_11  and  C_12
REMARK    6  A    between atoms: N_15  and  C_16
REMARK    7  A    between atoms: N_19  and  C_20
REMARK                            x       y       z     vdW  Elec       q    Type
REMARK                         _______ _______ _______ _____ _____    ______ ____
ROOT
ATOM      1  C   UNL     1       3.318   5.044  19.013  0.00  0.00    +0.000 A 
ATOM      2  N   UNL     1       4.574   5.537  18.996  0.00  0.00    +0.000 NA
ATOM      3  C   UNL     1       5.634   4.711  19.027  0.00  0.00    +0.000 A 
ATOM      4  N   UNL     1       6.915   5.259  18.910  0.00  0.00    +0.000 N 
ATOM      5  N   UNL     1       5.559   3.375  19.135  0.00  0.00    +0.000 NA
ATOM      6  C   UNL     1       4.299   2.918  19.100  0.00  0.00    +0.000 A 
ATOM      7  N   UNL     1       3.958   1.592  19.111  0.00  0.00    +0.000 N 
ATOM      8  C   UNL     1       2.596   1.468  19.014  0.00  0.00    +0.000 A 
ATOM      9  C   UNL     1       2.061   2.739  18.967  0.00  0.00    +0.000 A 
ATOM     10 CL   UNL     1       0.412   3.121  18.825  0.00  0.00    +0.000 Cl
ATOM     11  C   UNL     1       3.133   3.666  19.024  0.00  0.00    +0.000 A 
ATOM     12  H   UNL     1       7.601   4.542  19.106  0.00  0.00    +0.000 HD
ATOM     13  H   UNL     1       4.630   0.838  19.153  0.00  0.00    +0.000 HD
ENDROOT
BRANCH   4  14
ATOM     14  C   UNL     1       7.268   6.462  18.408  0.00  0.00    +0.000 A 
ATOM     15  C   UNL     1       6.909   7.068  17.185  0.00  0.00    +0.000 A 
ATOM     16  N   UNL     1       7.468   8.269  17.024  0.00  0.00    +0.000 NA
ATOM     17  N   UNL     1       8.207   8.417  18.135  0.00  0.00    +0.000 N 
ATOM     18  C   UNL     1       8.984   9.617  18.317  0.00  0.00    +0.000 C 
ATOM     19  C   UNL     1       8.130   7.356  18.993  0.00  0.00    +0.000 A 
ENDBRANCH   4  14
BRANCH   1  20
ATOM     20  O   UNL     1       2.250   5.931  18.981  0.00  0.00    +0.000 OA
BRANCH  20  21
ATOM     21  C   UNL     1       1.779   6.227  20.304  0.00  0.00    +0.000 C 
BRANCH  21  27
ATOM     22  C   UNL     1       0.105   9.963  18.710  0.00  0.00    +0.000 C 
ATOM     23  O   UNL     1       0.743  10.301  17.716  0.00  0.00    +0.000 OA
ATOM     24  N   UNL     1       0.641   9.168  19.696  0.00  0.00    +0.000 N 
ATOM     25  C   UNL     1       0.018   8.728  20.940  0.00  0.00    +0.000 C 
ATOM     26  C   UNL     1       1.189   8.191  21.766  0.00  0.00    +0.000 C 
ATOM     27  C   UNL     1       2.164   7.648  20.713  0.00  0.00    +0.000 C 
ATOM     28  C   UNL     1       1.990   8.631  19.553  0.00  0.00    +0.000 C 
BRANCH  22  30
ATOM     29  C   UNL     1      -2.224  10.182  17.963  0.00  0.00    +0.000 C 
ATOM     30  C   UNL     1      -1.301  10.409  18.908  0.00  0.00    +0.000 C 
ENDBRANCH  22  30
BRANCH  26  31
ATOM     31  O   UNL     1       1.804   9.257  22.493  0.00  0.00    +0.000 OA
ATOM     32  H   UNL     1       1.601   9.131  23.438  0.00  0.00    +0.000 HD
ENDBRANCH  26  31
ENDBRANCH  21  27
ENDBRANCH  20  21
ENDBRANCH   1  20
TORSDOF 6
ENDMDL
MODEL 7
REMARK VINA RESULT:      -7.1      2.381      4.696
REMARK  Name = 
REMARK  7 active torsions:
REMARK  status: ('A' for Active; 'I' for Inactive)
REMARK    1  A    between atoms: C_2  and  C_3
REMARK    2  A    between atoms: C_7  and  O_8
REMARK    3  A    between atoms: C_9  and  C_10
REMARK    4  A    between atoms: C_10  and  O_11
REMARK    5  A    between atoms: O_11  and  C_12
REMARK    6  A    between atoms: N_15  and  C_16
REMARK    7  A    between atoms: N_19  and  C_20
REMARK                            x       y       z     vdW  Elec       q    Type
REMARK                         _______ _______ _______ _____ _____    ______ ____
ROOT
ATOM      1  C   UNL     1       2.575   7.576  18.673  0.00  0.00    +0.000 A 
ATOM      2  N   UNL     1       2.556   6.347  19.231  0.00  0.00    +0.000 NA
ATOM      3  C   UNL     1       1.906   6.131  20.388  0.00  0.00    +0.000 A 
ATOM      4  N   UNL     1       1.830   4.824  20.880  0.00  0.00    +0.000 N 
ATOM      5  N   UNL     1       1.290   7.081  21.108  0.00  0.00    +0.000 NA
ATOM      6  C   UNL     1       1.287   8.277  20.500  0.00  0.00    +0.000 A 
ATOM      7  N   UNL     1       0.654   9.389  20.988  0.00  0.00    +0.000 N 
ATOM      8  C   UNL     1       0.803  10.426  20.103  0.00  0.00    +0.000 A 
ATOM      9  C   UNL     1       1.566   9.971  19.047  0.00  0.00    +0.000 A 
ATOM     10 CL   UNL     1       2.014  10.873  17.679  0.00  0.00    +0.000 Cl
ATOM     11  C   UNL     1       1.880   8.609  19.291  0.00  0.00    +0.000 A 
ATOM     12  H   UNL     1       1.454   4.846  21.819  0.00  0.00    +0.000 HD
ATOM     13  H   UNL     1       0.137   9.408  21.855  0.00  0.00    +0.000 HD
ENDROOT
BRANCH   4  14
ATOM     14  C   UNL     1       1.993   3.666  20.206  0.00  0.00    +0.000 A 
ATOM     15  C   UNL     1       1.029   2.732  19.771  0.00  0.00    +0.000 A 
ATOM     16  N   UNL     1       1.572   1.688  19.142  0.00  0.00    +0.000 NA
ATOM     17  N   UNL     1       2.889   1.943  19.201  0.00  0.00    +0.000 N 
ATOM     18  C   UNL     1       3.821   1.009  18.621  0.00  0.00    +0.000 C 
ATOM     19  C   UNL     1       3.195   3.114  19.838  0.00  0.00    +0.000 A 
ENDBRANCH   4  14
BRANCH   1  20
ATOM     20  O   UNL     1       3.259   7.758  17.479  0.00  0.00    +0.000 OA
BRANCH  20  21
ATOM     21  C   UNL     1       4.649   7.431  17.618  0.00  0.00    +0.000 C 
BRANCH  21  27
ATOM     22  C   UNL     1       6.108   4.709  14.494  0.00  0.00    +0.000 C 
ATOM     23  O   UNL     1       5.158   4.321  13.819  0.00  0.00    +0.000 OA
ATOM     24  N   UNL     1       5.964   5.141  15.792  0.00  0.00    +0.000 N 
ATOM     25  C   UNL     1       7.002   5.586  16.716  0.00  0.00    +0.000 C 
ATOM     26  C   UNL     1       6.304   5.589  18.077  0.00  0.00    +0.000 C 
ATOM     27  C   UNL     1       4.844   5.921  17.741  0.00  0.00    +0.000 C 
ATOM     28  C   UNL     1       4.639   5.219  16.397  0.00  0.00    +0.000 C 
BRANCH  22  30
ATOM     29  C   UNL     1       7.712   5.177  12.694  0.00  0.00    +0.000 C 
ATOM     30  C   UNL     1       7.488   4.727  13.937  0.00  0.00    +0.000 C 
ENDBRANCH  22  30
BRANCH  26  31
ATOM     31  O   UNL     1       6.381   4.291  18.670  0.00  0.00    +0.000 OA
ATOM     32  H   UNL     1       6.627   3.657  17.971  0.00  0.00    +0.000 HD
ENDBRANCH  26  31
ENDBRANCH  21  27
ENDBRANCH  20  21
ENDBRANCH   1  20
TORSDOF 6
ENDMDL
MODEL 8
REMARK VINA RESULT:      -7.1      6.284     10.411
REMARK  Name = 
REMARK  7 active torsions:
REMARK  status: ('A' for Active; 'I' for Inactive)
REMARK    1  A    between atoms: C_2  and  C_3
REMARK    2  A    between atoms: C_7  and  O_8
REMARK    3  A    between atoms: C_9  and  C_10
REMARK    4  A    between atoms: C_10  and  O_11
REMARK    5  A    between atoms: O_11  and  C_12
REMARK    6  A    between atoms: N_15  and  C_16
REMARK    7  A    between atoms: N_19  and  C_20
REMARK                            x       y       z     vdW  Elec       q    Type
REMARK                         _______ _______ _______ _____ _____    ______ ____
ROOT
ATOM      1  C   UNL     1      -4.993  12.864  20.895  0.00  0.00    +0.000 A 
ATOM      2  N   UNL     1      -4.547  13.497  22.000  0.00  0.00    +0.000 NA
ATOM      3  C   UNL     1      -5.198  13.374  23.170  0.00  0.00    +0.000 A 
ATOM      4  N   UNL     1      -4.648  13.968  24.310  0.00  0.00    +0.000 N 
ATOM      5  N   UNL     1      -6.341  12.691  23.340  0.00  0.00    +0.000 NA
ATOM      6  C   UNL     1      -6.727  12.035  22.235  0.00  0.00    +0.000 A 
ATOM      7  N   UNL     1      -7.812  11.203  22.171  0.00  0.00    +0.000 N 
ATOM      8  C   UNL     1      -7.897  10.657  20.917  0.00  0.00    +0.000 A 
ATOM      9  C   UNL     1      -6.862  11.170  20.163  0.00  0.00    +0.000 A 
ATOM     10 CL   UNL     1      -6.521  10.786  18.544  0.00  0.00    +0.000 Cl
ATOM     11  C   UNL     1      -6.115  12.049  20.991  0.00  0.00    +0.000 A 
ATOM     12  H   UNL     1      -5.321  13.923  25.064  0.00  0.00    +0.000 HD
ATOM     13  H   UNL     1      -8.425  11.014  22.952  0.00  0.00    +0.000 HD
ENDROOT
BRANCH   4  14
ATOM     14  C   UNL     1      -3.371  14.354  24.519  0.00  0.00    +0.000 A 
ATOM     15  C   UNL     1      -2.204  14.040  23.789  0.00  0.00    +0.000 A 
ATOM     16  N   UNL     1      -1.109  14.598  24.308  0.00  0.00    +0.000 NA
ATOM     17  N   UNL     1      -1.575  15.247  25.388  0.00  0.00    +0.000 N 
ATOM     18  C   UNL     1      -0.660  15.977  26.229  0.00  0.00    +0.000 C 
ATOM     19  C   UNL     1      -2.925  15.123  25.565  0.00  0.00    +0.000 A 
ENDBRANCH   4  14
BRANCH   1  20
ATOM     20  O   UNL     1      -4.292  13.018  19.707  0.00  0.00    +0.000 OA
BRANCH  20  21
ATOM     21  C   UNL     1      -3.182  12.111  19.634  0.00  0.00    +0.000 C 
BRANCH  21  27
ATOM     22  C   UNL     1       0.884  10.701  18.757  0.00  0.00    +0.000 C 
ATOM     23  O   UNL     1       1.694  11.554  19.111  0.00  0.00    +0.000 OA
ATOM     24  N   UNL     1      -0.417  11.006  18.434  0.00  0.00    +0.000 N 
ATOM     25  C   UNL     1      -1.466  10.108  17.962  0.00  0.00    +0.000 C 
ATOM     26  C   UNL     1      -2.549  11.053  17.438  0.00  0.00    +0.000 C 
ATOM     27  C   UNL     1      -2.413  12.297  18.326  0.00  0.00    +0.000 C 
ATOM     28  C   UNL     1      -0.905  12.374  18.571  0.00  0.00    +0.000 C 
BRANCH  22  30
ATOM     29  C   UNL     1       2.172   8.875  17.736  0.00  0.00    +0.000 C 
ATOM     30  C   UNL     1       1.276   9.268  18.652  0.00  0.00    +0.000 C 
ENDBRANCH  22  30
BRANCH  26  31
ATOM     31  O   UNL     1      -2.282  11.398  16.077  0.00  0.00    +0.000 OA
ATOM     32  H   UNL     1      -3.119  11.693  15.674  0.00  0.00    +0.000 HD
ENDBRANCH  26  31
ENDBRANCH  21  27
ENDBRANCH  20  21
ENDBRANCH   1  20
TORSDOF 6
ENDMDL
MODEL 9
REMARK VINA RESULT:      -7.1      5.864     10.390
REMARK  Name = 
REMARK  7 active torsions:
REMARK  status: ('A' for Active; 'I' for Inactive)
REMARK    1  A    between atoms: C_2  and  C_3
REMARK    2  A    between atoms: C_7  and  O_8
REMARK    3  A    between atoms: C_9  and  C_10
REMARK    4  A    between atoms: C_10  and  O_11
REMARK    5  A    between atoms: O_11  and  C_12
REMARK    6  A    between atoms: N_15  and  C_16
REMARK    7  A    between atoms: N_19  and  C_20
REMARK                            x       y       z     vdW  Elec       q    Type
REMARK                         _______ _______ _______ _____ _____    ______ ____
ROOT
ATOM      1  C   UNL     1      -3.510  11.889  19.287  0.00  0.00    +0.000 A 
ATOM      2  N   UNL     1      -4.668  12.359  19.796  0.00  0.00    +0.000 NA
ATOM      3  C   UNL     1      -5.785  12.383  19.049  0.00  0.00    +0.000 A 
ATOM      4  N   UNL     1      -6.983  12.787  19.646  0.00  0.00    +0.000 N 
ATOM      5  N   UNL     1      -5.850  12.018  17.759  0.00  0.00    +0.000 NA
ATOM      6  C   UNL     1      -4.696  11.511  17.301  0.00  0.00    +0.000 A 
ATOM      7  N   UNL     1      -4.524  10.991  16.046  0.00  0.00    +0.000 N 
ATOM      8  C   UNL     1      -3.246  10.514  15.918  0.00  0.00    +0.000 A 
ATOM      9  C   UNL     1      -2.585  10.758  17.105  0.00  0.00    +0.000 A 
ATOM     10 CL   UNL     1      -0.978  10.335  17.456  0.00  0.00    +0.000 Cl
ATOM     11  C   UNL     1      -3.496  11.392  17.988  0.00  0.00    +0.000 A 
ATOM     12  H   UNL     1      -7.688  12.902  18.930  0.00  0.00    +0.000 HD
ATOM     13  H   UNL     1      -5.254  10.951  15.349  0.00  0.00    +0.000 HD
ENDROOT
BRANCH   4  14
ATOM     14  C   UNL     1      -7.293  12.822  20.960  0.00  0.00    +0.000 A 
ATOM     15  C   UNL     1      -7.672  11.773  21.825  0.00  0.00    +0.000 A 
ATOM     16  N   UNL     1      -7.917  12.196  23.067  0.00  0.00    +0.000 NA
ATOM     17  N   UNL     1      -7.719  13.521  22.987  0.00  0.00    +0.000 N 
ATOM     18  C   UNL     1      -7.905  14.340  24.159  0.00  0.00    +0.000 C 
ATOM     19  C   UNL     1      -7.354  13.949  21.741  0.00  0.00    +0.000 A 
ENDBRANCH   4  14
BRANCH   1  20
ATOM     20  O   UNL     1      -2.379  11.883  20.091  0.00  0.00    +0.000 OA
BRANCH  20  21
ATOM     21  C   UNL     1      -1.743  13.169  20.108  0.00  0.00    +0.000 C 
BRANCH  21  27
ATOM     22  C   UNL     1       0.194   9.946  22.379  0.00  0.00    +0.000 C 
ATOM     23  O   UNL     1      -0.582   9.532  23.237  0.00  0.00    +0.000 OA
ATOM     24  N   UNL     1       0.110  11.216  21.858  0.00  0.00    +0.000 N 
ATOM     25  C   UNL     1       0.982  11.849  20.874  0.00  0.00    +0.000 C 
ATOM     26  C   UNL     1       0.620  13.333  20.964  0.00  0.00    +0.000 C 
ATOM     27  C   UNL     1      -0.866  13.326  21.349  0.00  0.00    +0.000 C 
ATOM     28  C   UNL     1      -0.971  12.106  22.266  0.00  0.00    +0.000 C 
BRANCH  22  30
ATOM     29  C   UNL     1       1.002   7.960  21.182  0.00  0.00    +0.000 C 
ATOM     30  C   UNL     1       1.288   9.084  21.854  0.00  0.00    +0.000 C 
ENDBRANCH  22  30
BRANCH  26  31
ATOM     31  O   UNL     1       1.385  13.962  21.994  0.00  0.00    +0.000 OA
ATOM     32  H   UNL     1       0.940  14.797  22.228  0.00  0.00    +0.000 HD
ENDBRANCH  26  31
ENDBRANCH  21  27
ENDBRANCH  20  21
ENDBRANCH   1  20
TORSDOF 6
ENDMDL
