MODEL 1
REMARK VINA RESULT:      -8.7      0.000      0.000
REMARK  Name = 
REMARK  6 active torsions:
REMARK  status: ('A' for Active; 'I' for Inactive)
REMARK    1  A    between atoms: C_1  and  C_2
REMARK    2  A    between atoms: C_4  and  C_5
REMARK    3  A    between atoms: C_10  and  N_11
REMARK    4  A    between atoms: N_14  and  C_15
REMARK    5  A    between atoms: C_15  and  C_16
REMARK    6  A    between atoms: C_15  and  C_17
REMARK                            x       y       z     vdW  Elec       q    Type
REMARK                         _______ _______ _______ _____ _____    ______ ____
ROOT
ATOM      1  C   UNL     1       3.952   4.171  18.283  0.00  0.00    +0.000 A 
ATOM      2  N   UNL     1       3.368   2.994  18.561  0.00  0.00    +0.000 NA
ATOM      3  N   UNL     1       2.371   3.303  19.411  0.00  0.00    +0.000 N 
ATOM      4  C   UNL     1       2.254   4.638  19.681  0.00  0.00    +0.000 A 
ATOM      5  C   UNL     1       1.380   5.374  20.491  0.00  0.00    +0.000 A 
ATOM      6  C   UNL     1       1.595   6.749  20.486  0.00  0.00    +0.000 A 
ATOM      7  N   UNL     1       2.549   7.348  19.738  0.00  0.00    +0.000 NA
ATOM      8  C   UNL     1       3.378   6.618  18.965  0.00  0.00    +0.000 A 
ATOM      9  C   UNL     1       3.263   5.234  18.933  0.00  0.00    +0.000 A 
ATOM     10  H   UNL     1       1.799   2.545  19.769  0.00  0.00    +0.000 HD
ENDROOT
BRANCH   1  14
ATOM     11  C   UNL     1       6.064   3.933  13.756  0.00  0.00    +0.000 C 
ATOM     12  C   UNL     1       6.132   4.186  15.231  0.00  0.00    +0.000 A 
ATOM     13  C   UNL     1       5.006   4.046  16.035  0.00  0.00    +0.000 A 
ATOM     14  C   UNL     1       5.122   4.273  17.408  0.00  0.00    +0.000 A 
ATOM     15  C   UNL     1       6.377   4.612  17.924  0.00  0.00    +0.000 A 
ATOM     16  C   UNL     1       7.441   4.741  17.051  0.00  0.00    +0.000 A 
ATOM     17  N   UNL     1       7.343   4.543  15.723  0.00  0.00    +0.000 NA
ENDBRANCH   1  14
BRANCH   6  18
ATOM     18  N   UNL     1       0.790   7.563  21.297  0.00  0.00    +0.000 N 
ATOM     19  C   UNL     1       0.404   8.859  21.059  0.00  0.00    +0.000 C 
ATOM     20  O   UNL     1      -0.297   9.454  21.874  0.00  0.00    +0.000 OA
ATOM     21  N   UNL     1       0.870   9.423  19.915  0.00  0.00    +0.000 N 
ATOM     22  H   UNL     1       0.457   7.199  22.174  0.00  0.00    +0.000 HD
ATOM     23  H   UNL     1       1.285   8.762  19.264  0.00  0.00    +0.000 HD
BRANCH  21  24
ATOM     24  C   UNL     1       0.540  10.740  19.425  0.00  0.00    +0.000 C 
ATOM     25  C   UNL     1       1.671  11.239  18.520  0.00  0.00    +0.000 C 
BRANCH  24  26
ATOM     26  C   UNL     1      -0.794  10.728  18.714  0.00  0.00    +0.000 A 
ATOM     27  C   UNL     1      -1.077   9.895  17.625  0.00  0.00    +0.000 A 
ATOM     28  C   UNL     1      -2.342   9.921  17.044  0.00  0.00    +0.000 A 
ATOM     29  C   UNL     1      -3.289  10.787  17.566  0.00  0.00    +0.000 A 
ATOM     30  N   UNL     1      -3.055  11.611  18.606  0.00  0.00    +0.000 NA
ATOM     31  C   UNL     1      -1.824  11.552  19.164  0.00  0.00    +0.000 A 
ENDBRANCH  24  26
ENDBRANCH  21  24
ENDBRANCH   6  18
TORSDOF 4
ENDMDL
MODEL 2
REMARK VINA RESULT:      -8.0      2.038      3.675
REMARK  Name = 
REMARK  6 active torsions:
REMARK  status: ('A' for Active; 'I' for Inactive)
REMARK    1  A    between atoms: C_1  and  C_2
REMARK    2  A    between atoms: C_4  and  C_5
REMARK    3  A    between atoms: C_10  and  N_11
REMARK    4  A    between atoms: N_14  and  C_15
REMARK    5  A    between atoms: C_15  and  C_16
REMARK    6  A    between atoms: C_15  and  C_17
REMARK                            x       y       z     vdW  Elec       q    Type
REMARK                         _______ _______ _______ _____ _____    ______ ____
ROOT
ATOM      1  C   UNL     1       2.537   6.482  19.264  0.00  0.00    +0.000 A 
ATOM      2  N   UNL     1       2.200   6.139  20.519  0.00  0.00    +0.000 NA
ATOM      3  N   UNL     1       1.604   7.238  21.021  0.00  0.00    +0.000 N 
ATOM      4  C   UNL     1       1.508   8.279  20.139  0.00  0.00    +0.000 A 
ATOM      5  C   UNL     1       0.978   9.570  20.245  0.00  0.00    +0.000 A 
ATOM      6  C   UNL     1       1.072  10.339  19.088  0.00  0.00    +0.000 A 
ATOM      7  N   UNL     1       1.603   9.878  17.933  0.00  0.00    +0.000 NA
ATOM      8  C   UNL     1       2.105   8.629  17.856  0.00  0.00    +0.000 A 
ATOM      9  C   UNL     1       2.088   7.800  18.970  0.00  0.00    +0.000 A 
ATOM     10  H   UNL     1       1.280   7.206  21.982  0.00  0.00    +0.000 HD
ENDROOT
BRANCH   1  14
ATOM     11  C   UNL     1       6.572   5.245  16.581  0.00  0.00    +0.000 C 
ATOM     12  C   UNL     1       5.199   4.958  17.105  0.00  0.00    +0.000 A 
ATOM     13  C   UNL     1       4.538   5.868  17.924  0.00  0.00    +0.000 A 
ATOM     14  C   UNL     1       3.251   5.565  18.371  0.00  0.00    +0.000 A 
ATOM     15  C   UNL     1       2.667   4.365  17.959  0.00  0.00    +0.000 A 
ATOM     16  C   UNL     1       3.399   3.512  17.154  0.00  0.00    +0.000 A 
ATOM     17  N   UNL     1       4.647   3.780  16.726  0.00  0.00    +0.000 NA
ENDBRANCH   1  14
BRANCH   6  18
ATOM     18  N   UNL     1       0.600  11.659  19.111  0.00  0.00    +0.000 N 
ATOM     19  C   UNL     1      -0.509  12.162  18.476  0.00  0.00    +0.000 C 
ATOM     20  O   UNL     1      -0.792  13.353  18.578  0.00  0.00    +0.000 OA
ATOM     21  N   UNL     1      -1.220  11.282  17.725  0.00  0.00    +0.000 N 
ATOM     22  H   UNL     1       1.120  12.353  19.622  0.00  0.00    +0.000 HD
ATOM     23  H   UNL     1      -0.971  10.309  17.878  0.00  0.00    +0.000 HD
BRANCH  21  24
ATOM     24  C   UNL     1      -2.453  11.565  17.030  0.00  0.00    +0.000 C 
ATOM     25  C   UNL     1      -2.608  10.588  15.860  0.00  0.00    +0.000 C 
BRANCH  24  26
ATOM     26  C   UNL     1      -3.628  11.507  17.979  0.00  0.00    +0.000 A 
ATOM     27  C   UNL     1      -3.719  12.287  19.138  0.00  0.00    +0.000 A 
ATOM     28  C   UNL     1      -4.850  12.198  19.945  0.00  0.00    +0.000 A 
ATOM     29  C   UNL     1      -5.858  11.323  19.574  0.00  0.00    +0.000 A 
ATOM     30  N   UNL     1      -5.805  10.547  18.473  0.00  0.00    +0.000 NA
ATOM     31  C   UNL     1      -4.704  10.668  17.696  0.00  0.00    +0.000 A 
ENDBRANCH  24  26
ENDBRANCH  21  24
ENDBRANCH   6  18
TORSDOF 4
ENDMDL
MODEL 3
REMARK VINA RESULT:      -8.0      2.096      3.811
REMARK  Name = 
REMARK  6 active torsions:
REMARK  status: ('A' for Active; 'I' for Inactive)
REMARK    1  A    between atoms: C_1  and  C_2
REMARK    2  A    between atoms: C_4  and  C_5
REMARK    3  A    between atoms: C_10  and  N_11
REMARK    4  A    between atoms: N_14  and  C_15
REMARK    5  A    between atoms: C_15  and  C_16
REMARK    6  A    between atoms: C_15  and  C_17
REMARK                            x       y       z     vdW  Elec       q    Type
REMARK                         _______ _______ _______ _____ _____    ______ ____
ROOT
ATOM      1  C   UNL     1       2.468   6.518  19.424  0.00  0.00    +0.000 A 
ATOM      2  N   UNL     1       2.080   6.242  20.681  0.00  0.00    +0.000 NA
ATOM      3  N   UNL     1       1.489   7.373  21.109  0.00  0.00    +0.000 N 
ATOM      4  C   UNL     1       1.444   8.373  20.177  0.00  0.00    +0.000 A 
ATOM      5  C   UNL     1       0.937   9.677  20.203  0.00  0.00    +0.000 A 
ATOM      6  C   UNL     1       1.086  10.388  19.015  0.00  0.00    +0.000 A 
ATOM      7  N   UNL     1       1.648   9.863  17.903  0.00  0.00    +0.000 NA
ATOM      8  C   UNL     1       2.128   8.603  17.903  0.00  0.00    +0.000 A 
ATOM      9  C   UNL     1       2.056   7.829  19.053  0.00  0.00    +0.000 A 
ATOM     10  H   UNL     1       1.130   7.392  22.058  0.00  0.00    +0.000 HD
ENDROOT
BRANCH   1  14
ATOM     11  C   UNL     1       3.389   1.815  17.995  0.00  0.00    +0.000 C 
ATOM     12  C   UNL     1       3.618   3.292  17.896  0.00  0.00    +0.000 A 
ATOM     13  C   UNL     1       2.933   4.181  18.717  0.00  0.00    +0.000 A 
ATOM     14  C   UNL     1       3.195   5.547  18.602  0.00  0.00    +0.000 A 
ATOM     15  C   UNL     1       4.155   5.967  17.677  0.00  0.00    +0.000 A 
ATOM     16  C   UNL     1       4.780   5.017  16.892  0.00  0.00    +0.000 A 
ATOM     17  N   UNL     1       4.529   3.697  16.977  0.00  0.00    +0.000 NA
ENDBRANCH   1  14
BRANCH   6  18
ATOM     18  N   UNL     1       0.639  11.716  18.960  0.00  0.00    +0.000 N 
ATOM     19  C   UNL     1      -0.476  12.197  18.319  0.00  0.00    +0.000 C 
ATOM     20  O   UNL     1      -0.734  13.398  18.346  0.00  0.00    +0.000 OA
ATOM     21  N   UNL     1      -1.223  11.283  17.649  0.00  0.00    +0.000 N 
ATOM     22  H   UNL     1       1.186  12.433  19.408  0.00  0.00    +0.000 HD
ATOM     23  H   UNL     1      -0.988  10.317  17.861  0.00  0.00    +0.000 HD
BRANCH  21  24
ATOM     24  C   UNL     1      -2.469  11.543  16.967  0.00  0.00    +0.000 C 
ATOM     25  C   UNL     1      -2.650  10.521  15.840  0.00  0.00    +0.000 C 
BRANCH  24  26
ATOM     26  C   UNL     1      -3.624  11.528  17.940  0.00  0.00    +0.000 A 
ATOM     27  C   UNL     1      -3.618  12.229  19.152  0.00  0.00    +0.000 A 
ATOM     28  C   UNL     1      -4.736  12.189  19.980  0.00  0.00    +0.000 A 
ATOM     29  C   UNL     1      -5.830  11.442  19.576  0.00  0.00    +0.000 A 
ATOM     30  N   UNL     1      -5.874  10.745  18.423  0.00  0.00    +0.000 NA
ATOM     31  C   UNL     1      -4.782  10.817  17.628  0.00  0.00    +0.000 A 
ENDBRANCH  24  26
ENDBRANCH  21  24
ENDBRANCH   6  18
TORSDOF 4
ENDMDL
MODEL 4
REMARK VINA RESULT:      -7.9      3.549      7.092
REMARK  Name = 
REMARK  6 active torsions:
REMARK  status: ('A' for Active; 'I' for Inactive)
REMARK    1  A    between atoms: C_1  and  C_2
REMARK    2  A    between atoms: C_4  and  C_5
REMARK    3  A    between atoms: C_10  and  N_11
REMARK    4  A    between atoms: N_14  and  C_15
REMARK    5  A    between atoms: C_15  and  C_16
REMARK    6  A    between atoms: C_15  and  C_17
REMARK                            x       y       z     vdW  Elec       q    Type
REMARK                         _______ _______ _______ _____ _____    ______ ____
ROOT
ATOM      1  C   UNL     1       0.559  10.054  19.200  0.00  0.00    +0.000 A 
ATOM      2  N   UNL     1       0.864  11.044  20.056  0.00  0.00    +0.000 NA
ATOM      3  N   UNL     1      -0.132  11.938  19.908  0.00  0.00    +0.000 N 
ATOM      4  C   UNL     1      -1.095  11.564  19.013  0.00  0.00    +0.000 A 
ATOM      5  C   UNL     1      -2.271  12.180  18.566  0.00  0.00    +0.000 A 
ATOM      6  C   UNL     1      -2.997  11.449  17.630  0.00  0.00    +0.000 A 
ATOM      7  N   UNL     1      -2.625  10.222  17.197  0.00  0.00    +0.000 NA
ATOM      8  C   UNL     1      -1.489   9.650  17.644  0.00  0.00    +0.000 A 
ATOM      9  C   UNL     1      -0.680  10.320  18.553  0.00  0.00    +0.000 A 
ATOM     10  H   UNL     1      -0.093  12.789  20.459  0.00  0.00    +0.000 HD
ENDROOT
BRANCH   1  14
ATOM     11  C   UNL     1       2.208   5.570  20.679  0.00  0.00    +0.000 C 
ATOM     12  C   UNL     1       2.195   6.719  19.717  0.00  0.00    +0.000 A 
ATOM     13  C   UNL     1       1.386   7.829  19.937  0.00  0.00    +0.000 A 
ATOM     14  C   UNL     1       1.423   8.884  19.023  0.00  0.00    +0.000 A 
ATOM     15  C   UNL     1       2.291   8.790  17.931  0.00  0.00    +0.000 A 
ATOM     16  C   UNL     1       3.051   7.645  17.783  0.00  0.00    +0.000 A 
ATOM     17  N   UNL     1       3.016   6.612  18.645  0.00  0.00    +0.000 NA
ENDBRANCH   1  14
BRANCH   6  18
ATOM     18  N   UNL     1      -4.171  12.003  17.099  0.00  0.00    +0.000 N 
ATOM     19  C   UNL     1      -5.448  11.875  17.584  0.00  0.00    +0.000 C 
ATOM     20  O   UNL     1      -6.387  12.410  16.999  0.00  0.00    +0.000 OA
ATOM     21  N   UNL     1      -5.594  11.111  18.697  0.00  0.00    +0.000 N 
ATOM     22  H   UNL     1      -4.114  12.543  16.251  0.00  0.00    +0.000 HD
ATOM     23  H   UNL     1      -4.720  10.884  19.163  0.00  0.00    +0.000 HD
BRANCH  21  24
ATOM     24  C   UNL     1      -6.824  10.894  19.421  0.00  0.00    +0.000 C 
ATOM     25  C   UNL     1      -7.076   9.388  19.548  0.00  0.00    +0.000 C 
BRANCH  24  26
ATOM     26  C   UNL     1      -6.780  11.579  20.767  0.00  0.00    +0.000 A 
ATOM     27  C   UNL     1      -5.717  12.390  21.183  0.00  0.00    +0.000 A 
ATOM     28  C   UNL     1      -5.766  13.012  22.427  0.00  0.00    +0.000 A 
ATOM     29  C   UNL     1      -6.876  12.799  23.227  0.00  0.00    +0.000 A 
ATOM     30  N   UNL     1      -7.915  12.019  22.870  0.00  0.00    +0.000 NA
ATOM     31  C   UNL     1      -7.851  11.443  21.648  0.00  0.00    +0.000 A 
ENDBRANCH  24  26
ENDBRANCH  21  24
ENDBRANCH   6  18
TORSDOF 4
ENDMDL
MODEL 5
REMARK VINA RESULT:      -7.8      2.416      4.261
REMARK  Name = 
REMARK  6 active torsions:
REMARK  status: ('A' for Active; 'I' for Inactive)
REMARK    1  A    between atoms: C_1  and  C_2
REMARK    2  A    between atoms: C_4  and  C_5
REMARK    3  A    between atoms: C_10  and  N_11
REMARK    4  A    between atoms: N_14  and  C_15
REMARK    5  A    between atoms: C_15  and  C_16
REMARK    6  A    between atoms: C_15  and  C_17
REMARK                            x       y       z     vdW  Elec       q    Type
REMARK                         _______ _______ _______ _____ _____    ______ ____
ROOT
ATOM      1  C   UNL     1       2.247   6.681  19.450  0.00  0.00    +0.000 A 
ATOM      2  N   UNL     1       1.821   6.576  20.720  0.00  0.00    +0.000 NA
ATOM      3  N   UNL     1       1.388   7.811  21.035  0.00  0.00    +0.000 N 
ATOM      4  C   UNL     1       1.482   8.718  20.016  0.00  0.00    +0.000 A 
ATOM      5  C   UNL     1       1.157  10.076  19.916  0.00  0.00    +0.000 A 
ATOM      6  C   UNL     1       1.406  10.649  18.672  0.00  0.00    +0.000 A 
ATOM      7  N   UNL     1       1.895   9.953  17.620  0.00  0.00    +0.000 NA
ATOM      8  C   UNL     1       2.199   8.645  17.741  0.00  0.00    +0.000 A 
ATOM      9  C   UNL     1       2.018   7.996  18.956  0.00  0.00    +0.000 A 
ATOM     10  H   UNL     1       1.031   7.966  21.972  0.00  0.00    +0.000 HD
ENDROOT
BRANCH   1  14
ATOM     11  C   UNL     1       6.183   4.377  17.399  0.00  0.00    +0.000 C 
ATOM     12  C   UNL     1       4.733   4.431  17.769  0.00  0.00    +0.000 A 
ATOM     13  C   UNL     1       4.200   5.537  18.423  0.00  0.00    +0.000 A 
ATOM     14  C   UNL     1       2.838   5.550  18.730  0.00  0.00    +0.000 A 
ATOM     15  C   UNL     1       2.057   4.457  18.346  0.00  0.00    +0.000 A 
ATOM     16  C   UNL     1       2.670   3.393  17.710  0.00  0.00    +0.000 A 
ATOM     17  N   UNL     1       3.985   3.356  17.421  0.00  0.00    +0.000 NA
ENDBRANCH   1  14
BRANCH   6  18
ATOM     18  N   UNL     1       1.143  12.014  18.489  0.00  0.00    +0.000 N 
ATOM     19  C   UNL     1      -0.050  12.668  18.671  0.00  0.00    +0.000 C 
ATOM     20  O   UNL     1      -0.132  13.875  18.456  0.00  0.00    +0.000 OA
ATOM     21  N   UNL     1      -1.102  11.900  19.055  0.00  0.00    +0.000 N 
ATOM     22  H   UNL     1       1.885  12.613  18.165  0.00  0.00    +0.000 HD
ATOM     23  H   UNL     1      -0.845  10.965  19.360  0.00  0.00    +0.000 HD
BRANCH  21  24
ATOM     24  C   UNL     1      -2.427  12.376  19.372  0.00  0.00    +0.000 C 
ATOM     25  C   UNL     1      -3.457  11.575  18.569  0.00  0.00    +0.000 C 
BRANCH  24  26
ATOM     26  C   UNL     1      -2.681  12.299  20.860  0.00  0.00    +0.000 A 
ATOM     27  C   UNL     1      -1.710  11.900  21.786  0.00  0.00    +0.000 A 
ATOM     28  C   UNL     1      -2.013  11.885  23.144  0.00  0.00    +0.000 A 
ATOM     29  C   UNL     1      -3.285  12.263  23.540  0.00  0.00    +0.000 A 
ATOM     30  N   UNL     1      -4.252  12.644  22.682  0.00  0.00    +0.000 NA
ATOM     31  C   UNL     1      -3.925  12.668  21.369  0.00  0.00    +0.000 A 
ENDBRANCH  24  26
ENDBRANCH  21  24
ENDBRANCH   6  18
TORSDOF 4
ENDMDL
MODEL 6
REMARK VINA RESULT:      -7.8      2.483      4.326
REMARK  Name = 
REMARK  6 active torsions:
REMARK  status: ('A' for Active; 'I' for Inactive)
REMARK    1  A    between atoms: C_1  and  C_2
REMARK    2  A    between atoms: C_4  and  C_5
REMARK    3  A    between atoms: C_10  and  N_11
REMARK    4  A    between atoms: N_14  and  C_15
REMARK    5  A    between atoms: C_15  and  C_16
REMARK    6  A    between atoms: C_15  and  C_17
REMARK                            x       y       z     vdW  Elec       q    Type
REMARK                         _______ _______ _______ _____ _____    ______ ____
ROOT
ATOM      1  C   UNL     1       2.323   6.839  19.448  0.00  0.00    +0.000 A 
ATOM      2  N   UNL     1       1.847   6.718  20.698  0.00  0.00    +0.000 NA
ATOM      3  N   UNL     1       1.354   7.937  20.991  0.00  0.00    +0.000 N 
ATOM      4  C   UNL     1       1.458   8.845  19.974  0.00  0.00    +0.000 A 
ATOM      5  C   UNL     1       1.086  10.190  19.857  0.00  0.00    +0.000 A 
ATOM      6  C   UNL     1       1.367  10.771  18.623  0.00  0.00    +0.000 A 
ATOM      7  N   UNL     1       1.927  10.093  17.596  0.00  0.00    +0.000 NA
ATOM      8  C   UNL     1       2.275   8.797  17.733  0.00  0.00    +0.000 A 
ATOM      9  C   UNL     1       2.066   8.143  18.940  0.00  0.00    +0.000 A 
ATOM     10  H   UNL     1       0.952   8.078  21.912  0.00  0.00    +0.000 HD
ENDROOT
BRANCH   1  14
ATOM     11  C   UNL     1       2.361   2.131  17.758  0.00  0.00    +0.000 C 
ATOM     12  C   UNL     1       2.995   3.479  17.921  0.00  0.00    +0.000 A 
ATOM     13  C   UNL     1       2.348   4.497  18.613  0.00  0.00    +0.000 A 
ATOM     14  C   UNL     1       2.987   5.730  18.757  0.00  0.00    +0.000 A 
ATOM     15  C   UNL     1       4.266   5.884  18.216  0.00  0.00    +0.000 A 
ATOM     16  C   UNL     1       4.831   4.824  17.533  0.00  0.00    +0.000 A 
ATOM     17  N   UNL     1       4.223   3.634  17.370  0.00  0.00    +0.000 NA
ENDBRANCH   1  14
BRANCH   6  18
ATOM     18  N   UNL     1       1.061  12.125  18.426  0.00  0.00    +0.000 N 
ATOM     19  C   UNL     1      -0.147  12.746  18.622  0.00  0.00    +0.000 C 
ATOM     20  O   UNL     1      -0.268  13.947  18.391  0.00  0.00    +0.000 OA
ATOM     21  N   UNL     1      -1.168  11.955  19.039  0.00  0.00    +0.000 N 
ATOM     22  H   UNL     1       1.778  12.740  18.078  0.00  0.00    +0.000 HD
ATOM     23  H   UNL     1      -0.878  11.033  19.353  0.00  0.00    +0.000 HD
BRANCH  21  24
ATOM     24  C   UNL     1      -2.500  12.397  19.377  0.00  0.00    +0.000 C 
ATOM     25  C   UNL     1      -3.521  11.565  18.595  0.00  0.00    +0.000 C 
BRANCH  24  26
ATOM     26  C   UNL     1      -2.727  12.321  20.869  0.00  0.00    +0.000 A 
ATOM     27  C   UNL     1      -1.721  11.986  21.783  0.00  0.00    +0.000 A 
ATOM     28  C   UNL     1      -2.002  11.969  23.146  0.00  0.00    +0.000 A 
ATOM     29  C   UNL     1      -3.288  12.280  23.558  0.00  0.00    +0.000 A 
ATOM     30  N   UNL     1      -4.287  12.598  22.711  0.00  0.00    +0.000 NA
ATOM     31  C   UNL     1      -3.981  12.627  21.394  0.00  0.00    +0.000 A 
ENDBRANCH  24  26
ENDBRANCH  21  24
ENDBRANCH   6  18
TORSDOF 4
ENDMDL
MODEL 7
REMARK VINA RESULT:      -7.7      0.901      1.460
REMARK  Name = 
REMARK  6 active torsions:
REMARK  status: ('A' for Active; 'I' for Inactive)
REMARK    1  A    between atoms: C_1  and  C_2
REMARK    2  A    between atoms: C_4  and  C_5
REMARK    3  A    between atoms: C_10  and  N_11
REMARK    4  A    between atoms: N_14  and  C_15
REMARK    5  A    between atoms: C_15  and  C_16
REMARK    6  A    between atoms: C_15  and  C_17
REMARK                            x       y       z     vdW  Elec       q    Type
REMARK                         _______ _______ _______ _____ _____    ______ ____
ROOT
ATOM      1  C   UNL     1       3.747   4.771  18.213  0.00  0.00    +0.000 A 
ATOM      2  N   UNL     1       3.234   3.537  18.345  0.00  0.00    +0.000 NA
ATOM      3  N   UNL     1       2.222   3.682  19.220  0.00  0.00    +0.000 N 
ATOM      4  C   UNL     1       2.026   4.967  19.646  0.00  0.00    +0.000 A 
ATOM      5  C   UNL     1       1.111   5.548  20.533  0.00  0.00    +0.000 A 
ATOM      6  C   UNL     1       1.243   6.924  20.694  0.00  0.00    +0.000 A 
ATOM      7  N   UNL     1       2.159   7.663  20.028  0.00  0.00    +0.000 NA
ATOM      8  C   UNL     1       3.029   7.081  19.178  0.00  0.00    +0.000 A 
ATOM      9  C   UNL     1       2.997   5.706  18.981  0.00  0.00    +0.000 A 
ATOM     10  H   UNL     1       1.696   2.855  19.482  0.00  0.00    +0.000 HD
ENDROOT
BRANCH   1  14
ATOM     11  C   UNL     1       7.815   7.459  17.101  0.00  0.00    +0.000 C 
ATOM     12  C   UNL     1       6.877   6.320  16.844  0.00  0.00    +0.000 A 
ATOM     13  C   UNL     1       5.765   6.110  17.653  0.00  0.00    +0.000 A 
ATOM     14  C   UNL     1       4.909   5.047  17.364  0.00  0.00    +0.000 A 
ATOM     15  C   UNL     1       5.192   4.246  16.254  0.00  0.00    +0.000 A 
ATOM     16  C   UNL     1       6.325   4.517  15.511  0.00  0.00    +0.000 A 
ATOM     17  N   UNL     1       7.171   5.528  15.785  0.00  0.00    +0.000 NA
ENDBRANCH   1  14
BRANCH   6  18
ATOM     18  N   UNL     1       0.392   7.587  21.590  0.00  0.00    +0.000 N 
ATOM     19  C   UNL     1      -0.094   8.866  21.491  0.00  0.00    +0.000 C 
ATOM     20  O   UNL     1      -0.825   9.319  22.369  0.00  0.00    +0.000 OA
ATOM     21  N   UNL     1       0.309   9.579  20.407  0.00  0.00    +0.000 N 
ATOM     22  H   UNL     1       0.102   7.110  22.428  0.00  0.00    +0.000 HD
ATOM     23  H   UNL     1       0.762   9.021  19.689  0.00  0.00    +0.000 HD
BRANCH  21  24
ATOM     24  C   UNL     1      -0.128  10.910  20.059  0.00  0.00    +0.000 C 
ATOM     25  C   UNL     1       1.089  11.749  19.653  0.00  0.00    +0.000 C 
BRANCH  24  26
ATOM     26  C   UNL     1      -1.174  10.861  18.970  0.00  0.00    +0.000 A 
ATOM     27  C   UNL     1      -1.068  10.047  17.836  0.00  0.00    +0.000 A 
ATOM     28  C   UNL     1      -2.091  10.035  16.893  0.00  0.00    +0.000 A 
ATOM     29  C   UNL     1      -3.193  10.847  17.106  0.00  0.00    +0.000 A 
ATOM     30  N   UNL     1      -3.331  11.653  18.178  0.00  0.00    +0.000 NA
ATOM     31  C   UNL     1      -2.331  11.630  19.088  0.00  0.00    +0.000 A 
ENDBRANCH  24  26
ENDBRANCH  21  24
ENDBRANCH   6  18
TORSDOF 4
ENDMDL
MODEL 8
REMARK VINA RESULT:      -7.7      1.396      2.344
REMARK  Name = 
REMARK  6 active torsions:
REMARK  status: ('A' for Active; 'I' for Inactive)
REMARK    1  A    between atoms: C_1  and  C_2
REMARK    2  A    between atoms: C_4  and  C_5
REMARK    3  A    between atoms: C_10  and  N_11
REMARK    4  A    between atoms: N_14  and  C_15
REMARK    5  A    between atoms: C_15  and  C_16
REMARK    6  A    between atoms: C_15  and  C_17
REMARK                            x       y       z     vdW  Elec       q    Type
REMARK                         _______ _______ _______ _____ _____    ______ ____
ROOT
ATOM      1  C   UNL     1       4.119   4.437  18.658  0.00  0.00    +0.000 A 
ATOM      2  N   UNL     1       3.682   3.318  19.260  0.00  0.00    +0.000 NA
ATOM      3  N   UNL     1       2.721   3.740  20.102  0.00  0.00    +0.000 N 
ATOM      4  C   UNL     1       2.485   5.086  20.059  0.00  0.00    +0.000 A 
ATOM      5  C   UNL     1       1.600   5.922  20.751  0.00  0.00    +0.000 A 
ATOM      6  C   UNL     1       1.669   7.268  20.402  0.00  0.00    +0.000 A 
ATOM      7  N   UNL     1       2.501   7.743  19.448  0.00  0.00    +0.000 NA
ATOM      8  C   UNL     1       3.343   6.919  18.794  0.00  0.00    +0.000 A 
ATOM      9  C   UNL     1       3.371   5.564  19.100  0.00  0.00    +0.000 A 
ATOM     10  H   UNL     1       2.257   3.047  20.681  0.00  0.00    +0.000 HD
ENDROOT
BRANCH   1  14
ATOM     11  C   UNL     1       5.764   4.017  13.954  0.00  0.00    +0.000 C 
ATOM     12  C   UNL     1       5.995   4.246  15.416  0.00  0.00    +0.000 A 
ATOM     13  C   UNL     1       4.940   4.221  16.322  0.00  0.00    +0.000 A 
ATOM     14  C   UNL     1       5.208   4.420  17.678  0.00  0.00    +0.000 A 
ATOM     15  C   UNL     1       6.534   4.615  18.074  0.00  0.00    +0.000 A 
ATOM     16  C   UNL     1       7.520   4.637  17.106  0.00  0.00    +0.000 A 
ATOM     17  N   UNL     1       7.279   4.464  15.793  0.00  0.00    +0.000 NA
ENDBRANCH   1  14
BRANCH   6  18
ATOM     18  N   UNL     1       0.843   8.184  21.069  0.00  0.00    +0.000 N 
ATOM     19  C   UNL     1       0.230   9.293  20.543  0.00  0.00    +0.000 C 
ATOM     20  O   UNL     1      -0.458  10.017  21.259  0.00  0.00    +0.000 OA
ATOM     21  N   UNL     1       0.463   9.541  19.229  0.00  0.00    +0.000 N 
ATOM     22  H   UNL     1       0.678   8.062  22.055  0.00  0.00    +0.000 HD
ATOM     23  H   UNL     1       0.900   8.770  18.731  0.00  0.00    +0.000 HD
BRANCH  21  24
ATOM     24  C   UNL     1      -0.129  10.601  18.448  0.00  0.00    +0.000 C 
ATOM     25  C   UNL     1      -1.654  10.531  18.576  0.00  0.00    +0.000 C 
BRANCH  24  26
ATOM     26  C   UNL     1       0.416  11.945  18.872  0.00  0.00    +0.000 A 
ATOM     27  C   UNL     1      -0.392  12.993  19.330  0.00  0.00    +0.000 A 
ATOM     28  C   UNL     1       0.190  14.191  19.733  0.00  0.00    +0.000 A 
ATOM     29  C   UNL     1       1.568  14.313  19.659  0.00  0.00    +0.000 A 
ATOM     30  N   UNL     1       2.381  13.334  19.215  0.00  0.00    +0.000 NA
ATOM     31  C   UNL     1       1.791  12.173  18.849  0.00  0.00    +0.000 A 
ENDBRANCH  24  26
ENDBRANCH  21  24
ENDBRANCH   6  18
TORSDOF 4
ENDMDL
MODEL 9
REMARK VINA RESULT:      -7.7      1.525      2.515
REMARK  Name = 
REMARK  6 active torsions:
REMARK  status: ('A' for Active; 'I' for Inactive)
REMARK    1  A    between atoms: C_1  and  C_2
REMARK    2  A    between atoms: C_4  and  C_5
REMARK    3  A    between atoms: C_10  and  N_11
REMARK    4  A    between atoms: N_14  and  C_15
REMARK    5  A    between atoms: C_15  and  C_16
REMARK    6  A    between atoms: C_15  and  C_17
REMARK                            x       y       z     vdW  Elec       q    Type
REMARK                         _______ _______ _______ _____ _____    ______ ____
ROOT
ATOM      1  C   UNL     1       4.461   4.289  17.198  0.00  0.00    +0.000 A 
ATOM      2  N   UNL     1       4.062   3.104  17.692  0.00  0.00    +0.000 NA
ATOM      3  N   UNL     1       3.258   3.421  18.724  0.00  0.00    +0.000 N 
ATOM      4  C   UNL     1       3.085   4.765  18.911  0.00  0.00    +0.000 A 
ATOM      5  C   UNL     1       2.353   5.510  19.844  0.00  0.00    +0.000 A 
ATOM      6  C   UNL     1       2.437   6.891  19.686  0.00  0.00    +0.000 A 
ATOM      7  N   UNL     1       3.141   7.482  18.694  0.00  0.00    +0.000 NA
ATOM      8  C   UNL     1       3.837   6.742  17.808  0.00  0.00    +0.000 A 
ATOM      9  C   UNL     1       3.842   5.357  17.908  0.00  0.00    +0.000 A 
ATOM     10  H   UNL     1       2.851   2.662  19.261  0.00  0.00    +0.000 HD
ENDROOT
BRANCH   1  14
ATOM     11  C   UNL     1       5.648   3.436  12.415  0.00  0.00    +0.000 C 
ATOM     12  C   UNL     1       5.950   4.005  13.768  0.00  0.00    +0.000 A 
ATOM     13  C   UNL     1       5.056   3.860  14.824  0.00  0.00    +0.000 A 
ATOM     14  C   UNL     1       5.391   4.390  16.071  0.00  0.00    +0.000 A 
ATOM     15  C   UNL     1       6.626   5.029  16.215  0.00  0.00    +0.000 A 
ATOM     16  C   UNL     1       7.449   5.140  15.110  0.00  0.00    +0.000 A 
ATOM     17  N   UNL     1       7.136   4.650  13.896  0.00  0.00    +0.000 NA
ENDBRANCH   1  14
BRANCH   6  18
ATOM     18  N   UNL     1       1.764   7.719  20.597  0.00  0.00    +0.000 N 
ATOM     19  C   UNL     1       1.059   8.864  20.322  0.00  0.00    +0.000 C 
ATOM     20  O   UNL     1       0.531   9.497  21.233  0.00  0.00    +0.000 OA
ATOM     21  N   UNL     1       1.023   9.249  19.020  0.00  0.00    +0.000 N 
ATOM     22  H   UNL     1       1.800   7.493  21.577  0.00  0.00    +0.000 HD
ATOM     23  H   UNL     1       1.350   8.541  18.369  0.00  0.00    +0.000 HD
BRANCH  21  24
ATOM     24  C   UNL     1       0.289  10.372  18.489  0.00  0.00    +0.000 C 
ATOM     25  C   UNL     1      -1.150  10.329  19.016  0.00  0.00    +0.000 C 
BRANCH  24  26
ATOM     26  C   UNL     1       0.980  11.672  18.828  0.00  0.00    +0.000 A 
ATOM     27  C   UNL     1       2.219  12.046  18.294  0.00  0.00    +0.000 A 
ATOM     28  C   UNL     1       2.776  13.276  18.632  0.00  0.00    +0.000 A 
ATOM     29  C   UNL     1       2.081  14.097  19.504  0.00  0.00    +0.000 A 
ATOM     30  N   UNL     1       0.891  13.772  20.049  0.00  0.00    +0.000 NA
ATOM     31  C   UNL     1       0.363  12.580  19.687  0.00  0.00    +0.000 A 
ENDBRANCH  24  26
ENDBRANCH  21  24
ENDBRANCH   6  18
TORSDOF 4
ENDMDL
