MODEL 1
REMARK VINA RESULT:      -7.2      0.000      0.000
REMARK  Name = 
REMARK  8 active torsions:
REMARK  status: ('A' for Active; 'I' for Inactive)
REMARK    1  A    between atoms: C_1  and  C_2
REMARK    2  A    between atoms: C_2  and  C_3
REMARK    3  A    between atoms: C_2  and  C_4
REMARK    4  A    between atoms: C_2  and  C_17
REMARK    5  A    between atoms: C_4  and  C_5
REMARK    6  A    between atoms: N_7  and  C_8
REMARK    7  A    between atoms: C_12  and  C_13
REMARK    8  A    between atoms: C_17  and  O_19
REMARK                            x       y       z     vdW  Elec       q    Type
REMARK                         _______ _______ _______ _____ _____    ______ ____
ROOT
ATOM      1  C   UNL     1       4.493   5.176  17.043  0.00  0.00    +0.000 C 
ATOM      2  O   UNL     1       4.509   4.152  16.366  0.00  0.00    +0.000 OA
ATOM      3  N   UNL     1       3.597   5.455  18.057  0.00  0.00    +0.000 N 
ATOM      4  H   UNL     1       3.421   6.431  18.260  0.00  0.00    +0.000 HD
ENDROOT
BRANCH   3   5
ATOM      5  C   UNL     1       2.625   4.537  18.496  0.00  0.00    +0.000 A 
ATOM      6  C   UNL     1       1.501   4.221  17.729  0.00  0.00    +0.000 A 
ATOM      7  C   UNL     1       0.561   3.308  18.206  0.00  0.00    +0.000 A 
ATOM      8  C   UNL     1       0.721   2.731  19.471  0.00  0.00    +0.000 A 
ATOM      9  C   UNL     1       1.840   3.052  20.250  0.00  0.00    +0.000 A 
ATOM     10  C   UNL     1       2.815   3.921  19.731  0.00  0.00    +0.000 A 
BRANCH   9  11
ATOM     11  C   UNL     1       2.048   2.550  21.639  0.00  0.00    +0.000 C 
ATOM     12  N   UNL     1       0.970   2.458  22.473  0.00  0.00    +0.000 N 
ATOM     13  O   UNL     1       3.164   2.241  22.042  0.00  0.00    +0.000 OA
ATOM     14  H   UNL     1       0.031   2.737  22.245  0.00  0.00    +0.000 HD
ATOM     15  H   UNL     1       1.158   2.149  23.419  0.00  0.00    +0.000 HD
ENDBRANCH   9  11
ENDBRANCH   3   5
BRANCH   1  16
ATOM     16  C   UNL     1       5.504   6.278  16.796  0.00  0.00    +0.000 C 
BRANCH  16  18
ATOM     17  C   UNL     1       7.665   7.345  17.560  0.00  0.00    +0.000 C 
ATOM     18  C   UNL     1       6.823   6.050  17.561  0.00  0.00    +0.000 C 
ATOM     19  C   UNL     1       6.606   5.617  19.020  0.00  0.00    +0.000 C 
BRANCH  18  20
ATOM     20  C   UNL     1       7.607   4.956  16.829  0.00  0.00    +0.000 C 
ATOM     21  O   UNL     1       7.692   4.867  15.613  0.00  0.00    +0.000 OA
BRANCH  20  22
ATOM     22  O   UNL     1       8.193   4.042  17.636  0.00  0.00    +0.000 OA
ATOM     23  H   UNL     1       7.591   3.513  18.191  0.00  0.00    +0.000 HD
ENDBRANCH  20  22
ENDBRANCH  18  20
ENDBRANCH  16  18
ENDBRANCH   1  16
TORSDOF 6
ENDMDL
MODEL 2
REMARK VINA RESULT:      -7.2      2.367      6.446
REMARK  Name = 
REMARK  8 active torsions:
REMARK  status: ('A' for Active; 'I' for Inactive)
REMARK    1  A    between atoms: C_1  and  C_2
REMARK    2  A    between atoms: C_2  and  C_3
REMARK    3  A    between atoms: C_2  and  C_4
REMARK    4  A    between atoms: C_2  and  C_17
REMARK    5  A    between atoms: C_4  and  C_5
REMARK    6  A    between atoms: N_7  and  C_8
REMARK    7  A    between atoms: C_12  and  C_13
REMARK    8  A    between atoms: C_17  and  O_19
REMARK                            x       y       z     vdW  Elec       q    Type
REMARK                         _______ _______ _______ _____ _____    ______ ____
ROOT
ATOM      1  C   UNL     1       4.354   3.088  19.044  0.00  0.00    +0.000 C 
ATOM      2  O   UNL     1       5.331   3.303  19.756  0.00  0.00    +0.000 OA
ATOM      3  N   UNL     1       4.208   3.502  17.734  0.00  0.00    +0.000 N 
ATOM      4  H   UNL     1       3.263   3.625  17.392  0.00  0.00    +0.000 HD
ENDROOT
BRANCH   3   5
ATOM      5  C   UNL     1       5.226   4.163  17.020  0.00  0.00    +0.000 A 
ATOM      6  C   UNL     1       5.624   3.755  15.745  0.00  0.00    +0.000 A 
ATOM      7  C   UNL     1       6.641   4.439  15.078  0.00  0.00    +0.000 A 
ATOM      8  C   UNL     1       7.290   5.512  15.696  0.00  0.00    +0.000 A 
ATOM      9  C   UNL     1       6.903   5.919  16.980  0.00  0.00    +0.000 A 
ATOM     10  C   UNL     1       5.833   5.266  17.615  0.00  0.00    +0.000 A 
BRANCH   9  11
ATOM     11  C   UNL     1       7.594   6.996  17.746  0.00  0.00    +0.000 C 
ATOM     12  N   UNL     1       7.604   8.263  17.236  0.00  0.00    +0.000 N 
ATOM     13  O   UNL     1       8.163   6.756  18.805  0.00  0.00    +0.000 OA
ATOM     14  H   UNL     1       7.210   8.539  16.353  0.00  0.00    +0.000 HD
ATOM     15  H   UNL     1       8.116   8.957  17.766  0.00  0.00    +0.000 HD
ENDBRANCH   9  11
ENDBRANCH   3   5
BRANCH   1  16
ATOM     16  C   UNL     1       3.163   2.323  19.582  0.00  0.00    +0.000 C 
BRANCH  16  18
ATOM     17  C   UNL     1       1.197   2.795  21.102  0.00  0.00    +0.000 C 
ATOM     18  C   UNL     1       1.936   3.228  19.816  0.00  0.00    +0.000 C 
ATOM     19  C   UNL     1       2.303   4.715  19.947  0.00  0.00    +0.000 C 
BRANCH  18  20
ATOM     20  C   UNL     1       0.990   3.052  18.625  0.00  0.00    +0.000 C 
ATOM     21  O   UNL     1       0.162   2.157  18.529  0.00  0.00    +0.000 OA
BRANCH  20  22
ATOM     22  O   UNL     1       1.153   3.956  17.633  0.00  0.00    +0.000 OA
ATOM     23  H   UNL     1       1.982   3.890  17.125  0.00  0.00    +0.000 HD
ENDBRANCH  20  22
ENDBRANCH  18  20
ENDBRANCH  16  18
ENDBRANCH   1  16
TORSDOF 6
ENDMDL
MODEL 3
REMARK VINA RESULT:      -7.1      1.063      1.063
REMARK  Name = 
REMARK  8 active torsions:
REMARK  status: ('A' for Active; 'I' for Inactive)
REMARK    1  A    between atoms: C_1  and  C_2
REMARK    2  A    between atoms: C_2  and  C_3
REMARK    3  A    between atoms: C_2  and  C_4
REMARK    4  A    between atoms: C_2  and  C_17
REMARK    5  A    between atoms: C_4  and  C_5
REMARK    6  A    between atoms: N_7  and  C_8
REMARK    7  A    between atoms: C_12  and  C_13
REMARK    8  A    between atoms: C_17  and  O_19
REMARK                            x       y       z     vdW  Elec       q    Type
REMARK                         _______ _______ _______ _____ _____    ______ ____
ROOT
ATOM      1  C   UNL     1       4.114   6.317  17.841  0.00  0.00    +0.000 C 
ATOM      2  O   UNL     1       3.429   7.033  18.566  0.00  0.00    +0.000 OA
ATOM      3  N   UNL     1       3.942   4.959  17.659  0.00  0.00    +0.000 N 
ATOM      4  H   UNL     1       4.757   4.424  17.385  0.00  0.00    +0.000 HD
ENDROOT
BRANCH   3   5
ATOM      5  C   UNL     1       2.881   4.236  18.235  0.00  0.00    +0.000 A 
ATOM      6  C   UNL     1       1.660   4.059  17.579  0.00  0.00    +0.000 A 
ATOM      7  C   UNL     1       0.635   3.338  18.192  0.00  0.00    +0.000 A 
ATOM      8  C   UNL     1       0.810   2.821  19.479  0.00  0.00    +0.000 A 
ATOM      9  C   UNL     1       2.028   3.005  20.147  0.00  0.00    +0.000 A 
ATOM     10  C   UNL     1       3.077   3.674  19.494  0.00  0.00    +0.000 A 
BRANCH   9  11
ATOM     11  C   UNL     1       2.273   2.561  21.550  0.00  0.00    +0.000 C 
ATOM     12  N   UNL     1       1.238   2.593  22.440  0.00  0.00    +0.000 N 
ATOM     13  O   UNL     1       3.384   2.191  21.913  0.00  0.00    +0.000 OA
ATOM     14  H   UNL     1       0.311   2.929  22.244  0.00  0.00    +0.000 HD
ATOM     15  H   UNL     1       1.454   2.320  23.391  0.00  0.00    +0.000 HD
ENDBRANCH   9  11
ENDBRANCH   3   5
BRANCH   1  16
ATOM     16  C   UNL     1       5.274   6.900  17.058  0.00  0.00    +0.000 C 
BRANCH  16  18
ATOM     17  C   UNL     1       7.674   7.507  17.574  0.00  0.00    +0.000 C 
ATOM     18  C   UNL     1       6.637   6.362  17.536  0.00  0.00    +0.000 C 
ATOM     19  C   UNL     1       6.575   5.721  18.932  0.00  0.00    +0.000 C 
BRANCH  18  20
ATOM     20  C   UNL     1       7.107   5.310  16.526  0.00  0.00    +0.000 C 
ATOM     21  O   UNL     1       7.573   5.571  15.427  0.00  0.00    +0.000 OA
BRANCH  20  22
ATOM     22  O   UNL     1       6.937   4.028  16.922  0.00  0.00    +0.000 OA
ATOM     23  H   UNL     1       6.359   3.480  16.361  0.00  0.00    +0.000 HD
ENDBRANCH  20  22
ENDBRANCH  18  20
ENDBRANCH  16  18
ENDBRANCH   1  16
TORSDOF 6
ENDMDL
MODEL 4
REMARK VINA RESULT:      -7.1      2.391      6.473
REMARK  Name = 
REMARK  8 active torsions:
REMARK  status: ('A' for Active; 'I' for Inactive)
REMARK    1  A    between atoms: C_1  and  C_2
REMARK    2  A    between atoms: C_2  and  C_3
REMARK    3  A    between atoms: C_2  and  C_4
REMARK    4  A    between atoms: C_2  and  C_17
REMARK    5  A    between atoms: C_4  and  C_5
REMARK    6  A    between atoms: N_7  and  C_8
REMARK    7  A    between atoms: C_12  and  C_13
REMARK    8  A    between atoms: C_17  and  O_19
REMARK                            x       y       z     vdW  Elec       q    Type
REMARK                         _______ _______ _______ _____ _____    ______ ____
ROOT
ATOM      1  C   UNL     1       4.533   3.183  19.139  0.00  0.00    +0.000 C 
ATOM      2  O   UNL     1       5.465   3.575  19.834  0.00  0.00    +0.000 OA
ATOM      3  N   UNL     1       4.364   3.453  17.795  0.00  0.00    +0.000 N 
ATOM      4  H   UNL     1       3.417   3.433  17.436  0.00  0.00    +0.000 HD
ENDROOT
BRANCH   3   5
ATOM      5  C   UNL     1       5.311   4.158  17.029  0.00  0.00    +0.000 A 
ATOM      6  C   UNL     1       5.652   3.774  15.730  0.00  0.00    +0.000 A 
ATOM      7  C   UNL     1       6.600   4.502  15.011  0.00  0.00    +0.000 A 
ATOM      8  C   UNL     1       7.240   5.597  15.599  0.00  0.00    +0.000 A 
ATOM      9  C   UNL     1       6.911   5.981  16.906  0.00  0.00    +0.000 A 
ATOM     10  C   UNL     1       5.907   5.283  17.597  0.00  0.00    +0.000 A 
BRANCH   9  11
ATOM     11  C   UNL     1       7.601   7.082  17.639  0.00  0.00    +0.000 C 
ATOM     12  N   UNL     1       8.167   6.810  18.853  0.00  0.00    +0.000 N 
ATOM     13  O   UNL     1       7.649   8.217  17.180  0.00  0.00    +0.000 OA
ATOM     14  H   UNL     1       8.131   5.924  19.327  0.00  0.00    +0.000 HD
ATOM     15  H   UNL     1       8.592   7.592  19.336  0.00  0.00    +0.000 HD
ENDBRANCH   9  11
ENDBRANCH   3   5
BRANCH   1  16
ATOM     16  C   UNL     1       3.428   2.337  19.739  0.00  0.00    +0.000 C 
BRANCH  16  18
ATOM     17  C   UNL     1       1.692   2.661  21.549  0.00  0.00    +0.000 C 
ATOM     18  C   UNL     1       2.220   3.181  20.193  0.00  0.00    +0.000 C 
ATOM     19  C   UNL     1       2.552   4.674  20.344  0.00  0.00    +0.000 C 
BRANCH  18  20
ATOM     20  C   UNL     1       1.115   3.020  19.144  0.00  0.00    +0.000 C 
ATOM     21  O   UNL     1       1.288   3.131  17.939  0.00  0.00    +0.000 OA
BRANCH  20  22
ATOM     22  O   UNL     1      -0.115   2.773  19.649  0.00  0.00    +0.000 OA
ATOM     23  H   UNL     1      -0.444   3.413  20.306  0.00  0.00    +0.000 HD
ENDBRANCH  20  22
ENDBRANCH  18  20
ENDBRANCH  16  18
ENDBRANCH   1  16
TORSDOF 6
ENDMDL
MODEL 5
REMARK VINA RESULT:      -7.0      2.522      3.301
REMARK  Name = 
REMARK  8 active torsions:
REMARK  status: ('A' for Active; 'I' for Inactive)
REMARK    1  A    between atoms: C_1  and  C_2
REMARK    2  A    between atoms: C_2  and  C_3
REMARK    3  A    between atoms: C_2  and  C_4
REMARK    4  A    between atoms: C_2  and  C_17
REMARK    5  A    between atoms: C_4  and  C_5
REMARK    6  A    between atoms: N_7  and  C_8
REMARK    7  A    between atoms: C_12  and  C_13
REMARK    8  A    between atoms: C_17  and  O_19
REMARK                            x       y       z     vdW  Elec       q    Type
REMARK                         _______ _______ _______ _____ _____    ______ ____
ROOT
ATOM      1  C   UNL     1       4.849   3.902  17.523  0.00  0.00    +0.000 C 
ATOM      2  O   UNL     1       5.536   3.913  18.539  0.00  0.00    +0.000 OA
ATOM      3  N   UNL     1       3.487   4.126  17.471  0.00  0.00    +0.000 N 
ATOM      4  H   UNL     1       2.981   3.714  16.696  0.00  0.00    +0.000 HD
ENDROOT
BRANCH   3   5
ATOM      5  C   UNL     1       2.726   4.485  18.599  0.00  0.00    +0.000 A 
ATOM      6  C   UNL     1       2.023   3.541  19.352  0.00  0.00    +0.000 A 
ATOM      7  C   UNL     1       1.278   3.943  20.461  0.00  0.00    +0.000 A 
ATOM      8  C   UNL     1       1.201   5.297  20.802  0.00  0.00    +0.000 A 
ATOM      9  C   UNL     1       1.895   6.251  20.045  0.00  0.00    +0.000 A 
ATOM     10  C   UNL     1       2.696   5.827  18.972  0.00  0.00    +0.000 A 
BRANCH   9  11
ATOM     11  C   UNL     1       1.803   7.720  20.286  0.00  0.00    +0.000 C 
ATOM     12  N   UNL     1       1.733   8.172  21.573  0.00  0.00    +0.000 N 
ATOM     13  O   UNL     1       1.769   8.515  19.354  0.00  0.00    +0.000 OA
ATOM     14  H   UNL     1       1.702   7.591  22.394  0.00  0.00    +0.000 HD
ATOM     15  H   UNL     1       1.633   9.172  21.694  0.00  0.00    +0.000 HD
ENDBRANCH   9  11
ENDBRANCH   3   5
BRANCH   1  16
ATOM     16  C   UNL     1       5.475   3.612  16.173  0.00  0.00    +0.000 C 
BRANCH  16  18
ATOM     17  C   UNL     1       6.636   4.534  14.124  0.00  0.00    +0.000 C 
ATOM     18  C   UNL     1       6.131   4.860  15.548  0.00  0.00    +0.000 C 
ATOM     19  C   UNL     1       5.176   6.061  15.458  0.00  0.00    +0.000 C 
BRANCH  18  20
ATOM     20  C   UNL     1       7.332   5.243  16.417  0.00  0.00    +0.000 C 
ATOM     21  O   UNL     1       7.681   6.393  16.642  0.00  0.00    +0.000 OA
BRANCH  20  22
ATOM     22  O   UNL     1       8.032   4.196  16.911  0.00  0.00    +0.000 OA
ATOM     23  H   UNL     1       7.640   3.315  16.771  0.00  0.00    +0.000 HD
ENDBRANCH  20  22
ENDBRANCH  18  20
ENDBRANCH  16  18
ENDBRANCH   1  16
TORSDOF 6
ENDMDL
MODEL 6
REMARK VINA RESULT:      -6.9      2.209      6.472
REMARK  Name = 
REMARK  8 active torsions:
REMARK  status: ('A' for Active; 'I' for Inactive)
REMARK    1  A    between atoms: C_1  and  C_2
REMARK    2  A    between atoms: C_2  and  C_3
REMARK    3  A    between atoms: C_2  and  C_4
REMARK    4  A    between atoms: C_2  and  C_17
REMARK    5  A    between atoms: C_4  and  C_5
REMARK    6  A    between atoms: N_7  and  C_8
REMARK    7  A    between atoms: C_12  and  C_13
REMARK    8  A    between atoms: C_17  and  O_19
REMARK                            x       y       z     vdW  Elec       q    Type
REMARK                         _______ _______ _______ _____ _____    ______ ____
ROOT
ATOM      1  C   UNL     1       3.224   3.046  18.059  0.00  0.00    +0.000 C 
ATOM      2  O   UNL     1       2.565   3.383  17.080  0.00  0.00    +0.000 OA
ATOM      3  N   UNL     1       4.566   3.311  18.253  0.00  0.00    +0.000 N 
ATOM      4  H   UNL     1       5.079   2.677  18.854  0.00  0.00    +0.000 HD
ENDROOT
BRANCH   3   5
ATOM      5  C   UNL     1       5.330   4.091  17.365  0.00  0.00    +0.000 A 
ATOM      6  C   UNL     1       5.438   3.780  16.007  0.00  0.00    +0.000 A 
ATOM      7  C   UNL     1       6.210   4.581  15.165  0.00  0.00    +0.000 A 
ATOM      8  C   UNL     1       6.910   5.676  15.682  0.00  0.00    +0.000 A 
ATOM      9  C   UNL     1       6.816   5.986  17.045  0.00  0.00    +0.000 A 
ATOM     10  C   UNL     1       5.981   5.214  17.871  0.00  0.00    +0.000 A 
BRANCH   9  11
ATOM     11  C   UNL     1       7.591   7.082  17.696  0.00  0.00    +0.000 C 
ATOM     12  N   UNL     1       8.223   6.827  18.880  0.00  0.00    +0.000 N 
ATOM     13  O   UNL     1       7.649   8.200  17.197  0.00  0.00    +0.000 OA
ATOM     14  H   UNL     1       8.187   5.958  19.385  0.00  0.00    +0.000 HD
ATOM     15  H   UNL     1       8.706   7.607  19.308  0.00  0.00    +0.000 HD
ENDBRANCH   9  11
ENDBRANCH   3   5
BRANCH   1  16
ATOM     16  C   UNL     1       2.585   2.259  19.184  0.00  0.00    +0.000 C 
BRANCH  16  18
ATOM     17  C   UNL     1       2.488   4.574  20.198  0.00  0.00    +0.000 C 
ATOM     18  C   UNL     1       1.855   3.164  20.197  0.00  0.00    +0.000 C 
ATOM     19  C   UNL     1       0.354   3.309  19.900  0.00  0.00    +0.000 C 
BRANCH  18  20
ATOM     20  C   UNL     1       2.030   2.549  21.588  0.00  0.00    +0.000 C 
ATOM     21  O   UNL     1       1.126   2.413  22.400  0.00  0.00    +0.000 OA
BRANCH  20  22
ATOM     22  O   UNL     1       3.296   2.182  21.890  0.00  0.00    +0.000 OA
ATOM     23  H   UNL     1       3.919   2.907  22.077  0.00  0.00    +0.000 HD
ENDBRANCH  20  22
ENDBRANCH  18  20
ENDBRANCH  16  18
ENDBRANCH   1  16
TORSDOF 6
ENDMDL
MODEL 7
REMARK VINA RESULT:      -6.8      3.728      6.807
REMARK  Name = 
REMARK  8 active torsions:
REMARK  status: ('A' for Active; 'I' for Inactive)
REMARK    1  A    between atoms: C_1  and  C_2
REMARK    2  A    between atoms: C_2  and  C_3
REMARK    3  A    between atoms: C_2  and  C_4
REMARK    4  A    between atoms: C_2  and  C_17
REMARK    5  A    between atoms: C_4  and  C_5
REMARK    6  A    between atoms: N_7  and  C_8
REMARK    7  A    between atoms: C_12  and  C_13
REMARK    8  A    between atoms: C_17  and  O_19
REMARK                            x       y       z     vdW  Elec       q    Type
REMARK                         _______ _______ _______ _____ _____    ______ ____
ROOT
ATOM      1  C   UNL     1       5.419   6.225  16.101  0.00  0.00    +0.000 C 
ATOM      2  O   UNL     1       4.890   6.990  15.300  0.00  0.00    +0.000 OA
ATOM      3  N   UNL     1       6.229   5.155  15.775  0.00  0.00    +0.000 N 
ATOM      4  H   UNL     1       6.275   4.392  16.439  0.00  0.00    +0.000 HD
ENDROOT
BRANCH   3   5
ATOM      5  C   UNL     1       6.617   4.862  14.454  0.00  0.00    +0.000 A 
ATOM      6  C   UNL     1       7.692   5.504  13.835  0.00  0.00    +0.000 A 
ATOM      7  C   UNL     1       8.038   5.184  12.523  0.00  0.00    +0.000 A 
ATOM      8  C   UNL     1       7.288   4.245  11.807  0.00  0.00    +0.000 A 
ATOM      9  C   UNL     1       6.202   3.605  12.418  0.00  0.00    +0.000 A 
ATOM     10  C   UNL     1       5.904   3.886  13.762  0.00  0.00    +0.000 A 
BRANCH   9  11
ATOM     11  C   UNL     1       5.299   2.655  11.705  0.00  0.00    +0.000 C 
ATOM     12  N   UNL     1       4.046   3.073  11.358  0.00  0.00    +0.000 N 
ATOM     13  O   UNL     1       5.657   1.511  11.449  0.00  0.00    +0.000 OA
ATOM     14  H   UNL     1       3.651   3.973  11.573  0.00  0.00    +0.000 HD
ATOM     15  H   UNL     1       3.450   2.388  10.910  0.00  0.00    +0.000 HD
ENDBRANCH   9  11
ENDBRANCH   3   5
BRANCH   1  16
ATOM     16  C   UNL     1       5.201   6.399  17.591  0.00  0.00    +0.000 C 
BRANCH  16  18
ATOM     17  C   UNL     1       3.295   5.737  19.116  0.00  0.00    +0.000 C 
ATOM     18  C   UNL     1       4.439   5.214  18.217  0.00  0.00    +0.000 C 
ATOM     19  C   UNL     1       3.834   4.266  17.169  0.00  0.00    +0.000 C 
BRANCH  18  20
ATOM     20  C   UNL     1       5.425   4.429  19.087  0.00  0.00    +0.000 C 
ATOM     21  O   UNL     1       6.355   4.933  19.699  0.00  0.00    +0.000 OA
BRANCH  20  22
ATOM     22  O   UNL     1       5.219   3.092  19.112  0.00  0.00    +0.000 OA
ATOM     23  H   UNL     1       5.061   2.700  19.990  0.00  0.00    +0.000 HD
ENDBRANCH  20  22
ENDBRANCH  18  20
ENDBRANCH  16  18
ENDBRANCH   1  16
TORSDOF 6
ENDMDL
MODEL 8
REMARK VINA RESULT:      -6.8      2.152      6.242
REMARK  Name = 
REMARK  8 active torsions:
REMARK  status: ('A' for Active; 'I' for Inactive)
REMARK    1  A    between atoms: C_1  and  C_2
REMARK    2  A    between atoms: C_2  and  C_3
REMARK    3  A    between atoms: C_2  and  C_4
REMARK    4  A    between atoms: C_2  and  C_17
REMARK    5  A    between atoms: C_4  and  C_5
REMARK    6  A    between atoms: N_7  and  C_8
REMARK    7  A    between atoms: C_12  and  C_13
REMARK    8  A    between atoms: C_17  and  O_19
REMARK                            x       y       z     vdW  Elec       q    Type
REMARK                         _______ _______ _______ _____ _____    ______ ____
ROOT
ATOM      1  C   UNL     1       3.057   3.188  17.556  0.00  0.00    +0.000 C 
ATOM      2  O   UNL     1       2.499   3.751  16.619  0.00  0.00    +0.000 OA
ATOM      3  N   UNL     1       4.415   3.203  17.808  0.00  0.00    +0.000 N 
ATOM      4  H   UNL     1       4.795   2.421  18.329  0.00  0.00    +0.000 HD
ENDROOT
BRANCH   3   5
ATOM      5  C   UNL     1       5.328   3.955  17.047  0.00  0.00    +0.000 A 
ATOM      6  C   UNL     1       5.645   3.624  15.727  0.00  0.00    +0.000 A 
ATOM      7  C   UNL     1       6.560   4.397  15.012  0.00  0.00    +0.000 A 
ATOM      8  C   UNL     1       7.192   5.485  15.623  0.00  0.00    +0.000 A 
ATOM      9  C   UNL     1       6.887   5.815  16.951  0.00  0.00    +0.000 A 
ATOM     10  C   UNL     1       5.914   5.071  17.639  0.00  0.00    +0.000 A 
BRANCH   9  11
ATOM     11  C   UNL     1       7.572   6.903  17.706  0.00  0.00    +0.000 C 
ATOM     12  N   UNL     1       7.608   8.157  17.166  0.00  0.00    +0.000 N 
ATOM     13  O   UNL     1       8.114   6.683  18.784  0.00  0.00    +0.000 OA
ATOM     14  H   UNL     1       7.238   8.416  16.268  0.00  0.00    +0.000 HD
ATOM     15  H   UNL     1       8.115   8.859  17.691  0.00  0.00    +0.000 HD
ENDBRANCH   9  11
ENDBRANCH   3   5
BRANCH   1  16
ATOM     16  C   UNL     1       2.255   2.377  18.554  0.00  0.00    +0.000 C 
BRANCH  16  18
ATOM     17  C   UNL     1       2.186   4.670  19.618  0.00  0.00    +0.000 C 
ATOM     18  C   UNL     1       1.968   3.158  19.852  0.00  0.00    +0.000 C 
ATOM     19  C   UNL     1       0.536   2.952  20.373  0.00  0.00    +0.000 C 
BRANCH  18  20
ATOM     20  C   UNL     1       2.959   2.680  20.917  0.00  0.00    +0.000 C 
ATOM     21  O   UNL     1       4.076   2.248  20.673  0.00  0.00    +0.000 OA
BRANCH  20  22
ATOM     22  O   UNL     1       2.496   2.732  22.187  0.00  0.00    +0.000 OA
ATOM     23  H   UNL     1       2.063   1.925  22.518  0.00  0.00    +0.000 HD
ENDBRANCH  20  22
ENDBRANCH  18  20
ENDBRANCH  16  18
ENDBRANCH   1  16
TORSDOF 6
ENDMDL
MODEL 9
REMARK VINA RESULT:      -6.8      2.289      6.064
REMARK  Name = 
REMARK  8 active torsions:
REMARK  status: ('A' for Active; 'I' for Inactive)
REMARK    1  A    between atoms: C_1  and  C_2
REMARK    2  A    between atoms: C_2  and  C_3
REMARK    3  A    between atoms: C_2  and  C_4
REMARK    4  A    between atoms: C_2  and  C_17
REMARK    5  A    between atoms: C_4  and  C_5
REMARK    6  A    between atoms: N_7  and  C_8
REMARK    7  A    between atoms: C_12  and  C_13
REMARK    8  A    between atoms: C_17  and  O_19
REMARK                            x       y       z     vdW  Elec       q    Type
REMARK                         _______ _______ _______ _____ _____    ______ ____
ROOT
ATOM      1  C   UNL     1       2.739   4.896  17.798  0.00  0.00    +0.000 C 
ATOM      2  O   UNL     1       2.764   6.122  17.742  0.00  0.00    +0.000 OA
ATOM      3  N   UNL     1       3.703   4.049  17.287  0.00  0.00    +0.000 N 
ATOM      4  H   UNL     1       3.407   3.113  17.035  0.00  0.00    +0.000 HD
ENDROOT
BRANCH   3   5
ATOM      5  C   UNL     1       4.896   4.510  16.701  0.00  0.00    +0.000 A 
ATOM      6  C   UNL     1       5.378   3.998  15.494  0.00  0.00    +0.000 A 
ATOM      7  C   UNL     1       6.568   4.484  14.953  0.00  0.00    +0.000 A 
ATOM      8  C   UNL     1       7.305   5.458  15.634  0.00  0.00    +0.000 A 
ATOM      9  C   UNL     1       6.834   5.967  16.851  0.00  0.00    +0.000 A 
ATOM     10  C   UNL     1       5.600   5.521  17.353  0.00  0.00    +0.000 A 
BRANCH   9  11
ATOM     11  C   UNL     1       7.593   6.944  17.685  0.00  0.00    +0.000 C 
ATOM     12  N   UNL     1       8.059   6.546  18.905  0.00  0.00    +0.000 N 
ATOM     13  O   UNL     1       7.784   8.092  17.300  0.00  0.00    +0.000 OA
ATOM     14  H   UNL     1       7.904   5.644  19.322  0.00  0.00    +0.000 HD
ATOM     15  H   UNL     1       8.535   7.249  19.456  0.00  0.00    +0.000 HD
ENDBRANCH   9  11
ENDBRANCH   3   5
BRANCH   1  16
ATOM     16  C   UNL     1       1.578   4.179  18.457  0.00  0.00    +0.000 C 
BRANCH  16  18
ATOM     17  C   UNL     1       2.634   4.627  20.711  0.00  0.00    +0.000 C 
ATOM     18  C   UNL     1       1.962   3.561  19.816  0.00  0.00    +0.000 C 
ATOM     19  C   UNL     1       0.757   2.983  20.576  0.00  0.00    +0.000 C 
BRANCH  18  20
ATOM     20  C   UNL     1       2.969   2.438  19.553  0.00  0.00    +0.000 C 
ATOM     21  O   UNL     1       4.100   2.403  20.018  0.00  0.00    +0.000 OA
BRANCH  20  22
ATOM     22  O   UNL     1       2.532   1.468  18.718  0.00  0.00    +0.000 OA
ATOM     23  H   UNL     1       2.478   0.571  19.094  0.00  0.00    +0.000 HD
ENDBRANCH  20  22
ENDBRANCH  18  20
ENDBRANCH  16  18
ENDBRANCH   1  16
TORSDOF 6
ENDMDL
