MODEL 1
REMARK VINA RESULT:      -8.2      0.000      0.000
REMARK  Name = 
REMARK  7 active torsions:
REMARK  status: ('A' for Active; 'I' for Inactive)
REMARK    1  A    between atoms: C_1  and  S_2
REMARK    2  A    between atoms: S_2  and  C_3
REMARK    3  A    between atoms: C_3  and  C_4
REMARK    4  A    between atoms: C_4  and  C_5
REMARK    5  A    between atoms: C_5  and  C_6
REMARK    6  A    between atoms: C_5  and  N_16
REMARK    7  A    between atoms: N_8  and  C_9
REMARK                            x       y       z     vdW  Elec       q    Type
REMARK                         _______ _______ _______ _____ _____    ______ ____
ROOT
ATOM      1  C   UNL     1       5.707   6.274  17.674  0.00  0.00    +0.000 C 
ENDROOT
BRANCH   1   2
ATOM      2  N   UNL     1       4.551   5.581  18.260  0.00  0.00    +0.000 N 
ATOM      3  C   UNL     1       3.769   6.101  19.382  0.00  0.00    +0.000 C 
ATOM      4  C   UNL     1       2.733   5.040  19.566  0.00  0.00    +0.000 A 
ATOM      5  C   UNL     1       1.668   4.986  20.445  0.00  0.00    +0.000 A 
ATOM      6  C   UNL     1       0.817   3.876  20.387  0.00  0.00    +0.000 A 
ATOM      7  C   UNL     1       1.041   2.843  19.455  0.00  0.00    +0.000 A 
ATOM      8  C   UNL     1       2.128   2.894  18.582  0.00  0.00    +0.000 A 
ATOM      9  C   UNL     1       2.956   3.998  18.667  0.00  0.00    +0.000 A 
ATOM     10  C   UNL     1       4.144   4.320  17.871  0.00  0.00    +0.000 C 
ATOM     11  O   UNL     1       4.643   3.597  17.030  0.00  0.00    +0.000 OA
ENDBRANCH   1   2
BRANCH   1  12
ATOM     12  C   UNL     1       5.675   6.068  16.145  0.00  0.00    +0.000 C 
ATOM     13  O   UNL     1       4.998   6.805  15.427  0.00  0.00    +0.000 OA
ATOM     14  N   UNL     1       6.483   5.033  15.691  0.00  0.00    +0.000 N 
ATOM     15  H   UNL     1       6.797   4.353  16.376  0.00  0.00    +0.000 HD
BRANCH  14  16
ATOM     16  C   UNL     1       6.759   4.744  14.334  0.00  0.00    +0.000 A 
ATOM     17  C   UNL     1       7.685   5.475  13.579  0.00  0.00    +0.000 A 
ATOM     18  C   UNL     1       7.893   5.194  12.225  0.00  0.00    +0.000 A 
ATOM     19  C   UNL     1       7.175   4.173  11.610  0.00  0.00    +0.000 A 
ATOM     20  C   UNL     1       6.289   3.418  12.370  0.00  0.00    +0.000 A 
ATOM     21  F   UNL     1       5.601   2.432  11.780  0.00  0.00    +0.000 F 
ATOM     22  C   UNL     1       6.091   3.677  13.727  0.00  0.00    +0.000 A 
ENDBRANCH  14  16
ENDBRANCH   1  12
BRANCH   1  23
ATOM     23  C   UNL     1       7.010   5.760  18.308  0.00  0.00    +0.000 C 
BRANCH  23  24
ATOM     24  C   UNL     1       8.085   6.808  18.590  0.00  0.00    +0.000 C 
BRANCH  24  26
ATOM     25  C   UNL     1       8.715   9.477  18.749  0.00  0.00    +0.000 C 
ATOM     26  S   UNL     1       7.858   8.338  17.635  0.00  0.00    +0.000 S 
ENDBRANCH  24  26
ENDBRANCH  23  24
ENDBRANCH   1  23
TORSDOF 6
ENDMDL
MODEL 2
REMARK VINA RESULT:      -7.8      2.860      4.331
REMARK  Name = 
REMARK  7 active torsions:
REMARK  status: ('A' for Active; 'I' for Inactive)
REMARK    1  A    between atoms: C_1  and  S_2
REMARK    2  A    between atoms: S_2  and  C_3
REMARK    3  A    between atoms: C_3  and  C_4
REMARK    4  A    between atoms: C_4  and  C_5
REMARK    5  A    between atoms: C_5  and  C_6
REMARK    6  A    between atoms: C_5  and  N_16
REMARK    7  A    between atoms: N_8  and  C_9
REMARK                            x       y       z     vdW  Elec       q    Type
REMARK                         _______ _______ _______ _____ _____    ______ ____
ROOT
ATOM      1  C   UNL     1       4.706   4.130  18.025  0.00  0.00    +0.000 C 
ENDROOT
BRANCH   1   2
ATOM      2  N   UNL     1       3.933   5.352  18.289  0.00  0.00    +0.000 N 
ATOM      3  C   UNL     1       3.811   6.462  17.343  0.00  0.00    +0.000 C 
ATOM      4  C   UNL     1       2.932   7.416  18.084  0.00  0.00    +0.000 A 
ATOM      5  C   UNL     1       2.415   8.634  17.686  0.00  0.00    +0.000 A 
ATOM      6  C   UNL     1       1.579   9.321  18.575  0.00  0.00    +0.000 A 
ATOM      7  C   UNL     1       1.274   8.782  19.841  0.00  0.00    +0.000 A 
ATOM      8  C   UNL     1       1.814   7.560  20.245  0.00  0.00    +0.000 A 
ATOM      9  C   UNL     1       2.641   6.908  19.349  0.00  0.00    +0.000 A 
ATOM     10  C   UNL     1       3.321   5.618  19.498  0.00  0.00    +0.000 C 
ATOM     11  O   UNL     1       3.317   4.934  20.503  0.00  0.00    +0.000 OA
ENDBRANCH   1   2
BRANCH   1  12
ATOM     12  C   UNL     1       5.678   4.411  16.860  0.00  0.00    +0.000 C 
ATOM     13  O   UNL     1       6.842   4.747  17.081  0.00  0.00    +0.000 OA
ATOM     14  N   UNL     1       5.129   4.215  15.599  0.00  0.00    +0.000 N 
ATOM     15  H   UNL     1       4.116   4.178  15.533  0.00  0.00    +0.000 HD
BRANCH  14  16
ATOM     16  C   UNL     1       5.845   4.244  14.379  0.00  0.00    +0.000 A 
ATOM     17  C   UNL     1       5.472   3.480  13.266  0.00  0.00    +0.000 A 
ATOM     18  C   UNL     1       6.236   3.494  12.094  0.00  0.00    +0.000 A 
ATOM     19  C   UNL     1       7.383   4.276  12.023  0.00  0.00    +0.000 A 
ATOM     20  C   UNL     1       7.729   5.069  13.111  0.00  0.00    +0.000 A 
ATOM     21  F   UNL     1       8.832   5.827  13.042  0.00  0.00    +0.000 F 
ATOM     22  C   UNL     1       6.962   5.079  14.277  0.00  0.00    +0.000 A 
ENDBRANCH  14  16
ENDBRANCH   1  12
BRANCH   1  23
ATOM     23  C   UNL     1       3.758   2.957  17.729  0.00  0.00    +0.000 C 
BRANCH  23  24
ATOM     24  C   UNL     1       3.537   1.961  18.865  0.00  0.00    +0.000 C 
BRANCH  24  26
ATOM     25  C   UNL     1       1.125   3.171  18.348  0.00  0.00    +0.000 C 
ATOM     26  S   UNL     1       1.810   1.890  19.427  0.00  0.00    +0.000 S 
ENDBRANCH  24  26
ENDBRANCH  23  24
ENDBRANCH   1  23
TORSDOF 6
ENDMDL
MODEL 3
REMARK VINA RESULT:      -7.7      1.245      1.573
REMARK  Name = 
REMARK  7 active torsions:
REMARK  status: ('A' for Active; 'I' for Inactive)
REMARK    1  A    between atoms: C_1  and  S_2
REMARK    2  A    between atoms: S_2  and  C_3
REMARK    3  A    between atoms: C_3  and  C_4
REMARK    4  A    between atoms: C_4  and  C_5
REMARK    5  A    between atoms: C_5  and  C_6
REMARK    6  A    between atoms: C_5  and  N_16
REMARK    7  A    between atoms: N_8  and  C_9
REMARK                            x       y       z     vdW  Elec       q    Type
REMARK                         _______ _______ _______ _____ _____    ______ ____
ROOT
ATOM      1  C   UNL     1       5.687   6.281  18.177  0.00  0.00    +0.000 C 
ENDROOT
BRANCH   1   2
ATOM      2  N   UNL     1       4.622   5.515  18.840  0.00  0.00    +0.000 N 
ATOM      3  C   UNL     1       3.384   6.107  19.347  0.00  0.00    +0.000 C 
ATOM      4  C   UNL     1       2.666   4.919  19.900  0.00  0.00    +0.000 A 
ATOM      5  C   UNL     1       1.411   4.831  20.472  0.00  0.00    +0.000 A 
ATOM      6  C   UNL     1       0.959   3.571  20.884  0.00  0.00    +0.000 A 
ATOM      7  C   UNL     1       1.763   2.426  20.718  0.00  0.00    +0.000 A 
ATOM      8  C   UNL     1       3.037   2.524  20.156  0.00  0.00    +0.000 A 
ATOM      9  C   UNL     1       3.460   3.781  19.765  0.00  0.00    +0.000 A 
ATOM     10  C   UNL     1       4.725   4.170  19.137  0.00  0.00    +0.000 C 
ATOM     11  O   UNL     1       5.662   3.425  18.924  0.00  0.00    +0.000 OA
ENDBRANCH   1   2
BRANCH   1  12
ATOM     12  C   UNL     1       5.556   6.077  16.653  0.00  0.00    +0.000 C 
ATOM     13  O   UNL     1       4.849   6.827  15.978  0.00  0.00    +0.000 OA
ATOM     14  N   UNL     1       6.318   5.029  16.149  0.00  0.00    +0.000 N 
ATOM     15  H   UNL     1       6.662   4.343  16.814  0.00  0.00    +0.000 HD
BRANCH  14  16
ATOM     16  C   UNL     1       6.504   4.736  14.778  0.00  0.00    +0.000 A 
ATOM     17  C   UNL     1       5.789   3.729  14.117  0.00  0.00    +0.000 A 
ATOM     18  C   UNL     1       6.039   3.432  12.773  0.00  0.00    +0.000 A 
ATOM     19  C   UNL     1       7.008   4.143  12.074  0.00  0.00    +0.000 A 
ATOM     20  C   UNL     1       7.686   5.172  12.717  0.00  0.00    +0.000 A 
ATOM     21  F   UNL     1       8.617   5.861  12.043  0.00  0.00    +0.000 F 
ATOM     22  C   UNL     1       7.430   5.491  14.052  0.00  0.00    +0.000 A 
ENDBRANCH  14  16
ENDBRANCH   1  12
BRANCH   1  23
ATOM     23  C   UNL     1       7.062   5.848  18.711  0.00  0.00    +0.000 C 
BRANCH  23  24
ATOM     24  C   UNL     1       8.178   6.887  18.626  0.00  0.00    +0.000 C 
BRANCH  24  26
ATOM     25  C   UNL     1       8.729   9.579  18.589  0.00  0.00    +0.000 C 
ATOM     26  S   UNL     1       7.695   8.381  17.711  0.00  0.00    +0.000 S 
ENDBRANCH  24  26
ENDBRANCH  23  24
ENDBRANCH   1  23
TORSDOF 6
ENDMDL
MODEL 4
REMARK VINA RESULT:      -7.7      1.225      1.579
REMARK  Name = 
REMARK  7 active torsions:
REMARK  status: ('A' for Active; 'I' for Inactive)
REMARK    1  A    between atoms: C_1  and  S_2
REMARK    2  A    between atoms: S_2  and  C_3
REMARK    3  A    between atoms: C_3  and  C_4
REMARK    4  A    between atoms: C_4  and  C_5
REMARK    5  A    between atoms: C_5  and  C_6
REMARK    6  A    between atoms: C_5  and  N_16
REMARK    7  A    between atoms: N_8  and  C_9
REMARK                            x       y       z     vdW  Elec       q    Type
REMARK                         _______ _______ _______ _____ _____    ______ ____
ROOT
ATOM      1  C   UNL     1       5.600   6.868  17.401  0.00  0.00    +0.000 C 
ENDROOT
BRANCH   1   2
ATOM      2  N   UNL     1       4.782   5.934  18.188  0.00  0.00    +0.000 N 
ATOM      3  C   UNL     1       5.262   4.643  18.680  0.00  0.00    +0.000 C 
ATOM      4  C   UNL     1       4.068   4.117  19.408  0.00  0.00    +0.000 A 
ATOM      5  C   UNL     1       3.918   2.951  20.135  0.00  0.00    +0.000 A 
ATOM      6  C   UNL     1       2.685   2.711  20.754  0.00  0.00    +0.000 A 
ATOM      7  C   UNL     1       1.627   3.635  20.637  0.00  0.00    +0.000 A 
ATOM      8  C   UNL     1       1.778   4.802  19.886  0.00  0.00    +0.000 A 
ATOM      9  C   UNL     1       3.004   5.009  19.281  0.00  0.00    +0.000 A 
ATOM     10  C   UNL     1       3.444   6.141  18.461  0.00  0.00    +0.000 C 
ATOM     11  O   UNL     1       2.743   7.072  18.115  0.00  0.00    +0.000 OA
ENDBRANCH   1   2
BRANCH   1  12
ATOM     12  C   UNL     1       5.549   6.432  15.921  0.00  0.00    +0.000 C 
ATOM     13  O   UNL     1       4.840   7.033  15.114  0.00  0.00    +0.000 OA
ATOM     14  N   UNL     1       6.381   5.363  15.612  0.00  0.00    +0.000 N 
ATOM     15  H   UNL     1       6.726   4.803  16.386  0.00  0.00    +0.000 HD
BRANCH  14  16
ATOM     16  C   UNL     1       6.644   4.878  14.310  0.00  0.00    +0.000 A 
ATOM     17  C   UNL     1       7.669   5.393  13.505  0.00  0.00    +0.000 A 
ATOM     18  C   UNL     1       7.864   4.925  12.201  0.00  0.00    +0.000 A 
ATOM     19  C   UNL     1       7.035   3.933  11.689  0.00  0.00    +0.000 A 
ATOM     20  C   UNL     1       6.047   3.391  12.502  0.00  0.00    +0.000 A 
ATOM     21  F   UNL     1       5.251   2.432  12.010  0.00  0.00    +0.000 F 
ATOM     22  C   UNL     1       5.857   3.836  13.811  0.00  0.00    +0.000 A 
ENDBRANCH  14  16
ENDBRANCH   1  12
BRANCH   1  23
ATOM     23  C   UNL     1       7.035   6.910  17.952  0.00  0.00    +0.000 C 
BRANCH  23  24
ATOM     24  C   UNL     1       7.896   8.090  17.508  0.00  0.00    +0.000 C 
BRANCH  24  26
ATOM     25  C   UNL     1       8.992  10.540  18.099  0.00  0.00    +0.000 C 
ATOM     26  S   UNL     1       8.713   8.939  18.894  0.00  0.00    +0.000 S 
ENDBRANCH  24  26
ENDBRANCH  23  24
ENDBRANCH   1  23
TORSDOF 6
ENDMDL
MODEL 5
REMARK VINA RESULT:      -7.6      2.735      4.257
REMARK  Name = 
REMARK  7 active torsions:
REMARK  status: ('A' for Active; 'I' for Inactive)
REMARK    1  A    between atoms: C_1  and  S_2
REMARK    2  A    between atoms: S_2  and  C_3
REMARK    3  A    between atoms: C_3  and  C_4
REMARK    4  A    between atoms: C_4  and  C_5
REMARK    5  A    between atoms: C_5  and  C_6
REMARK    6  A    between atoms: C_5  and  N_16
REMARK    7  A    between atoms: N_8  and  C_9
REMARK                            x       y       z     vdW  Elec       q    Type
REMARK                         _______ _______ _______ _____ _____    ______ ____
ROOT
ATOM      1  C   UNL     1       4.428   4.324  18.029  0.00  0.00    +0.000 C 
ENDROOT
BRANCH   1   2
ATOM      2  N   UNL     1       3.691   5.566  18.305  0.00  0.00    +0.000 N 
ATOM      3  C   UNL     1       3.564   6.669  17.352  0.00  0.00    +0.000 C 
ATOM      4  C   UNL     1       2.731   7.650  18.110  0.00  0.00    +0.000 A 
ATOM      5  C   UNL     1       2.229   8.875  17.717  0.00  0.00    +0.000 A 
ATOM      6  C   UNL     1       1.438   9.589  18.625  0.00  0.00    +0.000 A 
ATOM      7  C   UNL     1       1.162   9.069  19.906  0.00  0.00    +0.000 A 
ATOM      8  C   UNL     1       1.687   7.839  20.305  0.00  0.00    +0.000 A 
ATOM      9  C   UNL     1       2.470   7.160  19.390  0.00  0.00    +0.000 A 
ATOM     10  C   UNL     1       3.125   5.857  19.530  0.00  0.00    +0.000 C 
ATOM     11  O   UNL     1       3.138   5.182  20.541  0.00  0.00    +0.000 OA
ENDBRANCH   1   2
BRANCH   1  12
ATOM     12  C   UNL     1       5.468   4.609  16.925  0.00  0.00    +0.000 C 
ATOM     13  O   UNL     1       6.575   5.069  17.208  0.00  0.00    +0.000 OA
ATOM     14  N   UNL     1       5.048   4.271  15.644  0.00  0.00    +0.000 N 
ATOM     15  H   UNL     1       4.052   4.134  15.502  0.00  0.00    +0.000 HD
BRANCH  14  16
ATOM     16  C   UNL     1       5.861   4.279  14.486  0.00  0.00    +0.000 A 
ATOM     17  C   UNL     1       6.953   5.142  14.336  0.00  0.00    +0.000 A 
ATOM     18  C   UNL     1       7.702   5.158  13.155  0.00  0.00    +0.000 A 
ATOM     19  C   UNL     1       7.365   4.307  12.109  0.00  0.00    +0.000 A 
ATOM     20  C   UNL     1       6.309   3.419  12.274  0.00  0.00    +0.000 A 
ATOM     21  F   UNL     1       5.986   2.594  11.267  0.00  0.00    +0.000 F 
ATOM     22  C   UNL     1       5.569   3.380  13.456  0.00  0.00    +0.000 A 
ENDBRANCH  14  16
ENDBRANCH   1  12
BRANCH   1  23
ATOM     23  C   UNL     1       3.450   3.203  17.638  0.00  0.00    +0.000 C 
BRANCH  23  24
ATOM     24  C   UNL     1       3.011   2.266  18.762  0.00  0.00    +0.000 C 
BRANCH  24  26
ATOM     25  C   UNL     1       1.307   2.568  20.897  0.00  0.00    +0.000 C 
ATOM     26  S   UNL     1       1.227   2.347  19.102  0.00  0.00    +0.000 S 
ENDBRANCH  24  26
ENDBRANCH  23  24
ENDBRANCH   1  23
TORSDOF 6
ENDMDL
MODEL 6
REMARK VINA RESULT:      -7.4      1.439      1.959
REMARK  Name = 
REMARK  7 active torsions:
REMARK  status: ('A' for Active; 'I' for Inactive)
REMARK    1  A    between atoms: C_1  and  S_2
REMARK    2  A    between atoms: S_2  and  C_3
REMARK    3  A    between atoms: C_3  and  C_4
REMARK    4  A    between atoms: C_4  and  C_5
REMARK    5  A    between atoms: C_5  and  C_6
REMARK    6  A    between atoms: C_5  and  N_16
REMARK    7  A    between atoms: N_8  and  C_9
REMARK                            x       y       z     vdW  Elec       q    Type
REMARK                         _______ _______ _______ _____ _____    ______ ____
ROOT
ATOM      1  C   UNL     1       6.237   5.574  17.225  0.00  0.00    +0.000 C 
ENDROOT
BRANCH   1   2
ATOM      2  N   UNL     1       5.018   4.886  17.675  0.00  0.00    +0.000 N 
ATOM      3  C   UNL     1       4.845   3.433  17.654  0.00  0.00    +0.000 C 
ATOM      4  C   UNL     1       3.469   3.269  18.212  0.00  0.00    +0.000 A 
ATOM      5  C   UNL     1       2.758   2.117  18.489  0.00  0.00    +0.000 A 
ATOM      6  C   UNL     1       1.481   2.245  19.048  0.00  0.00    +0.000 A 
ATOM      7  C   UNL     1       0.937   3.517  19.321  0.00  0.00    +0.000 A 
ATOM      8  C   UNL     1       1.652   4.677  19.022  0.00  0.00    +0.000 A 
ATOM      9  C   UNL     1       2.908   4.520  18.465  0.00  0.00    +0.000 A 
ATOM     10  C   UNL     1       3.875   5.549  18.074  0.00  0.00    +0.000 C 
ATOM     11  O   UNL     1       3.680   6.749  18.117  0.00  0.00    +0.000 OA
ENDBRANCH   1   2
BRANCH   1  12
ATOM     12  C   UNL     1       6.668   4.966  15.874  0.00  0.00    +0.000 C 
ATOM     13  O   UNL     1       7.829   4.596  15.693  0.00  0.00    +0.000 OA
ATOM     14  N   UNL     1       5.641   4.856  14.943  0.00  0.00    +0.000 N 
ATOM     15  H   UNL     1       4.803   5.405  15.109  0.00  0.00    +0.000 HD
BRANCH  14  16
ATOM     16  C   UNL     1       5.730   4.190  13.699  0.00  0.00    +0.000 A 
ATOM     17  C   UNL     1       6.954   3.924  13.071  0.00  0.00    +0.000 A 
ATOM     18  C   UNL     1       7.000   3.310  11.814  0.00  0.00    +0.000 A 
ATOM     19  C   UNL     1       5.819   2.954  11.173  0.00  0.00    +0.000 A 
ATOM     20  C   UNL     1       4.607   3.176  11.816  0.00  0.00    +0.000 A 
ATOM     21  F   UNL     1       3.469   2.829  11.200  0.00  0.00    +0.000 F 
ATOM     22  C   UNL     1       4.551   3.769  13.078  0.00  0.00    +0.000 A 
ENDBRANCH  14  16
ENDBRANCH   1  12
BRANCH   1  23
ATOM     23  C   UNL     1       7.335   5.461  18.296  0.00  0.00    +0.000 C 
BRANCH  23  24
ATOM     24  C   UNL     1       8.030   6.762  18.691  0.00  0.00    +0.000 C 
BRANCH  24  26
ATOM     25  C   UNL     1       8.577   9.442  18.428  0.00  0.00    +0.000 C 
ATOM     26  S   UNL     1       7.636   8.148  17.582  0.00  0.00    +0.000 S 
ENDBRANCH  24  26
ENDBRANCH  23  24
ENDBRANCH   1  23
TORSDOF 6
ENDMDL
MODEL 7
REMARK VINA RESULT:      -7.3      1.523      1.938
REMARK  Name = 
REMARK  7 active torsions:
REMARK  status: ('A' for Active; 'I' for Inactive)
REMARK    1  A    between atoms: C_1  and  S_2
REMARK    2  A    between atoms: S_2  and  C_3
REMARK    3  A    between atoms: C_3  and  C_4
REMARK    4  A    between atoms: C_4  and  C_5
REMARK    5  A    between atoms: C_5  and  C_6
REMARK    6  A    between atoms: C_5  and  N_16
REMARK    7  A    between atoms: N_8  and  C_9
REMARK                            x       y       z     vdW  Elec       q    Type
REMARK                         _______ _______ _______ _____ _____    ______ ____
ROOT
ATOM      1  C   UNL     1       6.231   6.477  17.139  0.00  0.00    +0.000 C 
ENDROOT
BRANCH   1   2
ATOM      2  N   UNL     1       5.283   5.740  17.988  0.00  0.00    +0.000 N 
ATOM      3  C   UNL     1       5.538   4.404  18.528  0.00  0.00    +0.000 C 
ATOM      4  C   UNL     1       4.293   4.133  19.307  0.00  0.00    +0.000 A 
ATOM      5  C   UNL     1       3.958   3.046  20.091  0.00  0.00    +0.000 A 
ATOM      6  C   UNL     1       2.722   3.058  20.749  0.00  0.00    +0.000 A 
ATOM      7  C   UNL     1       1.844   4.153  20.614  0.00  0.00    +0.000 A 
ATOM      8  C   UNL     1       2.179   5.240  19.806  0.00  0.00    +0.000 A 
ATOM      9  C   UNL     1       3.403   5.197  19.164  0.00  0.00    +0.000 A 
ATOM     10  C   UNL     1       4.014   6.196  18.282  0.00  0.00    +0.000 C 
ATOM     11  O   UNL     1       3.481   7.223  17.910  0.00  0.00    +0.000 OA
ENDBRANCH   1   2
BRANCH   1  12
ATOM     12  C   UNL     1       6.738   5.525  16.036  0.00  0.00    +0.000 C 
ATOM     13  O   UNL     1       7.677   4.757  16.251  0.00  0.00    +0.000 OA
ATOM     14  N   UNL     1       6.027   5.601  14.844  0.00  0.00    +0.000 N 
ATOM     15  H   UNL     1       5.446   6.422  14.701  0.00  0.00    +0.000 HD
BRANCH  14  16
ATOM     16  C   UNL     1       6.180   4.730  13.740  0.00  0.00    +0.000 A 
ATOM     17  C   UNL     1       7.415   4.516  13.113  0.00  0.00    +0.000 A 
ATOM     18  C   UNL     1       7.518   3.688  11.991  0.00  0.00    +0.000 A 
ATOM     19  C   UNL     1       6.384   3.062  11.484  0.00  0.00    +0.000 A 
ATOM     20  C   UNL     1       5.168   3.239  12.132  0.00  0.00    +0.000 A 
ATOM     21  F   UNL     1       4.075   2.633  11.647  0.00  0.00    +0.000 F 
ATOM     22  C   UNL     1       5.058   4.046  13.266  0.00  0.00    +0.000 A 
ENDBRANCH  14  16
ENDBRANCH   1  12
BRANCH   1  23
ATOM     23  C   UNL     1       7.375   7.047  17.994  0.00  0.00    +0.000 C 
BRANCH  23  24
ATOM     24  C   UNL     1       7.885   8.433  17.605  0.00  0.00    +0.000 C 
BRANCH  24  26
ATOM     25  C   UNL     1       9.064  10.856  18.141  0.00  0.00    +0.000 C 
ATOM     26  S   UNL     1       8.835   9.241  18.927  0.00  0.00    +0.000 S 
ENDBRANCH  24  26
ENDBRANCH  23  24
ENDBRANCH   1  23
TORSDOF 6
ENDMDL
MODEL 8
REMARK VINA RESULT:      -7.2      4.480      8.163
REMARK  Name = 
REMARK  7 active torsions:
REMARK  status: ('A' for Active; 'I' for Inactive)
REMARK    1  A    between atoms: C_1  and  S_2
REMARK    2  A    between atoms: S_2  and  C_3
REMARK    3  A    between atoms: C_3  and  C_4
REMARK    4  A    between atoms: C_4  and  C_5
REMARK    5  A    between atoms: C_5  and  C_6
REMARK    6  A    between atoms: C_5  and  N_16
REMARK    7  A    between atoms: N_8  and  C_9
REMARK                            x       y       z     vdW  Elec       q    Type
REMARK                         _______ _______ _______ _____ _____    ______ ____
ROOT
ATOM      1  C   UNL     1       2.317   5.408  19.783  0.00  0.00    +0.000 C 
ENDROOT
BRANCH   1   2
ATOM      2  N   UNL     1       3.516   5.187  18.962  0.00  0.00    +0.000 N 
ATOM      3  C   UNL     1       4.872   5.536  19.386  0.00  0.00    +0.000 C 
ATOM      4  C   UNL     1       5.693   5.103  18.216  0.00  0.00    +0.000 A 
ATOM      5  C   UNL     1       7.063   5.125  18.039  0.00  0.00    +0.000 A 
ATOM      6  C   UNL     1       7.584   4.622  16.841  0.00  0.00    +0.000 A 
ATOM      7  C   UNL     1       6.732   4.107  15.843  0.00  0.00    +0.000 A 
ATOM      8  C   UNL     1       5.348   4.104  16.019  0.00  0.00    +0.000 A 
ATOM      9  C   UNL     1       4.861   4.614  17.209  0.00  0.00    +0.000 A 
ATOM     10  C   UNL     1       3.472   4.715  17.665  0.00  0.00    +0.000 C 
ATOM     11  O   UNL     1       2.494   4.422  17.006  0.00  0.00    +0.000 OA
ENDBRANCH   1   2
BRANCH   1  12
ATOM     12  C   UNL     1       2.071   6.928  19.887  0.00  0.00    +0.000 C 
ATOM     13  O   UNL     1       2.456   7.688  18.998  0.00  0.00    +0.000 OA
ATOM     14  N   UNL     1       1.368   7.317  21.021  0.00  0.00    +0.000 N 
ATOM     15  H   UNL     1       1.317   6.652  21.787  0.00  0.00    +0.000 HD
BRANCH  14  16
ATOM     16  C   UNL     1       0.873   8.618  21.273  0.00  0.00    +0.000 A 
ATOM     17  C   UNL     1       0.380   9.009  22.524  0.00  0.00    +0.000 A 
ATOM     18  C   UNL     1      -0.151  10.288  22.721  0.00  0.00    +0.000 A 
ATOM     19  C   UNL     1      -0.192  11.192  21.666  0.00  0.00    +0.000 A 
ATOM     20  C   UNL     1       0.339  10.820  20.436  0.00  0.00    +0.000 A 
ATOM     21  F   UNL     1       0.304  11.693  19.420  0.00  0.00    +0.000 F 
ATOM     22  C   UNL     1       0.890   9.554  20.235  0.00  0.00    +0.000 A 
ENDBRANCH  14  16
ENDBRANCH   1  12
BRANCH   1  23
ATOM     23  C   UNL     1       2.488   4.746  21.160  0.00  0.00    +0.000 C 
BRANCH  23  24
ATOM     24  C   UNL     1       1.723   3.443  21.385  0.00  0.00    +0.000 C 
BRANCH  24  26
ATOM     25  C   UNL     1       2.165   1.757  19.261  0.00  0.00    +0.000 C 
ATOM     26  S   UNL     1       0.869   2.851  19.893  0.00  0.00    +0.000 S 
ENDBRANCH  24  26
ENDBRANCH  23  24
ENDBRANCH   1  23
TORSDOF 6
ENDMDL
MODEL 9
REMARK VINA RESULT:      -7.0      2.144      6.520
REMARK  Name = 
REMARK  7 active torsions:
REMARK  status: ('A' for Active; 'I' for Inactive)
REMARK    1  A    between atoms: C_1  and  S_2
REMARK    2  A    between atoms: S_2  and  C_3
REMARK    3  A    between atoms: C_3  and  C_4
REMARK    4  A    between atoms: C_4  and  C_5
REMARK    5  A    between atoms: C_5  and  C_6
REMARK    6  A    between atoms: C_5  and  N_16
REMARK    7  A    between atoms: N_8  and  C_9
REMARK                            x       y       z     vdW  Elec       q    Type
REMARK                         _______ _______ _______ _____ _____    ______ ____
ROOT
ATOM      1  C   UNL     1       6.157   5.502  17.251  0.00  0.00    +0.000 C 
ENDROOT
BRANCH   1   2
ATOM      2  N   UNL     1       6.136   4.972  15.880  0.00  0.00    +0.000 N 
ATOM      3  C   UNL     1       5.102   4.073  15.368  0.00  0.00    +0.000 C 
ATOM      4  C   UNL     1       5.539   3.856  13.956  0.00  0.00    +0.000 A 
ATOM      5  C   UNL     1       4.936   3.135  12.944  0.00  0.00    +0.000 A 
ATOM      6  C   UNL     1       5.548   3.122  11.685  0.00  0.00    +0.000 A 
ATOM      7  C   UNL     1       6.748   3.826  11.459  0.00  0.00    +0.000 A 
ATOM      8  C   UNL     1       7.363   4.537  12.490  0.00  0.00    +0.000 A 
ATOM      9  C   UNL     1       6.739   4.527  13.724  0.00  0.00    +0.000 A 
ATOM     10  C   UNL     1       7.144   5.195  14.964  0.00  0.00    +0.000 C 
ATOM     11  O   UNL     1       8.172   5.825  15.118  0.00  0.00    +0.000 OA
ENDBRANCH   1   2
BRANCH   1  12
ATOM     12  C   UNL     1       5.233   4.628  18.125  0.00  0.00    +0.000 C 
ATOM     13  O   UNL     1       5.700   3.738  18.837  0.00  0.00    +0.000 OA
ATOM     14  N   UNL     1       3.888   4.968  18.051  0.00  0.00    +0.000 N 
ATOM     15  H   UNL     1       3.596   5.543  17.266  0.00  0.00    +0.000 HD
BRANCH  14  16
ATOM     16  C   UNL     1       2.862   4.438  18.868  0.00  0.00    +0.000 A 
ATOM     17  C   UNL     1       2.671   4.840  20.196  0.00  0.00    +0.000 A 
ATOM     18  C   UNL     1       1.680   4.255  20.990  0.00  0.00    +0.000 A 
ATOM     19  C   UNL     1       0.864   3.261  20.461  0.00  0.00    +0.000 A 
ATOM     20  C   UNL     1       1.023   2.894  19.130  0.00  0.00    +0.000 A 
ATOM     21  F   UNL     1       0.235   1.938  18.618  0.00  0.00    +0.000 F 
ATOM     22  C   UNL     1       1.996   3.486  18.323  0.00  0.00    +0.000 A 
ENDBRANCH  14  16
ENDBRANCH   1  12
BRANCH   1  23
ATOM     23  C   UNL     1       5.741   6.982  17.254  0.00  0.00    +0.000 C 
BRANCH  23  24
ATOM     24  C   UNL     1       6.866   8.002  17.090  0.00  0.00    +0.000 C 
BRANCH  24  26
ATOM     25  C   UNL     1       8.654   9.588  18.445  0.00  0.00    +0.000 C 
ATOM     26  S   UNL     1       8.159   7.849  18.359  0.00  0.00    +0.000 S 
ENDBRANCH  24  26
ENDBRANCH  23  24
ENDBRANCH   1  23
TORSDOF 6
ENDMDL
