MODEL 1
REMARK VINA RESULT:      -8.7      0.000      0.000
REMARK  Name = 
REMARK  8 active torsions:
REMARK  status: ('A' for Active; 'I' for Inactive)
REMARK    1  A    between atoms: C_1  and  O_2
REMARK    2  A    between atoms: O_2  and  C_3
REMARK    3  A    between atoms: C_5  and  N_6
REMARK    4  A    between atoms: N_6  and  S_7
REMARK    5  A    between atoms: S_7  and  C_10
REMARK    6  A    between atoms: C_13  and  C_14
REMARK    7  A    between atoms: C_19  and  C_20
REMARK    8  A    between atoms: C_25  and  C_26
REMARK                            x       y       z     vdW  Elec       q    Type
REMARK                         _______ _______ _______ _____ _____    ______ ____
ROOT
ATOM      1  C   UNL     1       1.807   7.885  20.114  0.00  0.00    +0.000 A 
ATOM      2  C   UNL     1       2.218   6.539  20.087  0.00  0.00    +0.000 A 
ATOM      3  C   UNL     1       2.789   5.990  18.941  0.00  0.00    +0.000 A 
ATOM      4  C   UNL     1       2.898   6.749  17.787  0.00  0.00    +0.000 A 
ATOM      5  C   UNL     1       2.413   8.057  17.778  0.00  0.00    +0.000 A 
ATOM      6  C   UNL     1       1.863   8.650  18.934  0.00  0.00    +0.000 A 
ENDROOT
BRANCH   6   7
ATOM      7  C   UNL     1       1.430  10.081  18.780  0.00  0.00    +0.000 C 
ATOM      8  O   UNL     1       1.998  10.752  17.919  0.00  0.00    +0.000 OA
ATOM      9  N   UNL     1       0.398  10.532  19.570  0.00  0.00    +0.000 N 
ATOM     10  C   UNL     1       0.013  11.848  19.545  0.00  0.00    +0.000 A 
ATOM     11  N   UNL     1       0.612  12.871  18.988  0.00  0.00    +0.000 NA
ATOM     12  C   UNL     1      -0.095  14.037  19.234  0.00  0.00    +0.000 A 
ATOM     13  C   UNL     1      -1.278  13.848  19.924  0.00  0.00    +0.000 A 
ATOM     14  S   UNL     1      -1.437  12.194  20.376  0.00  0.00    +0.000 S 
ATOM     15  H   UNL     1      -0.112   9.893  20.164  0.00  0.00    +0.000 HD
BRANCH  12  16
ATOM     16  C   UNL     1       0.406  15.334  18.781  0.00  0.00    +0.000 A 
ATOM     17  C   UNL     1       1.788  15.541  18.652  0.00  0.00    +0.000 A 
ATOM     18  C   UNL     1       2.291  16.783  18.250  0.00  0.00    +0.000 A 
ATOM     19  C   UNL     1       1.420  17.836  17.981  0.00  0.00    +0.000 A 
ATOM     20  C   UNL     1       0.046  17.648  18.116  0.00  0.00    +0.000 A 
ATOM     21  C   UNL     1      -0.459  16.406  18.511  0.00  0.00    +0.000 A 
ENDBRANCH  12  16
ENDBRANCH   6   7
BRANCH   1  23
ATOM     22  C   UNL     1       0.011   8.074  21.632  0.00  0.00    +0.000 C 
ATOM     23  O   UNL     1       1.345   8.463  21.275  0.00  0.00    +0.000 OA
ENDBRANCH   1  23
BRANCH   3  24
ATOM     24  N   UNL     1       3.289   4.663  18.948  0.00  0.00    +0.000 N 
ATOM     25  H   UNL     1       2.721   3.927  19.357  0.00  0.00    +0.000 HD
BRANCH  24  26
ATOM     26  S   UNL     1       4.951   4.406  19.122  0.00  0.00    +0.000 S 
ATOM     27  O   UNL     1       5.483   5.606  19.733  0.00  0.00    +0.000 OA
ATOM     28  O   UNL     1       5.167   3.097  19.698  0.00  0.00    +0.000 OA
BRANCH  26  29
ATOM     29  C   UNL     1       5.560   4.387  17.448  0.00  0.00    +0.000 A 
ATOM     30  C   UNL     1       4.690   4.028  16.413  0.00  0.00    +0.000 A 
ATOM     31  C   UNL     1       5.141   4.041  15.091  0.00  0.00    +0.000 A 
ATOM     32  C   UNL     1       6.454   4.432  14.795  0.00  0.00    +0.000 A 
ATOM     33  C   UNL     1       6.939   4.477  13.375  0.00  0.00    +0.000 C 
ATOM     34  C   UNL     1       7.308   4.816  15.840  0.00  0.00    +0.000 A 
ATOM     35  C   UNL     1       6.868   4.791  17.166  0.00  0.00    +0.000 A 
ENDBRANCH  26  29
ENDBRANCH  24  26
ENDBRANCH   3  24
TORSDOF 6
ENDMDL
MODEL 2
REMARK VINA RESULT:      -8.6      3.105     10.690
REMARK  Name = 
REMARK  8 active torsions:
REMARK  status: ('A' for Active; 'I' for Inactive)
REMARK    1  A    between atoms: C_1  and  O_2
REMARK    2  A    between atoms: O_2  and  C_3
REMARK    3  A    between atoms: C_5  and  N_6
REMARK    4  A    between atoms: N_6  and  S_7
REMARK    5  A    between atoms: S_7  and  C_10
REMARK    6  A    between atoms: C_13  and  C_14
REMARK    7  A    between atoms: C_19  and  C_20
REMARK    8  A    between atoms: C_25  and  C_26
REMARK                            x       y       z     vdW  Elec       q    Type
REMARK                         _______ _______ _______ _____ _____    ______ ____
ROOT
ATOM      1  C   UNL     1       2.034   7.528  19.756  0.00  0.00    +0.000 A 
ATOM      2  C   UNL     1       1.081   8.251  20.497  0.00  0.00    +0.000 A 
ATOM      3  C   UNL     1       0.481   9.392  19.970  0.00  0.00    +0.000 A 
ATOM      4  C   UNL     1       0.869   9.870  18.729  0.00  0.00    +0.000 A 
ATOM      5  C   UNL     1       1.876   9.210  18.023  0.00  0.00    +0.000 A 
ATOM      6  C   UNL     1       2.474   8.032  18.517  0.00  0.00    +0.000 A 
ENDROOT
BRANCH   6   7
ATOM      7  C   UNL     1       3.508   7.411  17.621  0.00  0.00    +0.000 C 
ATOM      8  O   UNL     1       3.520   7.767  16.443  0.00  0.00    +0.000 OA
ATOM      9  N   UNL     1       4.403   6.529  18.180  0.00  0.00    +0.000 N 
ATOM     10  C   UNL     1       5.314   5.859  17.404  0.00  0.00    +0.000 A 
ATOM     11  N   UNL     1       5.376   5.769  16.099  0.00  0.00    +0.000 NA
ATOM     12  C   UNL     1       6.433   4.958  15.720  0.00  0.00    +0.000 A 
ATOM     13  C   UNL     1       7.207   4.506  16.774  0.00  0.00    +0.000 A 
ATOM     14  S   UNL     1       6.515   5.009  18.269  0.00  0.00    +0.000 S 
ATOM     15  H   UNL     1       4.421   6.381  19.180  0.00  0.00    +0.000 HD
BRANCH  12  16
ATOM     16  C   UNL     1       6.673   4.637  14.315  0.00  0.00    +0.000 A 
ATOM     17  C   UNL     1       7.601   5.388  13.577  0.00  0.00    +0.000 A 
ATOM     18  C   UNL     1       7.823   5.118  12.221  0.00  0.00    +0.000 A 
ATOM     19  C   UNL     1       7.115   4.101  11.586  0.00  0.00    +0.000 A 
ATOM     20  C   UNL     1       6.181   3.355  12.303  0.00  0.00    +0.000 A 
ATOM     21  C   UNL     1       5.963   3.619  13.658  0.00  0.00    +0.000 A 
ENDBRANCH  12  16
ENDBRANCH   6   7
BRANCH   1  23
ATOM     22  C   UNL     1       1.574   5.485  20.841  0.00  0.00    +0.000 C 
ATOM     23  O   UNL     1       2.547   6.340  20.224  0.00  0.00    +0.000 OA
ENDBRANCH   1  23
BRANCH   3  24
ATOM     24  N   UNL     1      -0.547  10.061  20.681  0.00  0.00    +0.000 N 
ATOM     25  H   UNL     1      -1.395  10.322  20.186  0.00  0.00    +0.000 HD
BRANCH  24  26
ATOM     26  S   UNL     1      -0.134  11.134  21.921  0.00  0.00    +0.000 S 
ATOM     27  O   UNL     1       0.103  10.321  23.096  0.00  0.00    +0.000 OA
ATOM     28  O   UNL     1       0.856  12.065  21.426  0.00  0.00    +0.000 OA
BRANCH  26  29
ATOM     29  C   UNL     1      -1.640  12.031  22.233  0.00  0.00    +0.000 A 
ATOM     30  C   UNL     1      -2.169  12.842  21.222  0.00  0.00    +0.000 A 
ATOM     31  C   UNL     1      -3.368  13.526  21.437  0.00  0.00    +0.000 A 
ATOM     32  C   UNL     1      -4.053  13.388  22.652  0.00  0.00    +0.000 A 
ATOM     33  C   UNL     1      -5.357  14.097  22.882  0.00  0.00    +0.000 C 
ATOM     34  C   UNL     1      -3.526  12.551  23.646  0.00  0.00    +0.000 A 
ATOM     35  C   UNL     1      -2.319  11.875  23.444  0.00  0.00    +0.000 A 
ENDBRANCH  26  29
ENDBRANCH  24  26
ENDBRANCH   3  24
TORSDOF 6
ENDMDL
MODEL 3
REMARK VINA RESULT:      -8.4      2.553      4.132
REMARK  Name = 
REMARK  8 active torsions:
REMARK  status: ('A' for Active; 'I' for Inactive)
REMARK    1  A    between atoms: C_1  and  O_2
REMARK    2  A    between atoms: O_2  and  C_3
REMARK    3  A    between atoms: C_5  and  N_6
REMARK    4  A    between atoms: N_6  and  S_7
REMARK    5  A    between atoms: S_7  and  C_10
REMARK    6  A    between atoms: C_13  and  C_14
REMARK    7  A    between atoms: C_19  and  C_20
REMARK    8  A    between atoms: C_25  and  C_26
REMARK                            x       y       z     vdW  Elec       q    Type
REMARK                         _______ _______ _______ _____ _____    ______ ____
ROOT
ATOM      1  C   UNL     1       2.044   7.897  19.246  0.00  0.00    +0.000 A 
ATOM      2  C   UNL     1       2.792   6.796  18.787  0.00  0.00    +0.000 A 
ATOM      3  C   UNL     1       2.687   5.553  19.406  0.00  0.00    +0.000 A 
ATOM      4  C   UNL     1       1.890   5.402  20.529  0.00  0.00    +0.000 A 
ATOM      5  C   UNL     1       1.212   6.508  21.044  0.00  0.00    +0.000 A 
ATOM      6  C   UNL     1       1.272   7.770  20.416  0.00  0.00    +0.000 A 
ENDROOT
BRANCH   6   7
ATOM      7  C   UNL     1       0.450   8.850  21.061  0.00  0.00    +0.000 C 
ATOM      8  O   UNL     1      -0.480   8.494  21.784  0.00  0.00    +0.000 OA
ATOM      9  N   UNL     1       0.818  10.157  20.847  0.00  0.00    +0.000 N 
ATOM     10  C   UNL     1       0.061  11.193  21.330  0.00  0.00    +0.000 A 
ATOM     11  N   UNL     1      -1.139  11.162  21.853  0.00  0.00    +0.000 NA
ATOM     12  C   UNL     1      -1.559  12.441  22.178  0.00  0.00    +0.000 A 
ATOM     13  C   UNL     1      -0.611  13.423  21.954  0.00  0.00    +0.000 A 
ATOM     14  S   UNL     1       0.781  12.736  21.209  0.00  0.00    +0.000 S 
ATOM     15  H   UNL     1       1.671  10.376  20.350  0.00  0.00    +0.000 HD
BRANCH  12  16
ATOM     16  C   UNL     1      -2.899  12.684  22.710  0.00  0.00    +0.000 A 
ATOM     17  C   UNL     1      -3.181  12.383  24.051  0.00  0.00    +0.000 A 
ATOM     18  C   UNL     1      -4.465  12.579  24.574  0.00  0.00    +0.000 A 
ATOM     19  C   UNL     1      -5.483  13.069  23.760  0.00  0.00    +0.000 A 
ATOM     20  C   UNL     1      -5.220  13.361  22.423  0.00  0.00    +0.000 A 
ATOM     21  C   UNL     1      -3.937  13.173  21.902  0.00  0.00    +0.000 A 
ENDBRANCH  12  16
ENDBRANCH   6   7
BRANCH   1  23
ATOM     22  C   UNL     1       1.076   9.196  17.532  0.00  0.00    +0.000 C 
ATOM     23  O   UNL     1       2.060   9.097  18.572  0.00  0.00    +0.000 OA
ENDBRANCH   1  23
BRANCH   3  24
ATOM     24  N   UNL     1       3.368   4.425  18.882  0.00  0.00    +0.000 N 
ATOM     25  H   UNL     1       2.903   3.522  18.894  0.00  0.00    +0.000 HD
BRANCH  24  26
ATOM     26  S   UNL     1       5.047   4.320  19.052  0.00  0.00    +0.000 S 
ATOM     27  O   UNL     1       5.458   5.522  19.747  0.00  0.00    +0.000 OA
ATOM     28  O   UNL     1       5.389   3.002  19.542  0.00  0.00    +0.000 OA
BRANCH  26  29
ATOM     29  C   UNL     1       5.658   4.474  17.386  0.00  0.00    +0.000 A 
ATOM     30  C   UNL     1       7.018   4.730  17.183  0.00  0.00    +0.000 A 
ATOM     31  C   UNL     1       7.520   4.820  15.882  0.00  0.00    +0.000 A 
ATOM     32  C   UNL     1       6.672   4.635  14.782  0.00  0.00    +0.000 A 
ATOM     33  C   UNL     1       7.208   4.702  13.381  0.00  0.00    +0.000 C 
ATOM     34  C   UNL     1       5.316   4.353  15.000  0.00  0.00    +0.000 A 
ATOM     35  C   UNL     1       4.803   4.276  16.299  0.00  0.00    +0.000 A 
ENDBRANCH  26  29
ENDBRANCH  24  26
ENDBRANCH   3  24
TORSDOF 6
ENDMDL
MODEL 4
REMARK VINA RESULT:      -8.4      0.419      1.247
REMARK  Name = 
REMARK  8 active torsions:
REMARK  status: ('A' for Active; 'I' for Inactive)
REMARK    1  A    between atoms: C_1  and  O_2
REMARK    2  A    between atoms: O_2  and  C_3
REMARK    3  A    between atoms: C_5  and  N_6
REMARK    4  A    between atoms: N_6  and  S_7
REMARK    5  A    between atoms: S_7  and  C_10
REMARK    6  A    between atoms: C_13  and  C_14
REMARK    7  A    between atoms: C_19  and  C_20
REMARK    8  A    between atoms: C_25  and  C_26
REMARK                            x       y       z     vdW  Elec       q    Type
REMARK                         _______ _______ _______ _____ _____    ______ ____
ROOT
ATOM      1  C   UNL     1       1.629   7.804  19.987  0.00  0.00    +0.000 A 
ATOM      2  C   UNL     1       2.065   6.466  19.967  0.00  0.00    +0.000 A 
ATOM      3  C   UNL     1       2.861   5.990  18.927  0.00  0.00    +0.000 A 
ATOM      4  C   UNL     1       3.178   6.816  17.861  0.00  0.00    +0.000 A 
ATOM      5  C   UNL     1       2.678   8.118  17.829  0.00  0.00    +0.000 A 
ATOM      6  C   UNL     1       1.899   8.637  18.885  0.00  0.00    +0.000 A 
ENDROOT
BRANCH   6   7
ATOM      7  C   UNL     1       1.475  10.070  18.728  0.00  0.00    +0.000 C 
ATOM      8  O   UNL     1       2.116  10.764  17.938  0.00  0.00    +0.000 OA
ATOM      9  N   UNL     1       0.375  10.500  19.432  0.00  0.00    +0.000 N 
ATOM     10  C   UNL     1      -0.013  11.815  19.405  0.00  0.00    +0.000 A 
ATOM     11  N   UNL     1       0.629  12.853  18.930  0.00  0.00    +0.000 NA
ATOM     12  C   UNL     1      -0.102  14.011  19.140  0.00  0.00    +0.000 A 
ATOM     13  C   UNL     1      -1.342  13.802  19.716  0.00  0.00    +0.000 A 
ATOM     14  S   UNL     1      -1.533  12.137  20.110  0.00  0.00    +0.000 S 
ATOM     15  H   UNL     1      -0.184   9.844  19.962  0.00  0.00    +0.000 HD
BRANCH  12  16
ATOM     16  C   UNL     1       0.432  15.319  18.766  0.00  0.00    +0.000 A 
ATOM     17  C   UNL     1      -0.445  16.353  18.405  0.00  0.00    +0.000 A 
ATOM     18  C   UNL     1       0.045  17.604  18.014  0.00  0.00    +0.000 A 
ATOM     19  C   UNL     1       1.418  17.834  17.970  0.00  0.00    +0.000 A 
ATOM     20  C   UNL     1       2.302  16.813  18.315  0.00  0.00    +0.000 A 
ATOM     21  C   UNL     1       1.813  15.565  18.713  0.00  0.00    +0.000 A 
ENDBRANCH  12  16
ENDBRANCH   6   7
BRANCH   1  23
ATOM     22  C   UNL     1       1.774   8.837  22.102  0.00  0.00    +0.000 C 
ATOM     23  O   UNL     1       0.936   8.309  21.064  0.00  0.00    +0.000 OA
ENDBRANCH   1  23
BRANCH   3  24
ATOM     24  N   UNL     1       3.377   4.670  18.960  0.00  0.00    +0.000 N 
ATOM     25  H   UNL     1       2.830   3.940  19.406  0.00  0.00    +0.000 HD
BRANCH  24  26
ATOM     26  S   UNL     1       5.047   4.437  19.094  0.00  0.00    +0.000 S 
ATOM     27  O   UNL     1       5.562   5.600  19.784  0.00  0.00    +0.000 OA
ATOM     28  O   UNL     1       5.297   3.094  19.571  0.00  0.00    +0.000 OA
BRANCH  26  29
ATOM     29  C   UNL     1       5.633   4.553  17.416  0.00  0.00    +0.000 A 
ATOM     30  C   UNL     1       6.791   5.293  17.152  0.00  0.00    +0.000 A 
ATOM     31  C   UNL     1       7.284   5.367  15.847  0.00  0.00    +0.000 A 
ATOM     32  C   UNL     1       6.636   4.687  14.806  0.00  0.00    +0.000 A 
ATOM     33  C   UNL     1       7.174   4.737  13.405  0.00  0.00    +0.000 C 
ATOM     34  C   UNL     1       5.492   3.928  15.090  0.00  0.00    +0.000 A 
ATOM     35  C   UNL     1       4.984   3.862  16.390  0.00  0.00    +0.000 A 
ENDBRANCH  26  29
ENDBRANCH  24  26
ENDBRANCH   3  24
TORSDOF 6
ENDMDL
MODEL 5
REMARK VINA RESULT:      -8.4      2.339      3.851
REMARK  Name = 
REMARK  8 active torsions:
REMARK  status: ('A' for Active; 'I' for Inactive)
REMARK    1  A    between atoms: C_1  and  O_2
REMARK    2  A    between atoms: O_2  and  C_3
REMARK    3  A    between atoms: C_5  and  N_6
REMARK    4  A    between atoms: N_6  and  S_7
REMARK    5  A    between atoms: S_7  and  C_10
REMARK    6  A    between atoms: C_13  and  C_14
REMARK    7  A    between atoms: C_19  and  C_20
REMARK    8  A    between atoms: C_25  and  C_26
REMARK                            x       y       z     vdW  Elec       q    Type
REMARK                         _______ _______ _______ _____ _____    ______ ____
ROOT
ATOM      1  C   UNL     1       2.057   8.072  19.129  0.00  0.00    +0.000 A 
ATOM      2  C   UNL     1       2.703   6.917  18.648  0.00  0.00    +0.000 A 
ATOM      3  C   UNL     1       2.640   5.717  19.352  0.00  0.00    +0.000 A 
ATOM      4  C   UNL     1       1.992   5.663  20.575  0.00  0.00    +0.000 A 
ATOM      5  C   UNL     1       1.423   6.823  21.102  0.00  0.00    +0.000 A 
ATOM      6  C   UNL     1       1.441   8.044  20.394  0.00  0.00    +0.000 A 
ENDROOT
BRANCH   6   7
ATOM      7  C   UNL     1       0.745   9.191  21.071  0.00  0.00    +0.000 C 
ATOM      8  O   UNL     1      -0.081   8.915  21.940  0.00  0.00    +0.000 OA
ATOM      9  N   UNL     1       1.110  10.468  20.715  0.00  0.00    +0.000 N 
ATOM     10  C   UNL     1       0.454  11.559  21.226  0.00  0.00    +0.000 A 
ATOM     11  N   UNL     1      -0.660  11.602  21.913  0.00  0.00    +0.000 NA
ATOM     12  C   UNL     1      -0.999  12.914  22.203  0.00  0.00    +0.000 A 
ATOM     13  C   UNL     1      -0.069  13.846  21.780  0.00  0.00    +0.000 A 
ATOM     14  S   UNL     1       1.186  13.065  20.897  0.00  0.00    +0.000 S 
ATOM     15  H   UNL     1       1.889  10.625  20.090  0.00  0.00    +0.000 HD
BRANCH  12  16
ATOM     16  C   UNL     1      -2.243  13.236  22.899  0.00  0.00    +0.000 A 
ATOM     17  C   UNL     1      -2.621  14.577  23.066  0.00  0.00    +0.000 A 
ATOM     18  C   UNL     1      -3.792  14.910  23.756  0.00  0.00    +0.000 A 
ATOM     19  C   UNL     1      -4.594  13.908  24.296  0.00  0.00    +0.000 A 
ATOM     20  C   UNL     1      -4.225  12.572  24.149  0.00  0.00    +0.000 A 
ATOM     21  C   UNL     1      -3.059  12.238  23.453  0.00  0.00    +0.000 A 
ENDBRANCH  12  16
ENDBRANCH   6   7
BRANCH   1  23
ATOM     22  C   UNL     1       0.882   9.336  17.521  0.00  0.00    +0.000 C 
ATOM     23  O   UNL     1       2.023   9.229  18.385  0.00  0.00    +0.000 OA
ENDBRANCH   1  23
BRANCH   3  24
ATOM     24  N   UNL     1       3.211   4.535  18.817  0.00  0.00    +0.000 N 
ATOM     25  H   UNL     1       2.641   3.696  18.763  0.00  0.00    +0.000 HD
BRANCH  24  26
ATOM     26  S   UNL     1       4.852   4.218  19.073  0.00  0.00    +0.000 S 
ATOM     27  O   UNL     1       5.366   5.342  19.828  0.00  0.00    +0.000 OA
ATOM     28  O   UNL     1       5.002   2.856  19.536  0.00  0.00    +0.000 OA
BRANCH  26  29
ATOM     29  C   UNL     1       5.572   4.340  17.448  0.00  0.00    +0.000 A 
ATOM     30  C   UNL     1       4.750   4.171  16.328  0.00  0.00    +0.000 A 
ATOM     31  C   UNL     1       5.291   4.296  15.046  0.00  0.00    +0.000 A 
ATOM     32  C   UNL     1       6.646   4.611  14.877  0.00  0.00    +0.000 A 
ATOM     33  C   UNL     1       7.231   4.776  13.504  0.00  0.00    +0.000 C 
ATOM     34  C   UNL     1       7.452   4.803  16.009  0.00  0.00    +0.000 A 
ATOM     35  C   UNL     1       6.922   4.664  17.295  0.00  0.00    +0.000 A 
ENDBRANCH  26  29
ENDBRANCH  24  26
ENDBRANCH   3  24
TORSDOF 6
ENDMDL
MODEL 6
REMARK VINA RESULT:      -8.4      3.243     10.791
REMARK  Name = 
REMARK  8 active torsions:
REMARK  status: ('A' for Active; 'I' for Inactive)
REMARK    1  A    between atoms: C_1  and  O_2
REMARK    2  A    between atoms: O_2  and  C_3
REMARK    3  A    between atoms: C_5  and  N_6
REMARK    4  A    between atoms: N_6  and  S_7
REMARK    5  A    between atoms: S_7  and  C_10
REMARK    6  A    between atoms: C_13  and  C_14
REMARK    7  A    between atoms: C_19  and  C_20
REMARK    8  A    between atoms: C_25  and  C_26
REMARK                            x       y       z     vdW  Elec       q    Type
REMARK                         _______ _______ _______ _____ _____    ______ ____
ROOT
ATOM      1  C   UNL     1       1.948   7.794  19.832  0.00  0.00    +0.000 A 
ATOM      2  C   UNL     1       0.981   8.535  20.537  0.00  0.00    +0.000 A 
ATOM      3  C   UNL     1       0.285   9.572  19.919  0.00  0.00    +0.000 A 
ATOM      4  C   UNL     1       0.587   9.931  18.615  0.00  0.00    +0.000 A 
ATOM      5  C   UNL     1       1.604   9.260  17.937  0.00  0.00    +0.000 A 
ATOM      6  C   UNL     1       2.300   8.182  18.525  0.00  0.00    +0.000 A 
ENDROOT
BRANCH   6   7
ATOM      7  C   UNL     1       3.334   7.530  17.651  0.00  0.00    +0.000 C 
ATOM      8  O   UNL     1       3.396   7.900  16.479  0.00  0.00    +0.000 OA
ATOM      9  N   UNL     1       4.173   6.604  18.225  0.00  0.00    +0.000 N 
ATOM     10  C   UNL     1       5.078   5.905  17.467  0.00  0.00    +0.000 A 
ATOM     11  N   UNL     1       5.176   5.829  16.164  0.00  0.00    +0.000 NA
ATOM     12  C   UNL     1       6.209   4.979  15.805  0.00  0.00    +0.000 A 
ATOM     13  C   UNL     1       6.930   4.481  16.875  0.00  0.00    +0.000 A 
ATOM     14  S   UNL     1       6.216   4.994  18.355  0.00  0.00    +0.000 S 
ATOM     15  H   UNL     1       4.155   6.442  19.222  0.00  0.00    +0.000 HD
BRANCH  12  16
ATOM     16  C   UNL     1       6.478   4.666  14.402  0.00  0.00    +0.000 A 
ATOM     17  C   UNL     1       5.698   3.706  13.741  0.00  0.00    +0.000 A 
ATOM     18  C   UNL     1       5.957   3.369  12.407  0.00  0.00    +0.000 A 
ATOM     19  C   UNL     1       7.005   3.980  11.723  0.00  0.00    +0.000 A 
ATOM     20  C   UNL     1       7.795   4.927  12.371  0.00  0.00    +0.000 A 
ATOM     21  C   UNL     1       7.533   5.270  13.700  0.00  0.00    +0.000 A 
ENDBRANCH  12  16
ENDBRANCH   6   7
BRANCH   1  23
ATOM     22  C   UNL     1       1.689   5.571  20.577  0.00  0.00    +0.000 C 
ATOM     23  O   UNL     1       2.558   6.700  20.401  0.00  0.00    +0.000 OA
ENDBRANCH   1  23
BRANCH   3  24
ATOM     24  N   UNL     1      -0.754  10.252  20.603  0.00  0.00    +0.000 N 
ATOM     25  H   UNL     1      -1.717   9.984  20.422  0.00  0.00    +0.000 HD
BRANCH  24  26
ATOM     26  S   UNL     1      -0.569  11.893  20.970  0.00  0.00    +0.000 S 
ATOM     27  O   UNL     1       0.453  11.964  21.993  0.00  0.00    +0.000 OA
ATOM     28  O   UNL     1      -0.466  12.641  19.736  0.00  0.00    +0.000 OA
BRANCH  26  29
ATOM     29  C   UNL     1      -2.101  12.331  21.765  0.00  0.00    +0.000 A 
ATOM     30  C   UNL     1      -3.165  12.792  20.981  0.00  0.00    +0.000 A 
ATOM     31  C   UNL     1      -4.385  13.108  21.584  0.00  0.00    +0.000 A 
ATOM     32  C   UNL     1      -4.555  12.945  22.966  0.00  0.00    +0.000 A 
ATOM     33  C   UNL     1      -5.871  13.254  23.619  0.00  0.00    +0.000 C 
ATOM     34  C   UNL     1      -3.489  12.456  23.735  0.00  0.00    +0.000 A 
ATOM     35  C   UNL     1      -2.260  12.152  23.141  0.00  0.00    +0.000 A 
ENDBRANCH  26  29
ENDBRANCH  24  26
ENDBRANCH   3  24
TORSDOF 6
ENDMDL
MODEL 7
REMARK VINA RESULT:      -8.3      3.220     10.792
REMARK  Name = 
REMARK  8 active torsions:
REMARK  status: ('A' for Active; 'I' for Inactive)
REMARK    1  A    between atoms: C_1  and  O_2
REMARK    2  A    between atoms: O_2  and  C_3
REMARK    3  A    between atoms: C_5  and  N_6
REMARK    4  A    between atoms: N_6  and  S_7
REMARK    5  A    between atoms: S_7  and  C_10
REMARK    6  A    between atoms: C_13  and  C_14
REMARK    7  A    between atoms: C_19  and  C_20
REMARK    8  A    between atoms: C_25  and  C_26
REMARK                            x       y       z     vdW  Elec       q    Type
REMARK                         _______ _______ _______ _____ _____    ______ ____
ROOT
ATOM      1  C   UNL     1       1.979   7.699  19.852  0.00  0.00    +0.000 A 
ATOM      2  C   UNL     1       1.014   8.434  20.565  0.00  0.00    +0.000 A 
ATOM      3  C   UNL     1       0.353   9.509  19.974  0.00  0.00    +0.000 A 
ATOM      4  C   UNL     1       0.689   9.910  18.691  0.00  0.00    +0.000 A 
ATOM      5  C   UNL     1       1.706   9.242  18.007  0.00  0.00    +0.000 A 
ATOM      6  C   UNL     1       2.366   8.128  18.568  0.00  0.00    +0.000 A 
ENDROOT
BRANCH   6   7
ATOM      7  C   UNL     1       3.403   7.485  17.690  0.00  0.00    +0.000 C 
ATOM      8  O   UNL     1       3.424   7.820  16.506  0.00  0.00    +0.000 OA
ATOM      9  N   UNL     1       4.289   6.610  18.272  0.00  0.00    +0.000 N 
ATOM     10  C   UNL     1       5.202   5.920  17.515  0.00  0.00    +0.000 A 
ATOM     11  N   UNL     1       5.272   5.806  16.213  0.00  0.00    +0.000 NA
ATOM     12  C   UNL     1       6.328   4.983  15.856  0.00  0.00    +0.000 A 
ATOM     13  C   UNL     1       7.092   4.546  16.923  0.00  0.00    +0.000 A 
ATOM     14  S   UNL     1       6.393   5.081  18.403  0.00  0.00    +0.000 S 
ATOM     15  H   UNL     1       4.300   6.479  19.275  0.00  0.00    +0.000 HD
BRANCH  12  16
ATOM     16  C   UNL     1       6.576   4.635  14.458  0.00  0.00    +0.000 A 
ATOM     17  C   UNL     1       7.564   5.319  13.734  0.00  0.00    +0.000 A 
ATOM     18  C   UNL     1       7.797   5.024  12.386  0.00  0.00    +0.000 A 
ATOM     19  C   UNL     1       7.038   4.048  11.743  0.00  0.00    +0.000 A 
ATOM     20  C   UNL     1       6.046   3.369  12.447  0.00  0.00    +0.000 A 
ATOM     21  C   UNL     1       5.817   3.658  13.795  0.00  0.00    +0.000 A 
ENDBRANCH  12  16
ENDBRANCH   6   7
BRANCH   1  23
ATOM     22  C   UNL     1       1.637   5.483  20.585  0.00  0.00    +0.000 C 
ATOM     23  O   UNL     1       2.553   6.570  20.390  0.00  0.00    +0.000 OA
ENDBRANCH   1  23
BRANCH   3  24
ATOM     24  N   UNL     1      -0.685  10.186  20.663  0.00  0.00    +0.000 N 
ATOM     25  H   UNL     1      -1.641   9.861  20.552  0.00  0.00    +0.000 HD
BRANCH  24  26
ATOM     26  S   UNL     1      -0.566  11.856  20.906  0.00  0.00    +0.000 S 
ATOM     27  O   UNL     1       0.485  12.047  21.883  0.00  0.00    +0.000 OA
ATOM     28  O   UNL     1      -0.540  12.517  19.619  0.00  0.00    +0.000 OA
BRANCH  26  29
ATOM     29  C   UNL     1      -2.090  12.280  21.724  0.00  0.00    +0.000 A 
ATOM     30  C   UNL     1      -2.232  11.993  23.085  0.00  0.00    +0.000 A 
ATOM     31  C   UNL     1      -3.408  12.349  23.751  0.00  0.00    +0.000 A 
ATOM     32  C   UNL     1      -4.435  13.012  23.066  0.00  0.00    +0.000 A 
ATOM     33  C   UNL     1      -5.690  13.425  23.779  0.00  0.00    +0.000 C 
ATOM     34  C   UNL     1      -4.268  13.318  21.707  0.00  0.00    +0.000 A 
ATOM     35  C   UNL     1      -3.101  12.951  21.031  0.00  0.00    +0.000 A 
ENDBRANCH  26  29
ENDBRANCH  24  26
ENDBRANCH   3  24
TORSDOF 6
ENDMDL
MODEL 8
REMARK VINA RESULT:      -8.3      2.578      3.725
REMARK  Name = 
REMARK  8 active torsions:
REMARK  status: ('A' for Active; 'I' for Inactive)
REMARK    1  A    between atoms: C_1  and  O_2
REMARK    2  A    between atoms: O_2  and  C_3
REMARK    3  A    between atoms: C_5  and  N_6
REMARK    4  A    between atoms: N_6  and  S_7
REMARK    5  A    between atoms: S_7  and  C_10
REMARK    6  A    between atoms: C_13  and  C_14
REMARK    7  A    between atoms: C_19  and  C_20
REMARK    8  A    between atoms: C_25  and  C_26
REMARK                            x       y       z     vdW  Elec       q    Type
REMARK                         _______ _______ _______ _____ _____    ______ ____
ROOT
ATOM      1  C   UNL     1       1.858   8.042  18.630  0.00  0.00    +0.000 A 
ATOM      2  C   UNL     1       2.546   6.865  18.281  0.00  0.00    +0.000 A 
ATOM      3  C   UNL     1       2.640   5.801  19.175  0.00  0.00    +0.000 A 
ATOM      4  C   UNL     1       2.112   5.917  20.450  0.00  0.00    +0.000 A 
ATOM      5  C   UNL     1       1.504   7.112  20.836  0.00  0.00    +0.000 A 
ATOM      6  C   UNL     1       1.363   8.193  19.939  0.00  0.00    +0.000 A 
ENDROOT
BRANCH   6   7
ATOM      7  C   UNL     1       0.644   9.393  20.486  0.00  0.00    +0.000 C 
ATOM      8  O   UNL     1       0.951   9.766  21.618  0.00  0.00    +0.000 OA
ATOM      9  N   UNL     1      -0.268  10.026  19.674  0.00  0.00    +0.000 N 
ATOM     10  C   UNL     1      -1.024  11.071  20.140  0.00  0.00    +0.000 A 
ATOM     11  N   UNL     1      -1.170  11.497  21.369  0.00  0.00    +0.000 NA
ATOM     12  C   UNL     1      -2.059  12.559  21.410  0.00  0.00    +0.000 A 
ATOM     13  C   UNL     1      -2.515  12.964  20.169  0.00  0.00    +0.000 A 
ATOM     14  S   UNL     1      -1.910  11.912  18.948  0.00  0.00    +0.000 S 
ATOM     15  H   UNL     1      -0.376   9.747  18.708  0.00  0.00    +0.000 HD
BRANCH  12  16
ATOM     16  C   UNL     1      -2.451  13.168  22.680  0.00  0.00    +0.000 A 
ATOM     17  C   UNL     1      -3.399  12.531  23.495  0.00  0.00    +0.000 A 
ATOM     18  C   UNL     1      -3.811  13.111  24.701  0.00  0.00    +0.000 A 
ATOM     19  C   UNL     1      -3.289  14.338  25.101  0.00  0.00    +0.000 A 
ATOM     20  C   UNL     1      -2.355  14.988  24.295  0.00  0.00    +0.000 A 
ATOM     21  C   UNL     1      -1.937  14.407  23.095  0.00  0.00    +0.000 A 
ENDBRANCH  12  16
ENDBRANCH   6   7
BRANCH   1  23
ATOM     22  C   UNL     1       2.612  10.125  17.819  0.00  0.00    +0.000 C 
ATOM     23  O   UNL     1       1.666   9.051  17.713  0.00  0.00    +0.000 OA
ENDBRANCH   1  23
BRANCH   3  24
ATOM     24  N   UNL     1       3.250   4.582  18.785  0.00  0.00    +0.000 N 
ATOM     25  H   UNL     1       2.714   3.721  18.853  0.00  0.00    +0.000 HD
BRANCH  24  26
ATOM     26  S   UNL     1       4.907   4.366  19.043  0.00  0.00    +0.000 S 
ATOM     27  O   UNL     1       5.367   5.555  19.728  0.00  0.00    +0.000 OA
ATOM     28  O   UNL     1       5.130   3.042  19.581  0.00  0.00    +0.000 OA
BRANCH  26  29
ATOM     29  C   UNL     1       5.609   4.431  17.407  0.00  0.00    +0.000 A 
ATOM     30  C   UNL     1       4.768   4.262  16.301  0.00  0.00    +0.000 A 
ATOM     31  C   UNL     1       5.296   4.344  15.010  0.00  0.00    +0.000 A 
ATOM     32  C   UNL     1       6.658   4.614  14.818  0.00  0.00    +0.000 A 
ATOM     33  C   UNL     1       7.229   4.733  13.435  0.00  0.00    +0.000 C 
ATOM     34  C   UNL     1       7.484   4.808  15.935  0.00  0.00    +0.000 A 
ATOM     35  C   UNL     1       6.966   4.712  17.230  0.00  0.00    +0.000 A 
ENDBRANCH  26  29
ENDBRANCH  24  26
ENDBRANCH   3  24
TORSDOF 6
ENDMDL
MODEL 9
REMARK VINA RESULT:      -8.1      3.793     10.945
REMARK  Name = 
REMARK  8 active torsions:
REMARK  status: ('A' for Active; 'I' for Inactive)
REMARK    1  A    between atoms: C_1  and  O_2
REMARK    2  A    between atoms: O_2  and  C_3
REMARK    3  A    between atoms: C_5  and  N_6
REMARK    4  A    between atoms: N_6  and  S_7
REMARK    5  A    between atoms: S_7  and  C_10
REMARK    6  A    between atoms: C_13  and  C_14
REMARK    7  A    between atoms: C_19  and  C_20
REMARK    8  A    between atoms: C_25  and  C_26
REMARK                            x       y       z     vdW  Elec       q    Type
REMARK                         _______ _______ _______ _____ _____    ______ ____
ROOT
ATOM      1  C   UNL     1      -0.048  11.086  19.224  0.00  0.00    +0.000 A 
ATOM      2  C   UNL     1      -1.215  11.873  19.204  0.00  0.00    +0.000 A 
ATOM      3  C   UNL     1      -2.261  11.578  18.333  0.00  0.00    +0.000 A 
ATOM      4  C   UNL     1      -2.136  10.540  17.424  0.00  0.00    +0.000 A 
ATOM      5  C   UNL     1      -0.949   9.809  17.376  0.00  0.00    +0.000 A 
ATOM      6  C   UNL     1       0.113  10.063  18.270  0.00  0.00    +0.000 A 
ENDROOT
BRANCH   6   7
ATOM      7  C   UNL     1       1.305   9.160  18.126  0.00  0.00    +0.000 C 
ATOM      8  O   UNL     1       2.147   9.469  17.284  0.00  0.00    +0.000 OA
ATOM      9  N   UNL     1       1.405   8.082  18.974  0.00  0.00    +0.000 N 
ATOM     10  C   UNL     1       2.419   7.168  18.839  0.00  0.00    +0.000 A 
ATOM     11  N   UNL     1       3.279   7.030  17.861  0.00  0.00    +0.000 NA
ATOM     12  C   UNL     1       4.114   5.952  18.099  0.00  0.00    +0.000 A 
ATOM     13  C   UNL     1       3.906   5.332  19.318  0.00  0.00    +0.000 A 
ATOM     14  S   UNL     1       2.557   6.044  20.116  0.00  0.00    +0.000 S 
ATOM     15  H   UNL     1       0.746   7.960  19.730  0.00  0.00    +0.000 HD
BRANCH  12  16
ATOM     16  C   UNL     1       5.117   5.542  17.118  0.00  0.00    +0.000 A 
ATOM     17  C   UNL     1       4.881   4.420  16.308  0.00  0.00    +0.000 A 
ATOM     18  C   UNL     1       5.840   3.991  15.383  0.00  0.00    +0.000 A 
ATOM     19  C   UNL     1       7.050   4.672  15.263  0.00  0.00    +0.000 A 
ATOM     20  C   UNL     1       7.302   5.780  16.070  0.00  0.00    +0.000 A 
ATOM     21  C   UNL     1       6.343   6.214  16.989  0.00  0.00    +0.000 A 
ENDBRANCH  12  16
ENDBRANCH   6   7
BRANCH   1  23
ATOM     22  C   UNL     1       0.686  10.699  21.431  0.00  0.00    +0.000 C 
ATOM     23  O   UNL     1       0.941  11.305  20.156  0.00  0.00    +0.000 OA
ENDBRANCH   1  23
BRANCH   3  24
ATOM     24  N   UNL     1      -3.472  12.315  18.384  0.00  0.00    +0.000 N 
ATOM     25  H   UNL     1      -3.527  13.126  18.992  0.00  0.00    +0.000 HD
BRANCH  24  26
ATOM     26  S   UNL     1      -4.944  11.500  18.213  0.00  0.00    +0.000 S 
ATOM     27  O   UNL     1      -5.681  12.209  17.189  0.00  0.00    +0.000 OA
ATOM     28  O   UNL     1      -4.687  10.079  18.122  0.00  0.00    +0.000 OA
BRANCH  26  29
ATOM     29  C   UNL     1      -5.791  11.818  19.747  0.00  0.00    +0.000 A 
ATOM     30  C   UNL     1      -5.160  12.598  20.722  0.00  0.00    +0.000 A 
ATOM     31  C   UNL     1      -5.823  12.886  21.917  0.00  0.00    +0.000 A 
ATOM     32  C   UNL     1      -7.125  12.416  22.135  0.00  0.00    +0.000 A 
ATOM     33  C   UNL     1      -7.857  12.744  23.404  0.00  0.00    +0.000 C 
ATOM     34  C   UNL     1      -7.757  11.658  21.138  0.00  0.00    +0.000 A 
ATOM     35  C   UNL     1      -7.093  11.352  19.946  0.00  0.00    +0.000 A 
ENDBRANCH  26  29
ENDBRANCH  24  26
ENDBRANCH   3  24
TORSDOF 6
ENDMDL
