MODEL 1
REMARK VINA RESULT:      -8.6      0.000      0.000
REMARK  Name = 
REMARK  6 active torsions:
REMARK  status: ('A' for Active; 'I' for Inactive)
REMARK    1  A    between atoms: C_1  and  C_2
REMARK    2  A    between atoms: N_4  and  C_5
REMARK    3  A    between atoms: C_8  and  C_9
REMARK    4  A    between atoms: N_11  and  C_12
REMARK    5  A    between atoms: C_12  and  C_13
REMARK    6  A    between atoms: C_13  and  N_14
REMARK                            x       y       z     vdW  Elec       q    Type
REMARK                         _______ _______ _______ _____ _____    ______ ____
ROOT
ATOM      1  C   UNL     1       2.363   6.521  19.898  0.00  0.00    +0.000 C 
ATOM      2  O   UNL     1       1.829   5.960  20.851  0.00  0.00    +0.000 OA
ATOM      3  N   UNL     1       3.378   5.953  19.161  0.00  0.00    +0.000 N 
ATOM      4  H   UNL     1       3.875   6.477  18.453  0.00  0.00    +0.000 HD
ENDROOT
BRANCH   1   8
ATOM      5  C   UNL     1       0.905  10.441  18.871  0.00  0.00    +0.000 A 
ATOM      6  C   UNL     1       0.682   9.886  20.131  0.00  0.00    +0.000 A 
ATOM      7  C   UNL     1       1.174   8.617  20.446  0.00  0.00    +0.000 A 
ATOM      8  C   UNL     1       1.911   7.884  19.509  0.00  0.00    +0.000 A 
ATOM      9  C   UNL     1       2.137   8.434  18.241  0.00  0.00    +0.000 A 
ATOM     10  C   UNL     1       1.627   9.699  17.925  0.00  0.00    +0.000 A 
BRANCH   5  14
ATOM     11  C   UNL     1      -0.068  14.069  18.498  0.00  0.00    +0.000 C 
ATOM     12  C   UNL     1       0.739  12.925  19.054  0.00  0.00    +0.000 C 
ATOM     13  O   UNL     1       1.584  13.125  19.920  0.00  0.00    +0.000 OA
ATOM     14  N   UNL     1       0.405  11.704  18.487  0.00  0.00    +0.000 N 
ATOM     15  H   UNL     1      -0.210  11.723  17.685  0.00  0.00    +0.000 HD
ENDBRANCH   5  14
ENDBRANCH   1   8
BRANCH   3  16
ATOM     16  C   UNL     1       3.900   4.634  19.481  0.00  0.00    +0.000 C 
BRANCH  16  17
ATOM     17  C   UNL     1       3.823   3.613  18.280  0.00  0.00    +0.000 C 
ATOM     18  C   UNL     1       3.622   2.186  18.880  0.00  0.00    +0.000 C 
ATOM     19  C   UNL     1       2.276   1.981  19.584  0.00  0.00    +0.000 C 
ATOM     20  C   UNL     1       1.104   2.341  18.680  0.00  0.00    +0.000 C 
ATOM     21  C   UNL     1       1.223   3.763  18.145  0.00  0.00    +0.000 C 
ATOM     22  C   UNL     1       2.557   3.968  17.425  0.00  0.00    +0.000 C 
BRANCH  17  23
ATOM     23  N   UNL     1       5.081   3.720  17.424  0.00  0.00    +0.000 NA
ATOM     24  C   UNL     1       4.819   4.223  16.057  0.00  0.00    +0.000 C 
ATOM     25  C   UNL     1       6.076   4.285  15.182  0.00  0.00    +0.000 C 
ATOM     26  C   UNL     1       7.163   5.120  15.834  0.00  0.00    +0.000 C 
ATOM     27  C   UNL     1       7.443   4.573  17.221  0.00  0.00    +0.000 C 
ATOM     28  C   UNL     1       6.162   4.510  18.056  0.00  0.00    +0.000 C 
ENDBRANCH  17  23
ENDBRANCH  16  17
ENDBRANCH   3  16
TORSDOF 5
ENDMDL
MODEL 2
REMARK VINA RESULT:      -8.5      1.591      1.966
REMARK  Name = 
REMARK  6 active torsions:
REMARK  status: ('A' for Active; 'I' for Inactive)
REMARK    1  A    between atoms: C_1  and  C_2
REMARK    2  A    between atoms: N_4  and  C_5
REMARK    3  A    between atoms: C_8  and  C_9
REMARK    4  A    between atoms: N_11  and  C_12
REMARK    5  A    between atoms: C_12  and  C_13
REMARK    6  A    between atoms: C_13  and  N_14
REMARK                            x       y       z     vdW  Elec       q    Type
REMARK                         _______ _______ _______ _____ _____    ______ ____
ROOT
ATOM      1  C   UNL     1       2.755   7.243  18.072  0.00  0.00    +0.000 C 
ATOM      2  O   UNL     1       3.762   7.471  17.405  0.00  0.00    +0.000 OA
ATOM      3  N   UNL     1       2.248   5.978  18.265  0.00  0.00    +0.000 N 
ATOM      4  H   UNL     1       1.360   5.828  18.724  0.00  0.00    +0.000 HD
ENDROOT
BRANCH   1   8
ATOM      5  C   UNL     1       0.559  10.408  19.997  0.00  0.00    +0.000 A 
ATOM      6  C   UNL     1       0.907   9.242  20.678  0.00  0.00    +0.000 A 
ATOM      7  C   UNL     1       1.629   8.233  20.037  0.00  0.00    +0.000 A 
ATOM      8  C   UNL     1       2.030   8.378  18.704  0.00  0.00    +0.000 A 
ATOM      9  C   UNL     1       1.683   9.546  18.013  0.00  0.00    +0.000 A 
ATOM     10  C   UNL     1       0.943  10.546  18.655  0.00  0.00    +0.000 A 
BRANCH   5  14
ATOM     11  C   UNL     1      -0.768  13.405  21.869  0.00  0.00    +0.000 C 
ATOM     12  C   UNL     1       0.309  12.552  21.251  0.00  0.00    +0.000 C 
ATOM     13  O   UNL     1       1.490  12.862  21.368  0.00  0.00    +0.000 OA
ATOM     14  N   UNL     1      -0.197  11.446  20.584  0.00  0.00    +0.000 N 
ATOM     15  H   UNL     1      -1.199  11.406  20.454  0.00  0.00    +0.000 HD
ENDBRANCH   5  14
ENDBRANCH   1   8
BRANCH   3  16
ATOM     16  C   UNL     1       2.877   4.810  17.667  0.00  0.00    +0.000 C 
BRANCH  16  17
ATOM     17  C   UNL     1       3.686   3.930  18.698  0.00  0.00    +0.000 C 
ATOM     18  C   UNL     1       3.151   4.259  20.128  0.00  0.00    +0.000 C 
ATOM     19  C   UNL     1       1.703   3.824  20.376  0.00  0.00    +0.000 C 
ATOM     20  C   UNL     1       1.494   2.348  20.063  0.00  0.00    +0.000 C 
ATOM     21  C   UNL     1       1.924   2.007  18.642  0.00  0.00    +0.000 C 
ATOM     22  C   UNL     1       3.375   2.423  18.394  0.00  0.00    +0.000 C 
BRANCH  17  23
ATOM     23  N   UNL     1       5.180   4.198  18.552  0.00  0.00    +0.000 NA
ATOM     24  C   UNL     1       5.610   4.369  17.146  0.00  0.00    +0.000 C 
ATOM     25  C   UNL     1       7.119   4.591  16.995  0.00  0.00    +0.000 C 
ATOM     26  C   UNL     1       7.589   5.775  17.821  0.00  0.00    +0.000 C 
ATOM     27  C   UNL     1       7.169   5.571  19.263  0.00  0.00    +0.000 C 
ATOM     28  C   UNL     1       5.661   5.334  19.370  0.00  0.00    +0.000 C 
ENDBRANCH  17  23
ENDBRANCH  16  17
ENDBRANCH   3  16
TORSDOF 5
ENDMDL
MODEL 3
REMARK VINA RESULT:      -8.4      1.747      2.073
REMARK  Name = 
REMARK  6 active torsions:
REMARK  status: ('A' for Active; 'I' for Inactive)
REMARK    1  A    between atoms: C_1  and  C_2
REMARK    2  A    between atoms: N_4  and  C_5
REMARK    3  A    between atoms: C_8  and  C_9
REMARK    4  A    between atoms: N_11  and  C_12
REMARK    5  A    between atoms: C_12  and  C_13
REMARK    6  A    between atoms: C_13  and  N_14
REMARK                            x       y       z     vdW  Elec       q    Type
REMARK                         _______ _______ _______ _____ _____    ______ ____
ROOT
ATOM      1  C   UNL     1       2.748   7.233  18.047  0.00  0.00    +0.000 C 
ATOM      2  O   UNL     1       3.762   7.389  17.370  0.00  0.00    +0.000 OA
ATOM      3  N   UNL     1       2.193   5.998  18.299  0.00  0.00    +0.000 N 
ATOM      4  H   UNL     1       1.299   5.905  18.764  0.00  0.00    +0.000 HD
ENDROOT
BRANCH   1   8
ATOM      5  C   UNL     1       0.662  10.568  19.801  0.00  0.00    +0.000 A 
ATOM      6  C   UNL     1       0.832   9.368  20.491  0.00  0.00    +0.000 A 
ATOM      7  C   UNL     1       1.522   8.303  19.906  0.00  0.00    +0.000 A 
ATOM      8  C   UNL     1       2.068   8.423  18.624  0.00  0.00    +0.000 A 
ATOM      9  C   UNL     1       1.901   9.625  17.923  0.00  0.00    +0.000 A 
ATOM     10  C   UNL     1       1.193  10.683  18.507  0.00  0.00    +0.000 A 
BRANCH   5  14
ATOM     11  C   UNL     1      -1.765  13.334  20.636  0.00  0.00    +0.000 C 
ATOM     12  C   UNL     1      -1.342  12.043  19.987  0.00  0.00    +0.000 C 
ATOM     13  O   UNL     1      -2.110  11.443  19.242  0.00  0.00    +0.000 OA
ATOM     14  N   UNL     1      -0.052  11.665  20.327  0.00  0.00    +0.000 N 
ATOM     15  H   UNL     1       0.401  12.190  21.064  0.00  0.00    +0.000 HD
ENDBRANCH   5  14
ENDBRANCH   1   8
BRANCH   3  16
ATOM     16  C   UNL     1       2.775   4.781  17.757  0.00  0.00    +0.000 C 
BRANCH  16  17
ATOM     17  C   UNL     1       3.618   3.960  18.809  0.00  0.00    +0.000 C 
ATOM     18  C   UNL     1       3.145   4.386  20.235  0.00  0.00    +0.000 C 
ATOM     19  C   UNL     1       1.705   3.982  20.569  0.00  0.00    +0.000 C 
ATOM     20  C   UNL     1       1.472   2.491  20.361  0.00  0.00    +0.000 C 
ATOM     21  C   UNL     1       1.842   2.056  18.948  0.00  0.00    +0.000 C 
ATOM     22  C   UNL     1       3.285   2.441  18.616  0.00  0.00    +0.000 C 
BRANCH  17  23
ATOM     23  N   UNL     1       5.108   4.204  18.587  0.00  0.00    +0.000 NA
ATOM     24  C   UNL     1       5.467   4.372  17.161  0.00  0.00    +0.000 C 
ATOM     25  C   UNL     1       6.970   4.569  16.933  0.00  0.00    +0.000 C 
ATOM     26  C   UNL     1       7.502   5.743  17.737  0.00  0.00    +0.000 C 
ATOM     27  C   UNL     1       7.154   5.540  19.198  0.00  0.00    +0.000 C 
ATOM     28  C   UNL     1       5.650   5.328  19.382  0.00  0.00    +0.000 C 
ENDBRANCH  17  23
ENDBRANCH  16  17
ENDBRANCH   3  16
TORSDOF 5
ENDMDL
MODEL 4
REMARK VINA RESULT:      -8.4      2.179      4.185
REMARK  Name = 
REMARK  6 active torsions:
REMARK  status: ('A' for Active; 'I' for Inactive)
REMARK    1  A    between atoms: C_1  and  C_2
REMARK    2  A    between atoms: N_4  and  C_5
REMARK    3  A    between atoms: C_8  and  C_9
REMARK    4  A    between atoms: N_11  and  C_12
REMARK    5  A    between atoms: C_12  and  C_13
REMARK    6  A    between atoms: C_13  and  N_14
REMARK                            x       y       z     vdW  Elec       q    Type
REMARK                         _______ _______ _______ _____ _____    ______ ____
ROOT
ATOM      1  C   UNL     1       2.196   8.475  18.166  0.00  0.00    +0.000 C 
ATOM      2  O   UNL     1       2.369   8.946  17.045  0.00  0.00    +0.000 OA
ATOM      3  N   UNL     1       2.806   7.320  18.602  0.00  0.00    +0.000 N 
ATOM      4  H   UNL     1       2.563   6.895  19.487  0.00  0.00    +0.000 HD
ENDROOT
BRANCH   1   8
ATOM      5  C   UNL     1      -0.436  10.632  20.806  0.00  0.00    +0.000 A 
ATOM      6  C   UNL     1      -0.425  10.870  19.432  0.00  0.00    +0.000 A 
ATOM      7  C   UNL     1       0.430  10.150  18.593  0.00  0.00    +0.000 A 
ATOM      8  C   UNL     1       1.281   9.168  19.112  0.00  0.00    +0.000 A 
ATOM      9  C   UNL     1       1.276   8.924  20.491  0.00  0.00    +0.000 A 
ATOM     10  C   UNL     1       0.430   9.661  21.330  0.00  0.00    +0.000 A 
BRANCH   5  14
ATOM     11  C   UNL     1      -1.961  12.951  23.364  0.00  0.00    +0.000 C 
ATOM     12  C   UNL     1      -0.907  12.509  22.383  0.00  0.00    +0.000 C 
ATOM     13  O   UNL     1       0.128  13.153  22.251  0.00  0.00    +0.000 OA
ATOM     14  N   UNL     1      -1.255  11.349  21.705  0.00  0.00    +0.000 N 
ATOM     15  H   UNL     1      -2.202  11.016  21.820  0.00  0.00    +0.000 HD
ENDBRANCH   5  14
ENDBRANCH   1   8
BRANCH   3  16
ATOM     16  C   UNL     1       3.699   6.563  17.739  0.00  0.00    +0.000 C 
BRANCH  16  17
ATOM     17  C   UNL     1       3.987   5.100  18.255  0.00  0.00    +0.000 C 
ATOM     18  C   UNL     1       4.352   4.222  17.016  0.00  0.00    +0.000 C 
ATOM     19  C   UNL     1       5.670   4.606  16.336  0.00  0.00    +0.000 C 
ATOM     20  C   UNL     1       6.830   4.629  17.323  0.00  0.00    +0.000 C 
ATOM     21  C   UNL     1       6.545   5.547  18.505  0.00  0.00    +0.000 C 
ATOM     22  C   UNL     1       5.238   5.158  19.199  0.00  0.00    +0.000 C 
BRANCH  17  23
ATOM     23  N   UNL     1       2.778   4.569  19.017  0.00  0.00    +0.000 NA
ATOM     24  C   UNL     1       2.153   3.389  18.377  0.00  0.00    +0.000 C 
ATOM     25  C   UNL     1       0.909   2.885  19.117  0.00  0.00    +0.000 C 
ATOM     26  C   UNL     1       1.219   2.574  20.570  0.00  0.00    +0.000 C 
ATOM     27  C   UNL     1       1.828   3.800  21.220  0.00  0.00    +0.000 C 
ATOM     28  C   UNL     1       3.054   4.284  20.443  0.00  0.00    +0.000 C 
ENDBRANCH  17  23
ENDBRANCH  16  17
ENDBRANCH   3  16
TORSDOF 5
ENDMDL
MODEL 5
REMARK VINA RESULT:      -8.4      1.098      1.575
REMARK  Name = 
REMARK  6 active torsions:
REMARK  status: ('A' for Active; 'I' for Inactive)
REMARK    1  A    between atoms: C_1  and  C_2
REMARK    2  A    between atoms: N_4  and  C_5
REMARK    3  A    between atoms: C_8  and  C_9
REMARK    4  A    between atoms: N_11  and  C_12
REMARK    5  A    between atoms: C_12  and  C_13
REMARK    6  A    between atoms: C_13  and  N_14
REMARK                            x       y       z     vdW  Elec       q    Type
REMARK                         _______ _______ _______ _____ _____    ______ ____
ROOT
ATOM      1  C   UNL     1       2.052   6.843  20.120  0.00  0.00    +0.000 C 
ATOM      2  O   UNL     1       1.397   6.194  20.931  0.00  0.00    +0.000 OA
ATOM      3  N   UNL     1       3.206   6.372  19.534  0.00  0.00    +0.000 N 
ATOM      4  H   UNL     1       3.786   6.966  18.955  0.00  0.00    +0.000 HD
ENDROOT
BRANCH   1   8
ATOM      5  C   UNL     1       0.895  10.821  18.943  0.00  0.00    +0.000 A 
ATOM      6  C   UNL     1       1.611   9.985  18.086  0.00  0.00    +0.000 A 
ATOM      7  C   UNL     1       1.966   8.694  18.485  0.00  0.00    +0.000 A 
ATOM      8  C   UNL     1       1.599   8.209  19.745  0.00  0.00    +0.000 A 
ATOM      9  C   UNL     1       0.881   9.042  20.612  0.00  0.00    +0.000 A 
ATOM     10  C   UNL     1       0.542  10.342  20.214  0.00  0.00    +0.000 A 
BRANCH   5  14
ATOM     11  C   UNL     1       0.489  14.554  18.573  0.00  0.00    +0.000 C 
ATOM     12  C   UNL     1       1.204  13.297  18.992  0.00  0.00    +0.000 C 
ATOM     13  O   UNL     1       2.261  13.361  19.611  0.00  0.00    +0.000 OA
ATOM     14  N   UNL     1       0.536  12.144  18.607  0.00  0.00    +0.000 N 
ATOM     15  H   UNL     1      -0.249  12.255  17.979  0.00  0.00    +0.000 HD
ENDBRANCH   5  14
ENDBRANCH   1   8
BRANCH   3  16
ATOM     16  C   UNL     1       3.738   5.057  19.856  0.00  0.00    +0.000 C 
BRANCH  16  17
ATOM     17  C   UNL     1       4.328   4.290  18.609  0.00  0.00    +0.000 C 
ATOM     18  C   UNL     1       4.368   2.769  18.961  0.00  0.00    +0.000 C 
ATOM     19  C   UNL     1       2.988   2.125  19.131  0.00  0.00    +0.000 C 
ATOM     20  C   UNL     1       2.099   2.361  17.917  0.00  0.00    +0.000 C 
ATOM     21  C   UNL     1       1.967   3.844  17.596  0.00  0.00    +0.000 C 
ATOM     22  C   UNL     1       3.341   4.490  17.408  0.00  0.00    +0.000 C 
BRANCH  17  23
ATOM     23  N   UNL     1       5.703   4.849  18.257  0.00  0.00    +0.000 NA
ATOM     24  C   UNL     1       5.667   5.857  17.174  0.00  0.00    +0.000 C 
ATOM     25  C   UNL     1       7.054   6.383  16.788  0.00  0.00    +0.000 C 
ATOM     26  C   UNL     1       7.784   6.952  17.992  0.00  0.00    +0.000 C 
ATOM     27  C   UNL     1       7.841   5.898  19.080  0.00  0.00    +0.000 C 
ATOM     28  C   UNL     1       6.441   5.385  19.424  0.00  0.00    +0.000 C 
ENDBRANCH  17  23
ENDBRANCH  16  17
ENDBRANCH   3  16
TORSDOF 5
ENDMDL
MODEL 6
REMARK VINA RESULT:      -8.4      0.806      1.241
REMARK  Name = 
REMARK  6 active torsions:
REMARK  status: ('A' for Active; 'I' for Inactive)
REMARK    1  A    between atoms: C_1  and  C_2
REMARK    2  A    between atoms: N_4  and  C_5
REMARK    3  A    between atoms: C_8  and  C_9
REMARK    4  A    between atoms: N_11  and  C_12
REMARK    5  A    between atoms: C_12  and  C_13
REMARK    6  A    between atoms: C_13  and  N_14
REMARK                            x       y       z     vdW  Elec       q    Type
REMARK                         _______ _______ _______ _____ _____    ______ ____
ROOT
ATOM      1  C   UNL     1       2.318   6.362  19.998  0.00  0.00    +0.000 C 
ATOM      2  O   UNL     1       1.746   5.712  20.869  0.00  0.00    +0.000 OA
ATOM      3  N   UNL     1       3.372   5.872  19.260  0.00  0.00    +0.000 N 
ATOM      4  H   UNL     1       3.896   6.463  18.628  0.00  0.00    +0.000 HD
ENDROOT
BRANCH   1   8
ATOM      5  C   UNL     1       1.165  10.408  19.076  0.00  0.00    +0.000 A 
ATOM      6  C   UNL     1       1.761   9.583  18.123  0.00  0.00    +0.000 A 
ATOM      7  C   UNL     1       2.117   8.271  18.441  0.00  0.00    +0.000 A 
ATOM      8  C   UNL     1       1.870   7.752  19.717  0.00  0.00    +0.000 A 
ATOM      9  C   UNL     1       1.272   8.574  20.680  0.00  0.00    +0.000 A 
ATOM     10  C   UNL     1       0.933   9.896  20.362  0.00  0.00    +0.000 A 
BRANCH   5  14
ATOM     11  C   UNL     1      -0.491  13.698  18.254  0.00  0.00    +0.000 C 
ATOM     12  C   UNL     1      -0.470  12.241  18.632  0.00  0.00    +0.000 C 
ATOM     13  O   UNL     1      -1.518  11.613  18.740  0.00  0.00    +0.000 OA
ATOM     14  N   UNL     1       0.813  11.751  18.821  0.00  0.00    +0.000 N 
ATOM     15  H   UNL     1       1.565  12.427  18.836  0.00  0.00    +0.000 HD
ENDBRANCH   5  14
ENDBRANCH   1   8
BRANCH   3  16
ATOM     16  C   UNL     1       3.893   4.532  19.481  0.00  0.00    +0.000 C 
BRANCH  16  17
ATOM     17  C   UNL     1       3.795   3.598  18.213  0.00  0.00    +0.000 C 
ATOM     18  C   UNL     1       3.586   2.134  18.716  0.00  0.00    +0.000 C 
ATOM     19  C   UNL     1       2.245   1.894  19.417  0.00  0.00    +0.000 C 
ATOM     20  C   UNL     1       1.068   2.326  18.553  0.00  0.00    +0.000 C 
ATOM     21  C   UNL     1       1.195   3.780  18.115  0.00  0.00    +0.000 C 
ATOM     22  C   UNL     1       2.525   4.022  17.398  0.00  0.00    +0.000 C 
BRANCH  17  23
ATOM     23  N   UNL     1       5.046   3.752  17.354  0.00  0.00    +0.000 NA
ATOM     24  C   UNL     1       4.779   4.366  16.034  0.00  0.00    +0.000 C 
ATOM     25  C   UNL     1       6.028   4.477  15.152  0.00  0.00    +0.000 C 
ATOM     26  C   UNL     1       7.136   5.239  15.857  0.00  0.00    +0.000 C 
ATOM     27  C   UNL     1       7.420   4.580  17.192  0.00  0.00    +0.000 C 
ATOM     28  C   UNL     1       6.147   4.470  18.034  0.00  0.00    +0.000 C 
ENDBRANCH  17  23
ENDBRANCH  16  17
ENDBRANCH   3  16
TORSDOF 5
ENDMDL
MODEL 7
REMARK VINA RESULT:      -8.3      0.952      1.646
REMARK  Name = 
REMARK  6 active torsions:
REMARK  status: ('A' for Active; 'I' for Inactive)
REMARK    1  A    between atoms: C_1  and  C_2
REMARK    2  A    between atoms: N_4  and  C_5
REMARK    3  A    between atoms: C_8  and  C_9
REMARK    4  A    between atoms: N_11  and  C_12
REMARK    5  A    between atoms: C_12  and  C_13
REMARK    6  A    between atoms: C_13  and  N_14
REMARK                            x       y       z     vdW  Elec       q    Type
REMARK                         _______ _______ _______ _____ _____    ______ ____
ROOT
ATOM      1  C   UNL     1       1.988   6.780  20.175  0.00  0.00    +0.000 C 
ATOM      2  O   UNL     1       1.288   6.051  20.874  0.00  0.00    +0.000 OA
ATOM      3  N   UNL     1       3.139   6.350  19.554  0.00  0.00    +0.000 N 
ATOM      4  H   UNL     1       3.755   6.994  19.076  0.00  0.00    +0.000 HD
ENDROOT
BRANCH   1   8
ATOM      5  C   UNL     1       0.987  10.916  19.511  0.00  0.00    +0.000 A 
ATOM      6  C   UNL     1       1.487  10.112  18.487  0.00  0.00    +0.000 A 
ATOM      7  C   UNL     1       1.794   8.770  18.723  0.00  0.00    +0.000 A 
ATOM      8  C   UNL     1       1.594   8.201  19.986  0.00  0.00    +0.000 A 
ATOM      9  C   UNL     1       1.093   9.002  21.020  0.00  0.00    +0.000 A 
ATOM     10  C   UNL     1       0.803  10.352  20.783  0.00  0.00    +0.000 A 
BRANCH   5  14
ATOM     11  C   UNL     1      -0.370  14.308  18.567  0.00  0.00    +0.000 C 
ATOM     12  C   UNL     1      -0.415  12.808  18.684  0.00  0.00    +0.000 C 
ATOM     13  O   UNL     1      -1.360  12.177  18.221  0.00  0.00    +0.000 OA
ATOM     14  N   UNL     1       0.689  12.285  19.340  0.00  0.00    +0.000 N 
ATOM     15  H   UNL     1       1.311  12.943  19.789  0.00  0.00    +0.000 HD
ENDBRANCH   5  14
ENDBRANCH   1   8
BRANCH   3  16
ATOM     16  C   UNL     1       3.614   4.983  19.701  0.00  0.00    +0.000 C 
BRANCH  16  17
ATOM     17  C   UNL     1       3.669   4.182  18.341  0.00  0.00    +0.000 C 
ATOM     18  C   UNL     1       3.919   2.680  18.685  0.00  0.00    +0.000 C 
ATOM     19  C   UNL     1       2.765   2.002  19.430  0.00  0.00    +0.000 C 
ATOM     20  C   UNL     1       1.443   2.159  18.689  0.00  0.00    +0.000 C 
ATOM     21  C   UNL     1       1.122   3.623  18.414  0.00  0.00    +0.000 C 
ATOM     22  C   UNL     1       2.264   4.301  17.655  0.00  0.00    +0.000 C 
BRANCH  17  23
ATOM     23  N   UNL     1       4.748   4.767  17.436  0.00  0.00    +0.000 NA
ATOM     24  C   UNL     1       6.098   4.740  18.041  0.00  0.00    +0.000 C 
ATOM     25  C   UNL     1       7.175   5.371  17.150  0.00  0.00    +0.000 C 
ATOM     26  C   UNL     1       7.214   4.715  15.781  0.00  0.00    +0.000 C 
ATOM     27  C   UNL     1       5.832   4.779  15.162  0.00  0.00    +0.000 C 
ATOM     28  C   UNL     1       4.784   4.157  16.087  0.00  0.00    +0.000 C 
ENDBRANCH  17  23
ENDBRANCH  16  17
ENDBRANCH   3  16
TORSDOF 5
ENDMDL
MODEL 8
REMARK VINA RESULT:      -8.2      0.645      1.146
REMARK  Name = 
REMARK  6 active torsions:
REMARK  status: ('A' for Active; 'I' for Inactive)
REMARK    1  A    between atoms: C_1  and  C_2
REMARK    2  A    between atoms: N_4  and  C_5
REMARK    3  A    between atoms: C_8  and  C_9
REMARK    4  A    between atoms: N_11  and  C_12
REMARK    5  A    between atoms: C_12  and  C_13
REMARK    6  A    between atoms: C_13  and  N_14
REMARK                            x       y       z     vdW  Elec       q    Type
REMARK                         _______ _______ _______ _____ _____    ______ ____
ROOT
ATOM      1  C   UNL     1       2.077   6.970  20.003  0.00  0.00    +0.000 C 
ATOM      2  O   UNL     1       1.481   6.313  20.852  0.00  0.00    +0.000 OA
ATOM      3  N   UNL     1       3.169   6.496  19.310  0.00  0.00    +0.000 N 
ATOM      4  H   UNL     1       3.708   7.094  18.698  0.00  0.00    +0.000 HD
ENDROOT
BRANCH   1   8
ATOM      5  C   UNL     1       0.606  10.944  19.233  0.00  0.00    +0.000 A 
ATOM      6  C   UNL     1       0.472  10.346  20.486  0.00  0.00    +0.000 A 
ATOM      7  C   UNL     1       0.967   9.060  20.715  0.00  0.00    +0.000 A 
ATOM      8  C   UNL     1       1.618   8.352  19.699  0.00  0.00    +0.000 A 
ATOM      9  C   UNL     1       1.756   8.946  18.438  0.00  0.00    +0.000 A 
ATOM     10  C   UNL     1       1.242  10.228  18.207  0.00  0.00    +0.000 A 
BRANCH   5  14
ATOM     11  C   UNL     1      -0.096  14.626  18.791  0.00  0.00    +0.000 C 
ATOM     12  C   UNL     1       0.773  13.430  19.076  0.00  0.00    +0.000 C 
ATOM     13  O   UNL     1       1.947  13.578  19.400  0.00  0.00    +0.000 OA
ATOM     14  N   UNL     1       0.098  12.227  18.933  0.00  0.00    +0.000 N 
ATOM     15  H   UNL     1      -0.825  12.264  18.523  0.00  0.00    +0.000 HD
ENDBRANCH   5  14
ENDBRANCH   1   8
BRANCH   3  16
ATOM     16  C   UNL     1       3.703   5.166  19.556  0.00  0.00    +0.000 C 
BRANCH  16  17
ATOM     17  C   UNL     1       3.740   4.251  18.270  0.00  0.00    +0.000 C 
ATOM     18  C   UNL     1       4.068   2.795  18.732  0.00  0.00    +0.000 C 
ATOM     19  C   UNL     1       2.973   2.141  19.580  0.00  0.00    +0.000 C 
ATOM     20  C   UNL     1       1.618   2.179  18.883  0.00  0.00    +0.000 C 
ATOM     21  C   UNL     1       1.225   3.599  18.496  0.00  0.00    +0.000 C 
ATOM     22  C   UNL     1       2.308   4.253  17.635  0.00  0.00    +0.000 C 
BRANCH  17  23
ATOM     23  N   UNL     1       4.758   4.796  17.274  0.00  0.00    +0.000 NA
ATOM     24  C   UNL     1       6.128   4.886  17.826  0.00  0.00    +0.000 C 
ATOM     25  C   UNL     1       7.142   5.478  16.840  0.00  0.00    +0.000 C 
ATOM     26  C   UNL     1       7.167   4.699  15.538  0.00  0.00    +0.000 C 
ATOM     27  C   UNL     1       5.762   4.643  14.968  0.00  0.00    +0.000 C 
ATOM     28  C   UNL     1       4.778   4.064  15.987  0.00  0.00    +0.000 C 
ENDBRANCH  17  23
ENDBRANCH  16  17
ENDBRANCH   3  16
TORSDOF 5
ENDMDL
MODEL 9
REMARK VINA RESULT:      -8.1      1.996      4.159
REMARK  Name = 
REMARK  6 active torsions:
REMARK  status: ('A' for Active; 'I' for Inactive)
REMARK    1  A    between atoms: C_1  and  C_2
REMARK    2  A    between atoms: N_4  and  C_5
REMARK    3  A    between atoms: C_8  and  C_9
REMARK    4  A    between atoms: N_11  and  C_12
REMARK    5  A    between atoms: C_12  and  C_13
REMARK    6  A    between atoms: C_13  and  N_14
REMARK                            x       y       z     vdW  Elec       q    Type
REMARK                         _______ _______ _______ _____ _____    ______ ____
ROOT
ATOM      1  C   UNL     1       2.713   7.806  18.002  0.00  0.00    +0.000 C 
ATOM      2  O   UNL     1       3.221   8.390  17.048  0.00  0.00    +0.000 OA
ATOM      3  N   UNL     1       2.921   6.471  18.267  0.00  0.00    +0.000 N 
ATOM      4  H   UNL     1       2.405   5.988  18.991  0.00  0.00    +0.000 HD
ENDROOT
BRANCH   1   8
ATOM      5  C   UNL     1       0.088   9.828  20.753  0.00  0.00    +0.000 A 
ATOM      6  C   UNL     1       0.875   8.749  21.154  0.00  0.00    +0.000 A 
ATOM      7  C   UNL     1       1.727   8.116  20.247  0.00  0.00    +0.000 A 
ATOM      8  C   UNL     1       1.819   8.559  18.923  0.00  0.00    +0.000 A 
ATOM      9  C   UNL     1       1.031   9.641  18.512  0.00  0.00    +0.000 A 
ATOM     10  C   UNL     1       0.165  10.261  19.421  0.00  0.00    +0.000 A 
BRANCH   5  14
ATOM     11  C   UNL     1      -1.731  12.099  23.157  0.00  0.00    +0.000 C 
ATOM     12  C   UNL     1      -0.641  11.741  22.181  0.00  0.00    +0.000 C 
ATOM     13  O   UNL     1       0.276  12.525  21.960  0.00  0.00    +0.000 OA
ATOM     14  N   UNL     1      -0.815  10.487  21.616  0.00  0.00    +0.000 N 
ATOM     15  H   UNL     1      -1.695  10.021  21.792  0.00  0.00    +0.000 HD
ENDBRANCH   5  14
ENDBRANCH   1   8
BRANCH   3  16
ATOM     16  C   UNL     1       3.760   5.650  17.409  0.00  0.00    +0.000 C 
BRANCH  16  17
ATOM     17  C   UNL     1       4.425   4.428  18.154  0.00  0.00    +0.000 C 
ATOM     18  C   UNL     1       5.220   3.600  17.096  0.00  0.00    +0.000 C 
ATOM     19  C   UNL     1       6.429   4.331  16.502  0.00  0.00    +0.000 C 
ATOM     20  C   UNL     1       7.370   4.842  17.586  0.00  0.00    +0.000 C 
ATOM     21  C   UNL     1       6.643   5.728  18.590  0.00  0.00    +0.000 C 
ATOM     22  C   UNL     1       5.445   4.997  19.199  0.00  0.00    +0.000 C 
BRANCH  17  23
ATOM     23  N   UNL     1       3.353   3.604  18.861  0.00  0.00    +0.000 NA
ATOM     24  C   UNL     1       3.046   4.090  20.225  0.00  0.00    +0.000 C 
ATOM     25  C   UNL     1       2.004   3.233  20.954  0.00  0.00    +0.000 C 
ATOM     26  C   UNL     1       0.721   3.121  20.150  0.00  0.00    +0.000 C 
ATOM     27  C   UNL     1       1.048   2.594  18.767  0.00  0.00    +0.000 C 
ATOM     28  C   UNL     1       2.103   3.463  18.081  0.00  0.00    +0.000 C 
ENDBRANCH  17  23
ENDBRANCH  16  17
ENDBRANCH   3  16
TORSDOF 5
ENDMDL
