MODEL 1
REMARK VINA RESULT:      -7.4      0.000      0.000
REMARK  Name = 
REMARK  14 active torsions:
REMARK  status: ('A' for Active; 'I' for Inactive)
REMARK    1  A    between atoms: C_1  and  O_2
REMARK    2  A    between atoms: O_2  and  C_3
REMARK    3  A    between atoms: C_5  and  O_6
REMARK    4  A    between atoms: O_6  and  C_7
REMARK    5  A    between atoms: C_13  and  O_14
REMARK    6  A    between atoms: O_14  and  C_15
REMARK    7  A    between atoms: C_16  and  O_17
REMARK    8  A    between atoms: O_17  and  C_18
REMARK    9  A    between atoms: C_23  and  C_24
REMARK   10  A    between atoms: C_24  and  C_25
REMARK   11  A    between atoms: N_27  and  C_28
REMARK   12  A    between atoms: N_31  and  C_32
REMARK   13  A    between atoms: C_32  and  C_33
REMARK   14  A    between atoms: C_32  and  C_34
REMARK                            x       y       z     vdW  Elec       q    Type
REMARK                         _______ _______ _______ _____ _____    ______ ____
ROOT
ATOM      1  C   UNL     1       1.979   8.258  19.411  0.00  0.00    +0.000 A 
ATOM      2  C   UNL     1       2.250   7.121  18.568  0.00  0.00    +0.000 A 
ATOM      3  C   UNL     1       2.151   5.820  19.055  0.00  0.00    +0.000 A 
ATOM      4  C   UNL     1       1.810   5.705  20.423  0.00  0.00    +0.000 A 
ATOM      5  C   UNL     1       1.480   6.819  21.245  0.00  0.00    +0.000 A 
ATOM      6  C   UNL     1       1.491   8.121  20.746  0.00  0.00    +0.000 A 
ENDROOT
BRANCH   1   8
ATOM      7  C   UNL     1       1.664   9.852  17.662  0.00  0.00    +0.000 C 
ATOM      8  O   UNL     1       2.155   9.556  18.971  0.00  0.00    +0.000 OA
ENDBRANCH   1   8
BRANCH   3   9
ATOM      9  O   UNL     1       2.130   4.624  18.318  0.00  0.00    +0.000 OA
BRANCH   9  10
ATOM     10  C   UNL     1       3.242   3.911  17.736  0.00  0.00    +0.000 A 
ATOM     11  C   UNL     1       3.440   2.749  18.467  0.00  0.00    +0.000 A 
ATOM     12  C   UNL     1       4.416   2.858  19.429  0.00  0.00    +0.000 A 
ATOM     13  N   UNL     1       5.277   3.899  19.458  0.00  0.00    +0.000 NA
ATOM     14  C   UNL     1       5.350   4.642  18.336  0.00  0.00    +0.000 A 
ATOM     15  C   UNL     1       6.463   5.402  18.117  0.00  0.00    +0.000 A 
ATOM     16  C   UNL     1       6.871   5.793  16.833  0.00  0.00    +0.000 A 
ATOM     17  C   UNL     1       6.168   5.308  15.727  0.00  0.00    +0.000 A 
ATOM     18  C   UNL     1       4.917   4.693  15.980  0.00  0.00    +0.000 A 
ATOM     19  C   UNL     1       4.425   4.532  17.317  0.00  0.00    +0.000 A 
BRANCH  16  20
ATOM     20  O   UNL     1       7.981   6.570  16.637  0.00  0.00    +0.000 OA
ATOM     21  C   UNL     1       8.022   7.802  17.366  0.00  0.00    +0.000 C 
ENDBRANCH  16  20
BRANCH  17  22
ATOM     22  O   UNL     1       6.573   5.281  14.418  0.00  0.00    +0.000 OA
ATOM     23  C   UNL     1       6.349   4.135  13.589  0.00  0.00    +0.000 C 
ENDBRANCH  17  22
ENDBRANCH   9  10
ENDBRANCH   3   9
BRANCH   6  24
ATOM     24  C   UNL     1       1.125   9.333  21.629  0.00  0.00    +0.000 C 
BRANCH  24  25
ATOM     25  C   UNL     1      -0.280   9.997  21.519  0.00  0.00    +0.000 C 
ATOM     26  O   UNL     1      -1.110   9.859  22.423  0.00  0.00    +0.000 OA
ATOM     27  N   UNL     1      -0.504  10.796  20.396  0.00  0.00    +0.000 N 
ATOM     28  H   UNL     1       0.199  10.795  19.671  0.00  0.00    +0.000 HD
BRANCH  27  29
ATOM     29  C   UNL     1      -1.665  11.546  20.144  0.00  0.00    +0.000 A 
ATOM     30  C   UNL     1      -2.241  12.651  20.808  0.00  0.00    +0.000 A 
ATOM     31  N   UNL     1      -3.396  13.061  20.256  0.00  0.00    +0.000 NA
ATOM     32  N   UNL     1      -3.593  12.200  19.226  0.00  0.00    +0.000 N 
ATOM     33  C   UNL     1      -2.545  11.315  19.098  0.00  0.00    +0.000 A 
BRANCH  32  34
ATOM     34  C   UNL     1      -4.846  12.228  18.473  0.00  0.00    +0.000 C 
ATOM     35  C   UNL     1      -5.073  10.934  17.687  0.00  0.00    +0.000 C 
ATOM     36  C   UNL     1      -6.086  12.538  19.318  0.00  0.00    +0.000 C 
ENDBRANCH  32  34
ENDBRANCH  27  29
ENDBRANCH  24  25
ENDBRANCH   6  24
TORSDOF 9
ENDMDL
MODEL 2
REMARK VINA RESULT:      -7.2      1.519      1.796
REMARK  Name = 
REMARK  14 active torsions:
REMARK  status: ('A' for Active; 'I' for Inactive)
REMARK    1  A    between atoms: C_1  and  O_2
REMARK    2  A    between atoms: O_2  and  C_3
REMARK    3  A    between atoms: C_5  and  O_6
REMARK    4  A    between atoms: O_6  and  C_7
REMARK    5  A    between atoms: C_13  and  O_14
REMARK    6  A    between atoms: O_14  and  C_15
REMARK    7  A    between atoms: C_16  and  O_17
REMARK    8  A    between atoms: O_17  and  C_18
REMARK    9  A    between atoms: C_23  and  C_24
REMARK   10  A    between atoms: C_24  and  C_25
REMARK   11  A    between atoms: N_27  and  C_28
REMARK   12  A    between atoms: N_31  and  C_32
REMARK   13  A    between atoms: C_32  and  C_33
REMARK   14  A    between atoms: C_32  and  C_34
REMARK                            x       y       z     vdW  Elec       q    Type
REMARK                         _______ _______ _______ _____ _____    ______ ____
ROOT
ATOM      1  C   UNL     1       1.564   8.354  19.117  0.00  0.00    +0.000 A 
ATOM      2  C   UNL     1       1.670   7.325  18.113  0.00  0.00    +0.000 A 
ATOM      3  C   UNL     1       1.873   5.992  18.461  0.00  0.00    +0.000 A 
ATOM      4  C   UNL     1       2.005   5.737  19.846  0.00  0.00    +0.000 A 
ATOM      5  C   UNL     1       1.840   6.736  20.847  0.00  0.00    +0.000 A 
ATOM      6  C   UNL     1       1.549   8.058  20.514  0.00  0.00    +0.000 A 
ENDROOT
BRANCH   1   8
ATOM      7  C   UNL     1       2.376  10.186  17.821  0.00  0.00    +0.000 C 
ATOM      8  O   UNL     1       1.449   9.690  18.789  0.00  0.00    +0.000 OA
ENDBRANCH   1   8
BRANCH   3   9
ATOM      9  O   UNL     1       1.744   4.859  17.641  0.00  0.00    +0.000 OA
BRANCH   9  10
ATOM     10  C   UNL     1       2.764   3.913  17.253  0.00  0.00    +0.000 A 
ATOM     11  C   UNL     1       2.357   2.650  17.657  0.00  0.00    +0.000 A 
ATOM     12  C   UNL     1       2.887   2.254  18.862  0.00  0.00    +0.000 A 
ATOM     13  N   UNL     1       3.913   2.914  19.442  0.00  0.00    +0.000 NA
ATOM     14  C   UNL     1       4.599   3.762  18.650  0.00  0.00    +0.000 A 
ATOM     15  C   UNL     1       5.870   4.117  19.003  0.00  0.00    +0.000 A 
ATOM     16  C   UNL     1       6.821   4.550  18.068  0.00  0.00    +0.000 A 
ATOM     17  C   UNL     1       6.489   4.529  16.710  0.00  0.00    +0.000 A 
ATOM     18  C   UNL     1       5.122   4.350  16.386  0.00  0.00    +0.000 A 
ATOM     19  C   UNL     1       4.136   4.148  17.408  0.00  0.00    +0.000 A 
BRANCH  16  20
ATOM     20  O   UNL     1       8.085   4.919  18.446  0.00  0.00    +0.000 OA
ATOM     21  C   UNL     1       8.203   6.197  19.082  0.00  0.00    +0.000 C 
ENDBRANCH  16  20
BRANCH  17  22
ATOM     22  O   UNL     1       7.338   4.583  15.636  0.00  0.00    +0.000 OA
ATOM     23  C   UNL     1       6.853   4.835  14.311  0.00  0.00    +0.000 C 
ENDBRANCH  17  22
ENDBRANCH   9  10
ENDBRANCH   3   9
BRANCH   6  24
ATOM     24  C   UNL     1       1.360   9.144  21.594  0.00  0.00    +0.000 C 
BRANCH  24  25
ATOM     25  C   UNL     1      -0.069   9.602  22.014  0.00  0.00    +0.000 C 
ATOM     26  O   UNL     1      -0.843   8.813  22.566  0.00  0.00    +0.000 OA
ATOM     27  N   UNL     1      -0.380  10.946  21.796  0.00  0.00    +0.000 N 
ATOM     28  H   UNL     1       0.280  11.502  21.273  0.00  0.00    +0.000 HD
BRANCH  27  29
ATOM     29  C   UNL     1      -1.577  11.580  22.172  0.00  0.00    +0.000 A 
ATOM     30  C   UNL     1      -2.298  11.597  23.387  0.00  0.00    +0.000 A 
ATOM     31  N   UNL     1      -3.434  12.312  23.321  0.00  0.00    +0.000 NA
ATOM     32  N   UNL     1      -3.471  12.755  22.039  0.00  0.00    +0.000 N 
ATOM     33  C   UNL     1      -2.345  12.379  21.340  0.00  0.00    +0.000 A 
BRANCH  32  34
ATOM     34  C   UNL     1      -4.655  13.447  21.533  0.00  0.00    +0.000 C 
ATOM     35  C   UNL     1      -5.507  12.548  20.634  0.00  0.00    +0.000 C 
ATOM     36  C   UNL     1      -5.539  14.067  22.621  0.00  0.00    +0.000 C 
ENDBRANCH  32  34
ENDBRANCH  27  29
ENDBRANCH  24  25
ENDBRANCH   6  24
TORSDOF 9
ENDMDL
MODEL 3
REMARK VINA RESULT:      -7.2      1.455      2.047
REMARK  Name = 
REMARK  14 active torsions:
REMARK  status: ('A' for Active; 'I' for Inactive)
REMARK    1  A    between atoms: C_1  and  O_2
REMARK    2  A    between atoms: O_2  and  C_3
REMARK    3  A    between atoms: C_5  and  O_6
REMARK    4  A    between atoms: O_6  and  C_7
REMARK    5  A    between atoms: C_13  and  O_14
REMARK    6  A    between atoms: O_14  and  C_15
REMARK    7  A    between atoms: C_16  and  O_17
REMARK    8  A    between atoms: O_17  and  C_18
REMARK    9  A    between atoms: C_23  and  C_24
REMARK   10  A    between atoms: C_24  and  C_25
REMARK   11  A    between atoms: N_27  and  C_28
REMARK   12  A    between atoms: N_31  and  C_32
REMARK   13  A    between atoms: C_32  and  C_33
REMARK   14  A    between atoms: C_32  and  C_34
REMARK                            x       y       z     vdW  Elec       q    Type
REMARK                         _______ _______ _______ _____ _____    ______ ____
ROOT
ATOM      1  C   UNL     1       1.780   8.068  19.404  0.00  0.00    +0.000 A 
ATOM      2  C   UNL     1       1.882   7.062  18.377  0.00  0.00    +0.000 A 
ATOM      3  C   UNL     1       1.822   5.705  18.684  0.00  0.00    +0.000 A 
ATOM      4  C   UNL     1       1.696   5.396  20.059  0.00  0.00    +0.000 A 
ATOM      5  C   UNL     1       1.531   6.383  21.073  0.00  0.00    +0.000 A 
ATOM      6  C   UNL     1       1.503   7.743  20.766  0.00  0.00    +0.000 A 
ENDROOT
BRANCH   1   8
ATOM      7  C   UNL     1       1.838   9.791  17.753  0.00  0.00    +0.000 C 
ATOM      8  O   UNL     1       1.924   9.413  19.129  0.00  0.00    +0.000 OA
ENDBRANCH   1   8
BRANCH   3   9
ATOM      9  O   UNL     1       1.649   4.628  17.799  0.00  0.00    +0.000 OA
BRANCH   9  10
ATOM     10  C   UNL     1       2.652   3.731  17.274  0.00  0.00    +0.000 A 
ATOM     11  C   UNL     1       2.343   2.446  17.695  0.00  0.00    +0.000 A 
ATOM     12  C   UNL     1       3.027   2.051  18.821  0.00  0.00    +0.000 A 
ATOM     13  N   UNL     1       4.088   2.742  19.291  0.00  0.00    +0.000 NA
ATOM     14  C   UNL     1       4.642   3.630  18.442  0.00  0.00    +0.000 A 
ATOM     15  C   UNL     1       5.932   4.030  18.652  0.00  0.00    +0.000 A 
ATOM     16  C   UNL     1       6.749   4.517  17.622  0.00  0.00    +0.000 A 
ATOM     17  C   UNL     1       6.260   4.505  16.312  0.00  0.00    +0.000 A 
ATOM     18  C   UNL     1       4.873   4.277  16.146  0.00  0.00    +0.000 A 
ATOM     19  C   UNL     1       4.022   4.018  17.272  0.00  0.00    +0.000 A 
BRANCH  16  20
ATOM     20  O   UNL     1       8.033   4.929  17.857  0.00  0.00    +0.000 OA
ATOM     21  C   UNL     1       8.227   5.755  19.012  0.00  0.00    +0.000 C 
ENDBRANCH  16  20
BRANCH  17  22
ATOM     22  O   UNL     1       6.974   4.611  15.147  0.00  0.00    +0.000 OA
ATOM     23  C   UNL     1       6.454   4.123  13.904  0.00  0.00    +0.000 C 
ENDBRANCH  17  22
ENDBRANCH   9  10
ENDBRANCH   3   9
BRANCH   6  24
ATOM     24  C   UNL     1       1.316   8.817  21.859  0.00  0.00    +0.000 C 
BRANCH  24  25
ATOM     25  C   UNL     1       0.001   9.649  21.934  0.00  0.00    +0.000 C 
ATOM     26  O   UNL     1      -0.874   9.362  22.758  0.00  0.00    +0.000 OA
ATOM     27  N   UNL     1      -0.087  10.752  21.083  0.00  0.00    +0.000 N 
ATOM     28  H   UNL     1       0.638  10.870  20.391  0.00  0.00    +0.000 HD
BRANCH  27  29
ATOM     29  C   UNL     1      -1.145  11.675  21.048  0.00  0.00    +0.000 A 
ATOM     30  C   UNL     1      -2.057  12.033  20.030  0.00  0.00    +0.000 A 
ATOM     31  N   UNL     1      -2.912  13.003  20.398  0.00  0.00    +0.000 NA
ATOM     32  N   UNL     1      -2.545  13.301  21.669  0.00  0.00    +0.000 N 
ATOM     33  C   UNL     1      -1.525  12.485  22.108  0.00  0.00    +0.000 A 
BRANCH  32  34
ATOM     34  C   UNL     1      -3.150  14.437  22.363  0.00  0.00    +0.000 C 
ATOM     35  C   UNL     1      -2.122  15.522  22.695  0.00  0.00    +0.000 C 
ATOM     36  C   UNL     1      -4.339  15.067  21.629  0.00  0.00    +0.000 C 
ENDBRANCH  32  34
ENDBRANCH  27  29
ENDBRANCH  24  25
ENDBRANCH   6  24
TORSDOF 9
ENDMDL
MODEL 4
REMARK VINA RESULT:      -7.1      1.884      2.388
REMARK  Name = 
REMARK  14 active torsions:
REMARK  status: ('A' for Active; 'I' for Inactive)
REMARK    1  A    between atoms: C_1  and  O_2
REMARK    2  A    between atoms: O_2  and  C_3
REMARK    3  A    between atoms: C_5  and  O_6
REMARK    4  A    between atoms: O_6  and  C_7
REMARK    5  A    between atoms: C_13  and  O_14
REMARK    6  A    between atoms: O_14  and  C_15
REMARK    7  A    between atoms: C_16  and  O_17
REMARK    8  A    between atoms: O_17  and  C_18
REMARK    9  A    between atoms: C_23  and  C_24
REMARK   10  A    between atoms: C_24  and  C_25
REMARK   11  A    between atoms: N_27  and  C_28
REMARK   12  A    between atoms: N_31  and  C_32
REMARK   13  A    between atoms: C_32  and  C_33
REMARK   14  A    between atoms: C_32  and  C_34
REMARK                            x       y       z     vdW  Elec       q    Type
REMARK                         _______ _______ _______ _____ _____    ______ ____
ROOT
ATOM      1  C   UNL     1       1.746   7.938  19.469  0.00  0.00    +0.000 A 
ATOM      2  C   UNL     1       2.171   6.875  18.593  0.00  0.00    +0.000 A 
ATOM      3  C   UNL     1       2.153   5.546  19.007  0.00  0.00    +0.000 A 
ATOM      4  C   UNL     1       1.733   5.328  20.340  0.00  0.00    +0.000 A 
ATOM      5  C   UNL     1       1.252   6.363  21.191  0.00  0.00    +0.000 A 
ATOM      6  C   UNL     1       1.183   7.687  20.757  0.00  0.00    +0.000 A 
ENDROOT
BRANCH   1   8
ATOM      7  C   UNL     1       1.782   9.547  17.707  0.00  0.00    +0.000 C 
ATOM      8  O   UNL     1       1.838   9.267  19.107  0.00  0.00    +0.000 OA
ENDBRANCH   1   8
BRANCH   3   9
ATOM      9  O   UNL     1       2.285   4.394  18.213  0.00  0.00    +0.000 OA
BRANCH   9  10
ATOM     10  C   UNL     1       3.492   3.811  17.675  0.00  0.00    +0.000 A 
ATOM     11  C   UNL     1       3.788   2.675  18.414  0.00  0.00    +0.000 A 
ATOM     12  C   UNL     1       4.708   2.888  19.414  0.00  0.00    +0.000 A 
ATOM     13  N   UNL     1       5.446   4.018  19.476  0.00  0.00    +0.000 NA
ATOM     14  C   UNL     1       5.480   4.769  18.357  0.00  0.00    +0.000 A 
ATOM     15  C   UNL     1       6.510   5.649  18.181  0.00  0.00    +0.000 A 
ATOM     16  C   UNL     1       6.922   6.087  16.914  0.00  0.00    +0.000 A 
ATOM     17  C   UNL     1       6.321   5.531  15.782  0.00  0.00    +0.000 A 
ATOM     18  C   UNL     1       5.137   4.781  15.986  0.00  0.00    +0.000 A 
ATOM     19  C   UNL     1       4.614   4.561  17.303  0.00  0.00    +0.000 A 
BRANCH  16  20
ATOM     20  O   UNL     1       7.946   6.983  16.762  0.00  0.00    +0.000 OA
ATOM     21  C   UNL     1       7.922   8.119  17.634  0.00  0.00    +0.000 C 
ENDBRANCH  16  20
BRANCH  17  22
ATOM     22  O   UNL     1       6.777   5.555  14.490  0.00  0.00    +0.000 OA
ATOM     23  C   UNL     1       6.729   4.389  13.658  0.00  0.00    +0.000 C 
ENDBRANCH  17  22
ENDBRANCH   9  10
ENDBRANCH   3   9
BRANCH   6  24
ATOM     24  C   UNL     1       0.655   8.814  21.671  0.00  0.00    +0.000 C 
BRANCH  24  25
ATOM     25  C   UNL     1       0.792  10.307  21.246  0.00  0.00    +0.000 C 
ATOM     26  O   UNL     1       1.794  10.957  21.559  0.00  0.00    +0.000 OA
ATOM     27  N   UNL     1      -0.233  10.822  20.449  0.00  0.00    +0.000 N 
ATOM     28  H   UNL     1      -1.049  10.247  20.303  0.00  0.00    +0.000 HD
BRANCH  27  29
ATOM     29  C   UNL     1      -0.266  12.113  19.894  0.00  0.00    +0.000 A 
ATOM     30  C   UNL     1       0.358  12.670  18.756  0.00  0.00    +0.000 A 
ATOM     31  N   UNL     1       0.089  13.976  18.588  0.00  0.00    +0.000 NA
ATOM     32  N   UNL     1      -0.707  14.287  19.641  0.00  0.00    +0.000 N 
ATOM     33  C   UNL     1      -0.984  13.179  20.413  0.00  0.00    +0.000 A 
BRANCH  32  34
ATOM     34  C   UNL     1      -1.084  15.677  19.895  0.00  0.00    +0.000 C 
ATOM     35  C   UNL     1      -0.516  16.195  21.219  0.00  0.00    +0.000 C 
ATOM     36  C   UNL     1      -0.718  16.648  18.767  0.00  0.00    +0.000 C 
ENDBRANCH  32  34
ENDBRANCH  27  29
ENDBRANCH  24  25
ENDBRANCH   6  24
TORSDOF 9
ENDMDL
MODEL 5
REMARK VINA RESULT:      -7.1      2.822     10.960
REMARK  Name = 
REMARK  14 active torsions:
REMARK  status: ('A' for Active; 'I' for Inactive)
REMARK    1  A    between atoms: C_1  and  O_2
REMARK    2  A    between atoms: O_2  and  C_3
REMARK    3  A    between atoms: C_5  and  O_6
REMARK    4  A    between atoms: O_6  and  C_7
REMARK    5  A    between atoms: C_13  and  O_14
REMARK    6  A    between atoms: O_14  and  C_15
REMARK    7  A    between atoms: C_16  and  O_17
REMARK    8  A    between atoms: O_17  and  C_18
REMARK    9  A    between atoms: C_23  and  C_24
REMARK   10  A    between atoms: C_24  and  C_25
REMARK   11  A    between atoms: N_27  and  C_28
REMARK   12  A    between atoms: N_31  and  C_32
REMARK   13  A    between atoms: C_32  and  C_33
REMARK   14  A    between atoms: C_32  and  C_34
REMARK                            x       y       z     vdW  Elec       q    Type
REMARK                         _______ _______ _______ _____ _____    ______ ____
ROOT
ATOM      1  C   UNL     1       1.095   8.705  20.153  0.00  0.00    +0.000 A 
ATOM      2  C   UNL     1       0.020   9.592  19.786  0.00  0.00    +0.000 A 
ATOM      3  C   UNL     1      -0.200   9.953  18.460  0.00  0.00    +0.000 A 
ATOM      4  C   UNL     1       0.719   9.424  17.524  0.00  0.00    +0.000 A 
ATOM      5  C   UNL     1       1.745   8.498  17.868  0.00  0.00    +0.000 A 
ATOM      6  C   UNL     1       1.920   8.062  19.181  0.00  0.00    +0.000 A 
ENDROOT
BRANCH   1   8
ATOM      7  C   UNL     1       0.813   9.271  22.455  0.00  0.00    +0.000 C 
ATOM      8  O   UNL     1       1.381   8.405  21.470  0.00  0.00    +0.000 OA
ENDBRANCH   1   8
BRANCH   3   9
ATOM      9  O   UNL     1      -1.331  10.584  17.915  0.00  0.00    +0.000 OA
BRANCH   9  10
ATOM     10  C   UNL     1      -2.559   9.980  17.454  0.00  0.00    +0.000 A 
ATOM     11  C   UNL     1      -2.347   9.496  16.172  0.00  0.00    +0.000 A 
ATOM     12  C   UNL     1      -2.761  10.353  15.180  0.00  0.00    +0.000 A 
ATOM     13  N   UNL     1      -3.546  11.421  15.440  0.00  0.00    +0.000 NA
ATOM     14  C   UNL     1      -4.164  11.427  16.638  0.00  0.00    +0.000 A 
ATOM     15  C   UNL     1      -5.278  12.200  16.804  0.00  0.00    +0.000 A 
ATOM     16  C   UNL     1      -6.255  11.920  17.771  0.00  0.00    +0.000 A 
ATOM     17  C   UNL     1      -6.135  10.754  18.531  0.00  0.00    +0.000 A 
ATOM     18  C   UNL     1      -4.890  10.081  18.483  0.00  0.00    +0.000 A 
ATOM     19  C   UNL     1      -3.822  10.551  17.649  0.00  0.00    +0.000 A 
BRANCH  16  20
ATOM     20  O   UNL     1      -7.355  12.719  17.933  0.00  0.00    +0.000 OA
ATOM     21  C   UNL     1      -7.345  13.957  17.212  0.00  0.00    +0.000 C 
ENDBRANCH  16  20
BRANCH  17  22
ATOM     22  O   UNL     1      -7.105  10.126  19.268  0.00  0.00    +0.000 OA
ATOM     23  C   UNL     1      -7.447  10.570  20.587  0.00  0.00    +0.000 C 
ENDBRANCH  17  22
ENDBRANCH   9  10
ENDBRANCH   3   9
BRANCH   6  24
ATOM     24  C   UNL     1       3.023   7.052  19.560  0.00  0.00    +0.000 C 
BRANCH  24  25
ATOM     25  C   UNL     1       3.653   6.124  18.479  0.00  0.00    +0.000 C 
ATOM     26  O   UNL     1       2.978   5.239  17.944  0.00  0.00    +0.000 OA
ATOM     27  N   UNL     1       4.972   6.400  18.114  0.00  0.00    +0.000 N 
ATOM     28  H   UNL     1       5.474   7.091  18.653  0.00  0.00    +0.000 HD
BRANCH  27  29
ATOM     29  C   UNL     1       5.698   5.740  17.108  0.00  0.00    +0.000 A 
ATOM     30  C   UNL     1       6.874   4.959  17.146  0.00  0.00    +0.000 A 
ATOM     31  N   UNL     1       7.266   4.529  15.935  0.00  0.00    +0.000 NA
ATOM     32  N   UNL     1       6.346   5.051  15.085  0.00  0.00    +0.000 N 
ATOM     33  C   UNL     1       5.361   5.736  15.763  0.00  0.00    +0.000 A 
BRANCH  32  34
ATOM     34  C   UNL     1       6.528   4.931  13.639  0.00  0.00    +0.000 C 
ATOM     35  C   UNL     1       7.964   5.244  13.212  0.00  0.00    +0.000 C 
ATOM     36  C   UNL     1       6.104   3.578  13.057  0.00  0.00    +0.000 C 
ENDBRANCH  32  34
ENDBRANCH  27  29
ENDBRANCH  24  25
ENDBRANCH   6  24
TORSDOF 9
ENDMDL
MODEL 6
REMARK VINA RESULT:      -7.0      2.512      3.416
REMARK  Name = 
REMARK  14 active torsions:
REMARK  status: ('A' for Active; 'I' for Inactive)
REMARK    1  A    between atoms: C_1  and  O_2
REMARK    2  A    between atoms: O_2  and  C_3
REMARK    3  A    between atoms: C_5  and  O_6
REMARK    4  A    between atoms: O_6  and  C_7
REMARK    5  A    between atoms: C_13  and  O_14
REMARK    6  A    between atoms: O_14  and  C_15
REMARK    7  A    between atoms: C_16  and  O_17
REMARK    8  A    between atoms: O_17  and  C_18
REMARK    9  A    between atoms: C_23  and  C_24
REMARK   10  A    between atoms: C_24  and  C_25
REMARK   11  A    between atoms: N_27  and  C_28
REMARK   12  A    between atoms: N_31  and  C_32
REMARK   13  A    between atoms: C_32  and  C_33
REMARK   14  A    between atoms: C_32  and  C_34
REMARK                            x       y       z     vdW  Elec       q    Type
REMARK                         _______ _______ _______ _____ _____    ______ ____
ROOT
ATOM      1  C   UNL     1       0.957   9.938  19.371  0.00  0.00    +0.000 A 
ATOM      2  C   UNL     1       1.471   8.596  19.473  0.00  0.00    +0.000 A 
ATOM      3  C   UNL     1       1.354   7.864  20.651  0.00  0.00    +0.000 A 
ATOM      4  C   UNL     1       0.739   8.540  21.731  0.00  0.00    +0.000 A 
ATOM      5  C   UNL     1       0.171   9.841  21.620  0.00  0.00    +0.000 A 
ATOM      6  C   UNL     1       0.206  10.551  20.420  0.00  0.00    +0.000 A 
ENDROOT
BRANCH   1   8
ATOM      7  C   UNL     1       2.344  11.480  18.188  0.00  0.00    +0.000 C 
ATOM      8  O   UNL     1       1.141  10.710  18.241  0.00  0.00    +0.000 OA
ENDBRANCH   1   8
BRANCH   3   9
ATOM      9  O   UNL     1       1.565   6.487  20.835  0.00  0.00    +0.000 OA
BRANCH   9  10
ATOM     10  C   UNL     1       1.705   5.461  19.829  0.00  0.00    +0.000 A 
ATOM     11  C   UNL     1       0.963   4.360  20.229  0.00  0.00    +0.000 A 
ATOM     12  C   UNL     1       1.702   3.395  20.871  0.00  0.00    +0.000 A 
ATOM     13  N   UNL     1       3.053   3.402  20.856  0.00  0.00    +0.000 NA
ATOM     14  C   UNL     1       3.633   4.191  19.929  0.00  0.00    +0.000 A 
ATOM     15  C   UNL     1       4.920   3.933  19.553  0.00  0.00    +0.000 A 
ATOM     16  C   UNL     1       5.437   4.324  18.309  0.00  0.00    +0.000 A 
ATOM     17  C   UNL     1       4.577   4.916  17.379  0.00  0.00    +0.000 A 
ATOM     18  C   UNL     1       3.316   5.348  17.855  0.00  0.00    +0.000 A 
ATOM     19  C   UNL     1       2.924   5.138  19.218  0.00  0.00    +0.000 A 
BRANCH  16  20
ATOM     20  O   UNL     1       6.737   4.072  17.959  0.00  0.00    +0.000 OA
ATOM     21  C   UNL     1       7.665   5.142  18.173  0.00  0.00    +0.000 C 
ENDBRANCH  16  20
BRANCH  17  22
ATOM     22  O   UNL     1       4.771   5.065  16.031  0.00  0.00    +0.000 OA
ATOM     23  C   UNL     1       5.302   6.276  15.481  0.00  0.00    +0.000 C 
ENDBRANCH  17  22
ENDBRANCH   9  10
ENDBRANCH   3   9
BRANCH   6  24
ATOM     24  C   UNL     1      -0.414  11.958  20.291  0.00  0.00    +0.000 C 
BRANCH  24  25
ATOM     25  C   UNL     1      -1.847  12.244  20.830  0.00  0.00    +0.000 C 
ATOM     26  O   UNL     1      -2.824  12.180  20.077  0.00  0.00    +0.000 OA
ATOM     27  N   UNL     1      -1.957  12.498  22.199  0.00  0.00    +0.000 N 
ATOM     28  H   UNL     1      -1.103  12.607  22.727  0.00  0.00    +0.000 HD
BRANCH  27  29
ATOM     29  C   UNL     1      -3.158  12.701  22.899  0.00  0.00    +0.000 A 
ATOM     30  C   UNL     1      -3.705  12.077  24.043  0.00  0.00    +0.000 A 
ATOM     31  N   UNL     1      -4.916  12.550  24.379  0.00  0.00    +0.000 NA
ATOM     32  N   UNL     1      -5.180  13.485  23.433  0.00  0.00    +0.000 N 
ATOM     33  C   UNL     1      -4.123  13.639  22.563  0.00  0.00    +0.000 A 
BRANCH  32  34
ATOM     34  C   UNL     1      -6.496  14.118  23.370  0.00  0.00    +0.000 C 
ATOM     35  C   UNL     1      -7.538  13.364  24.202  0.00  0.00    +0.000 C 
ATOM     36  C   UNL     1      -6.506  15.600  23.760  0.00  0.00    +0.000 C 
ENDBRANCH  32  34
ENDBRANCH  27  29
ENDBRANCH  24  25
ENDBRANCH   6  24
TORSDOF 9
ENDMDL
MODEL 7
REMARK VINA RESULT:      -7.0      1.776      2.388
REMARK  Name = 
REMARK  14 active torsions:
REMARK  status: ('A' for Active; 'I' for Inactive)
REMARK    1  A    between atoms: C_1  and  O_2
REMARK    2  A    between atoms: O_2  and  C_3
REMARK    3  A    between atoms: C_5  and  O_6
REMARK    4  A    between atoms: O_6  and  C_7
REMARK    5  A    between atoms: C_13  and  O_14
REMARK    6  A    between atoms: O_14  and  C_15
REMARK    7  A    between atoms: C_16  and  O_17
REMARK    8  A    between atoms: O_17  and  C_18
REMARK    9  A    between atoms: C_23  and  C_24
REMARK   10  A    between atoms: C_24  and  C_25
REMARK   11  A    between atoms: N_27  and  C_28
REMARK   12  A    between atoms: N_31  and  C_32
REMARK   13  A    between atoms: C_32  and  C_33
REMARK   14  A    between atoms: C_32  and  C_34
REMARK                            x       y       z     vdW  Elec       q    Type
REMARK                         _______ _______ _______ _____ _____    ______ ____
ROOT
ATOM      1  C   UNL     1       1.886   7.414  20.036  0.00  0.00    +0.000 A 
ATOM      2  C   UNL     1       1.890   5.973  20.066  0.00  0.00    +0.000 A 
ATOM      3  C   UNL     1       1.892   5.224  18.892  0.00  0.00    +0.000 A 
ATOM      4  C   UNL     1       1.851   5.972  17.692  0.00  0.00    +0.000 A 
ATOM      5  C   UNL     1       1.911   7.394  17.651  0.00  0.00    +0.000 A 
ATOM      6  C   UNL     1       1.997   8.152  18.818  0.00  0.00    +0.000 A 
ENDROOT
BRANCH   1   8
ATOM      7  C   UNL     1       0.487   8.342  21.732  0.00  0.00    +0.000 C 
ATOM      8  O   UNL     1       1.797   8.172  21.186  0.00  0.00    +0.000 OA
ENDBRANCH   1   8
BRANCH   3   9
ATOM      9  O   UNL     1       2.149   3.851  18.747  0.00  0.00    +0.000 OA
BRANCH   9  10
ATOM     10  C   UNL     1       3.342   3.212  18.243  0.00  0.00    +0.000 A 
ATOM     11  C   UNL     1       3.633   2.133  19.064  0.00  0.00    +0.000 A 
ATOM     12  C   UNL     1       4.567   2.409  20.035  0.00  0.00    +0.000 A 
ATOM     13  N   UNL     1       5.319   3.531  20.003  0.00  0.00    +0.000 NA
ATOM     14  C   UNL     1       5.350   4.193  18.830  0.00  0.00    +0.000 A 
ATOM     15  C   UNL     1       6.389   5.043  18.576  0.00  0.00    +0.000 A 
ATOM     16  C   UNL     1       6.792   5.377  17.275  0.00  0.00    +0.000 A 
ATOM     17  C   UNL     1       6.171   4.744  16.195  0.00  0.00    +0.000 A 
ATOM     18  C   UNL     1       4.981   4.027  16.468  0.00  0.00    +0.000 A 
ATOM     19  C   UNL     1       4.470   3.916  17.803  0.00  0.00    +0.000 A 
BRANCH  16  20
ATOM     20  O   UNL     1       7.825   6.245  17.044  0.00  0.00    +0.000 OA
ATOM     21  C   UNL     1       7.655   7.574  17.551  0.00  0.00    +0.000 C 
ENDBRANCH  16  20
BRANCH  17  22
ATOM     22  O   UNL     1       6.613   4.662  14.900  0.00  0.00    +0.000 OA
ATOM     23  C   UNL     1       5.796   4.104  13.864  0.00  0.00    +0.000 C 
ENDBRANCH  17  22
ENDBRANCH   9  10
ENDBRANCH   3   9
BRANCH   6  24
ATOM     24  C   UNL     1       2.072   9.693  18.781  0.00  0.00    +0.000 C 
BRANCH  24  25
ATOM     25  C   UNL     1       0.780  10.552  18.931  0.00  0.00    +0.000 C 
ATOM     26  O   UNL     1      -0.223  10.297  18.256  0.00  0.00    +0.000 OA
ATOM     27  N   UNL     1       0.809  11.555  19.902  0.00  0.00    +0.000 N 
ATOM     28  H   UNL     1       1.692  11.745  20.355  0.00  0.00    +0.000 HD
BRANCH  27  29
ATOM     29  C   UNL     1      -0.268  12.385  20.252  0.00  0.00    +0.000 A 
ATOM     30  C   UNL     1      -0.712  13.626  19.743  0.00  0.00    +0.000 A 
ATOM     31  N   UNL     1      -1.784  14.114  20.390  0.00  0.00    +0.000 NA
ATOM     32  N   UNL     1      -2.038  13.191  21.350  0.00  0.00    +0.000 N 
ATOM     33  C   UNL     1      -1.182  12.115  21.260  0.00  0.00    +0.000 A 
BRANCH  32  34
ATOM     34  C   UNL     1      -3.051  13.451  22.372  0.00  0.00    +0.000 C 
ATOM     35  C   UNL     1      -4.430  13.715  21.762  0.00  0.00    +0.000 C 
ATOM     36  C   UNL     1      -3.165  12.361  23.443  0.00  0.00    +0.000 C 
ENDBRANCH  32  34
ENDBRANCH  27  29
ENDBRANCH  24  25
ENDBRANCH   6  24
TORSDOF 9
ENDMDL
MODEL 8
REMARK VINA RESULT:      -7.0      1.350      2.043
REMARK  Name = 
REMARK  14 active torsions:
REMARK  status: ('A' for Active; 'I' for Inactive)
REMARK    1  A    between atoms: C_1  and  O_2
REMARK    2  A    between atoms: O_2  and  C_3
REMARK    3  A    between atoms: C_5  and  O_6
REMARK    4  A    between atoms: O_6  and  C_7
REMARK    5  A    between atoms: C_13  and  O_14
REMARK    6  A    between atoms: O_14  and  C_15
REMARK    7  A    between atoms: C_16  and  O_17
REMARK    8  A    between atoms: O_17  and  C_18
REMARK    9  A    between atoms: C_23  and  C_24
REMARK   10  A    between atoms: C_24  and  C_25
REMARK   11  A    between atoms: N_27  and  C_28
REMARK   12  A    between atoms: N_31  and  C_32
REMARK   13  A    between atoms: C_32  and  C_33
REMARK   14  A    between atoms: C_32  and  C_34
REMARK                            x       y       z     vdW  Elec       q    Type
REMARK                         _______ _______ _______ _____ _____    ______ ____
ROOT
ATOM      1  C   UNL     1       1.858   7.481  20.008  0.00  0.00    +0.000 A 
ATOM      2  C   UNL     1       1.790   6.053  20.190  0.00  0.00    +0.000 A 
ATOM      3  C   UNL     1       1.797   5.183  19.103  0.00  0.00    +0.000 A 
ATOM      4  C   UNL     1       1.835   5.799  17.830  0.00  0.00    +0.000 A 
ATOM      5  C   UNL     1       1.966   7.204  17.642  0.00  0.00    +0.000 A 
ATOM      6  C   UNL     1       2.047   8.079  18.725  0.00  0.00    +0.000 A 
ENDROOT
BRANCH   1   8
ATOM      7  C   UNL     1       0.484   8.464  21.694  0.00  0.00    +0.000 C 
ATOM      8  O   UNL     1       1.765   8.361  21.068  0.00  0.00    +0.000 OA
ENDBRANCH   1   8
BRANCH   3   9
ATOM      9  O   UNL     1       1.992   3.792  19.113  0.00  0.00    +0.000 OA
BRANCH   9  10
ATOM     10  C   UNL     1       3.116   3.042  18.604  0.00  0.00    +0.000 A 
ATOM     11  C   UNL     1       3.378   2.005  19.488  0.00  0.00    +0.000 A 
ATOM     12  C   UNL     1       4.374   2.286  20.393  0.00  0.00    +0.000 A 
ATOM     13  N   UNL     1       5.194   3.350  20.246  0.00  0.00    +0.000 NA
ATOM     14  C   UNL     1       5.208   3.925  19.027  0.00  0.00    +0.000 A 
ATOM     15  C   UNL     1       6.285   4.684  18.666  0.00  0.00    +0.000 A 
ATOM     16  C   UNL     1       6.643   4.899  17.327  0.00  0.00    +0.000 A 
ATOM     17  C   UNL     1       5.931   4.235  16.325  0.00  0.00    +0.000 A 
ATOM     18  C   UNL     1       4.712   3.620  16.702  0.00  0.00    +0.000 A 
ATOM     19  C   UNL     1       4.262   3.637  18.064  0.00  0.00    +0.000 A 
BRANCH  16  20
ATOM     20  O   UNL     1       7.717   5.679  16.987  0.00  0.00    +0.000 OA
ATOM     21  C   UNL     1       7.620   7.066  17.331  0.00  0.00    +0.000 C 
ENDBRANCH  16  20
BRANCH  17  22
ATOM     22  O   UNL     1       6.302   4.035  15.021  0.00  0.00    +0.000 OA
ATOM     23  C   UNL     1       6.069   5.029  14.016  0.00  0.00    +0.000 C 
ENDBRANCH  17  22
ENDBRANCH   9  10
ENDBRANCH   3   9
BRANCH   6  24
ATOM     24  C   UNL     1       2.199   9.602  18.529  0.00  0.00    +0.000 C 
BRANCH  24  25
ATOM     25  C   UNL     1       0.961  10.542  18.646  0.00  0.00    +0.000 C 
ATOM     26  O   UNL     1       1.111  11.763  18.760  0.00  0.00    +0.000 OA
ATOM     27  N   UNL     1      -0.292   9.936  18.544  0.00  0.00    +0.000 N 
ATOM     28  H   UNL     1      -0.326   8.927  18.528  0.00  0.00    +0.000 HD
BRANCH  27  29
ATOM     29  C   UNL     1      -1.527  10.606  18.543  0.00  0.00    +0.000 A 
ATOM     30  C   UNL     1      -2.020  11.684  19.311  0.00  0.00    +0.000 A 
ATOM     31  N   UNL     1      -3.290  12.010  19.017  0.00  0.00    +0.000 NA
ATOM     32  N   UNL     1      -3.644  11.122  18.055  0.00  0.00    +0.000 N 
ATOM     33  C   UNL     1      -2.592  10.302  17.709  0.00  0.00    +0.000 A 
BRANCH  32  34
ATOM     34  C   UNL     1      -5.028  11.057  17.586  0.00  0.00    +0.000 C 
ATOM     35  C   UNL     1      -5.975  10.518  18.661  0.00  0.00    +0.000 C 
ATOM     36  C   UNL     1      -5.574  12.381  17.040  0.00  0.00    +0.000 C 
ENDBRANCH  32  34
ENDBRANCH  27  29
ENDBRANCH  24  25
ENDBRANCH   6  24
TORSDOF 9
ENDMDL
MODEL 9
REMARK VINA RESULT:      -7.0      2.388      3.114
REMARK  Name = 
REMARK  14 active torsions:
REMARK  status: ('A' for Active; 'I' for Inactive)
REMARK    1  A    between atoms: C_1  and  O_2
REMARK    2  A    between atoms: O_2  and  C_3
REMARK    3  A    between atoms: C_5  and  O_6
REMARK    4  A    between atoms: O_6  and  C_7
REMARK    5  A    between atoms: C_13  and  O_14
REMARK    6  A    between atoms: O_14  and  C_15
REMARK    7  A    between atoms: C_16  and  O_17
REMARK    8  A    between atoms: O_17  and  C_18
REMARK    9  A    between atoms: C_23  and  C_24
REMARK   10  A    between atoms: C_24  and  C_25
REMARK   11  A    between atoms: N_27  and  C_28
REMARK   12  A    between atoms: N_31  and  C_32
REMARK   13  A    between atoms: C_32  and  C_33
REMARK   14  A    between atoms: C_32  and  C_34
REMARK                            x       y       z     vdW  Elec       q    Type
REMARK                         _______ _______ _______ _____ _____    ______ ____
ROOT
ATOM      1  C   UNL     1       1.640   8.133  19.301  0.00  0.00    +0.000 A 
ATOM      2  C   UNL     1       1.982   6.964  18.530  0.00  0.00    +0.000 A 
ATOM      3  C   UNL     1       2.057   5.705  19.119  0.00  0.00    +0.000 A 
ATOM      4  C   UNL     1       1.815   5.668  20.512  0.00  0.00    +0.000 A 
ATOM      5  C   UNL     1       1.414   6.806  21.269  0.00  0.00    +0.000 A 
ATOM      6  C   UNL     1       1.252   8.056  20.673  0.00  0.00    +0.000 A 
ENDROOT
BRANCH   1   8
ATOM      7  C   UNL     1       2.466   9.588  17.598  0.00  0.00    +0.000 C 
ATOM      8  O   UNL     1       1.645   9.401  18.753  0.00  0.00    +0.000 OA
ENDBRANCH   1   8
BRANCH   3   9
ATOM      9  O   UNL     1       2.122   4.456  18.478  0.00  0.00    +0.000 OA
BRANCH   9  10
ATOM     10  C   UNL     1       3.269   3.818  17.876  0.00  0.00    +0.000 A 
ATOM     11  C   UNL     1       3.467   2.600  18.509  0.00  0.00    +0.000 A 
ATOM     12  C   UNL     1       4.407   2.642  19.511  0.00  0.00    +0.000 A 
ATOM     13  N   UNL     1       5.244   3.692  19.662  0.00  0.00    +0.000 NA
ATOM     14  C   UNL     1       5.339   4.532  18.613  0.00  0.00    +0.000 A 
ATOM     15  C   UNL     1       6.443   5.329  18.501  0.00  0.00    +0.000 A 
ATOM     16  C   UNL     1       6.885   5.839  17.272  0.00  0.00    +0.000 A 
ATOM     17  C   UNL     1       6.230   5.441  16.103  0.00  0.00    +0.000 A 
ATOM     18  C   UNL     1       4.986   4.783  16.256  0.00  0.00    +0.000 A 
ATOM     19  C   UNL     1       4.452   4.495  17.556  0.00  0.00    +0.000 A 
BRANCH  16  20
ATOM     20  O   UNL     1       7.984   6.651  17.185  0.00  0.00    +0.000 OA
ATOM     21  C   UNL     1       7.787   8.018  17.564  0.00  0.00    +0.000 C 
ENDBRANCH  16  20
BRANCH  17  22
ATOM     22  O   UNL     1       6.680   5.538  14.812  0.00  0.00    +0.000 OA
ATOM     23  C   UNL     1       6.578   4.438  13.900  0.00  0.00    +0.000 C 
ENDBRANCH  17  22
ENDBRANCH   9  10
ENDBRANCH   3   9
BRANCH   6  24
ATOM     24  C   UNL     1       0.809   9.291  21.485  0.00  0.00    +0.000 C 
BRANCH  24  25
ATOM     25  C   UNL     1       0.340  10.588  20.761  0.00  0.00    +0.000 C 
ATOM     26  O   UNL     1      -0.851  10.748  20.472  0.00  0.00    +0.000 OA
ATOM     27  N   UNL     1       1.315  11.561  20.534  0.00  0.00    +0.000 N 
ATOM     28  H   UNL     1       2.275  11.320  20.732  0.00  0.00    +0.000 HD
BRANCH  27  29
ATOM     29  C   UNL     1       1.090  12.829  19.971  0.00  0.00    +0.000 A 
ATOM     30  C   UNL     1      -0.045  13.406  19.360  0.00  0.00    +0.000 A 
ATOM     31  N   UNL     1       0.167  14.656  18.916  0.00  0.00    +0.000 NA
ATOM     32  N   UNL     1       1.467  14.898  19.221  0.00  0.00    +0.000 N 
ATOM     33  C   UNL     1       2.033  13.844  19.903  0.00  0.00    +0.000 A 
BRANCH  32  34
ATOM     34  C   UNL     1       2.120  16.117  18.745  0.00  0.00    +0.000 C 
ATOM     35  C   UNL     1       3.206  15.820  17.708  0.00  0.00    +0.000 C 
ATOM     36  C   UNL     1       1.160  17.175  18.192  0.00  0.00    +0.000 C 
ENDBRANCH  32  34
ENDBRANCH  27  29
ENDBRANCH  24  25
ENDBRANCH   6  24
TORSDOF 9
ENDMDL
