MODEL 1
REMARK VINA RESULT:      -6.4      0.000      0.000
REMARK  Name = 
REMARK  19 active torsions:
REMARK  status: ('A' for Active; 'I' for Inactive)
REMARK    1  A    between atoms: C_1  and  C_2
REMARK    2  A    between atoms: C_2  and  C_3
REMARK    3  A    between atoms: C_2  and  C_4
REMARK    4  A    between atoms: C_4  and  O_6
REMARK    5  A    between atoms: O_6  and  C_7
REMARK    6  A    between atoms: C_7  and  C_8
REMARK    7  A    between atoms: C_8  and  N_9
REMARK    8  A    between atoms: C_13  and  N_14
REMARK    9  A    between atoms: C_17  and  N_18
REMARK   10  A    between atoms: C_22  and  O_23
REMARK   11  A    between atoms: O_23  and  C_24
REMARK   12  A    between atoms: C_24  and  C_26
REMARK   13  A    between atoms: C_26  and  C_27
REMARK   14  A    between atoms: C_26  and  C_28
REMARK   15  A    between atoms: C_29  and  O_30
REMARK   16  A    between atoms: O_30  and  C_31
REMARK   17  A    between atoms: C_31  and  C_33
REMARK   18  A    between atoms: C_33  and  C_34
REMARK   19  A    between atoms: C_33  and  C_35
REMARK                            x       y       z     vdW  Elec       q    Type
REMARK                         _______ _______ _______ _____ _____    ______ ____
ROOT
ATOM      1  C   UNL     1       0.400   9.957  20.132  0.00  0.00    +0.000 C 
ATOM      2  O   UNL     1       1.351  10.834  20.775  0.00  0.00    +0.000 OA
ATOM      3  C   UNL     1       0.891  12.199  20.713  0.00  0.00    +0.000 C 
ATOM      4  C   UNL     1      -0.507  12.204  20.079  0.00  0.00    +0.000 C 
ATOM      5  C   UNL     1      -0.514  10.888  19.302  0.00  0.00    +0.000 C 
ENDROOT
BRANCH   3   6
ATOM      6  N   UNL     1       1.891  13.022  20.020  0.00  0.00    +0.000 N 
ATOM      7  C   UNL     1       2.175  12.851  18.678  0.00  0.00    +0.000 A 
ATOM      8  C   UNL     1       3.139  13.538  18.058  0.00  0.00    +0.000 A 
ATOM      9  C   UNL     1       3.932  14.508  18.770  0.00  0.00    +0.000 A 
ATOM     10  C   UNL     1       3.646  14.734  20.065  0.00  0.00    +0.000 A 
ATOM     11  C   UNL     1       2.567  13.983  20.769  0.00  0.00    +0.000 A 
ATOM     12  O   UNL     1       2.343  14.218  21.953  0.00  0.00    +0.000 OA
BRANCH   9  13
ATOM     13  N   UNL     1       4.937  15.138  18.070  0.00  0.00    +0.000 N 
ATOM     14  H   UNL     1       4.825  16.147  18.021  0.00  0.00    +0.000 HD
ATOM     15  H   UNL     1       5.116  14.735  17.154  0.00  0.00    +0.000 HD
ENDBRANCH   9  13
ENDBRANCH   3   6
BRANCH   1  16
ATOM     16  N   UNL     1      -0.414   9.195  21.111  0.00  0.00    +0.000 NA
ATOM     17  N   UNL     1      -0.226   9.368  22.332  0.00  0.00    +0.000 NA
ATOM     18  N   UNL     1      -0.046   9.529  23.445  0.00  0.00    +0.000 NA
ENDBRANCH   1  16
BRANCH   1  19
ATOM     19  C   UNL     1       1.221   9.028  19.176  0.00  0.00    +0.000 C 
BRANCH  19  20
ATOM     20  O   UNL     1       2.121   8.225  19.970  0.00  0.00    +0.000 OA
BRANCH  20  21
ATOM     21  C   UNL     1       2.069   6.875  19.769  0.00  0.00    +0.000 C 
ATOM     22  O   UNL     1       1.777   6.051  20.619  0.00  0.00    +0.000 OA
BRANCH  21  24
ATOM     23  C   UNL     1       3.837   6.832  18.003  0.00  0.00    +0.000 C 
ATOM     24  C   UNL     1       2.368   6.572  18.313  0.00  0.00    +0.000 C 
ATOM     25  C   UNL     1       1.992   5.126  18.001  0.00  0.00    +0.000 C 
ENDBRANCH  21  24
ENDBRANCH  20  21
ENDBRANCH  19  20
ENDBRANCH   1  19
BRANCH   4  26
ATOM     26  O   UNL     1      -1.522  12.187  21.118  0.00  0.00    +0.000 OA
BRANCH  26  27
ATOM     27  C   UNL     1      -2.128  13.379  21.388  0.00  0.00    +0.000 C 
ATOM     28  O   UNL     1      -2.417  14.218  20.547  0.00  0.00    +0.000 OA
BRANCH  27  29
ATOM     29  C   UNL     1      -2.473  13.498  22.868  0.00  0.00    +0.000 C 
ATOM     30  C   UNL     1      -2.885  12.153  23.453  0.00  0.00    +0.000 C 
ATOM     31  C   UNL     1      -1.287  14.070  23.649  0.00  0.00    +0.000 C 
ENDBRANCH  27  29
ENDBRANCH  26  27
ENDBRANCH   4  26
BRANCH   5  32
ATOM     32  O   UNL     1      -1.823  10.325  19.105  0.00  0.00    +0.000 OA
BRANCH  32  33
ATOM     33  C   UNL     1      -2.181  10.108  17.811  0.00  0.00    +0.000 C 
ATOM     34  O   UNL     1      -1.430   9.670  16.955  0.00  0.00    +0.000 OA
BRANCH  33  35
ATOM     35  C   UNL     1      -3.632  10.494  17.594  0.00  0.00    +0.000 C 
ATOM     36  C   UNL     1      -4.012  11.622  18.545  0.00  0.00    +0.000 C 
ATOM     37  C   UNL     1      -3.862  10.894  16.140  0.00  0.00    +0.000 C 
ENDBRANCH  33  35
ENDBRANCH  32  33
ENDBRANCH   5  32
TORSDOF 13
ENDMDL
MODEL 2
REMARK VINA RESULT:      -6.3      1.033      1.224
REMARK  Name = 
REMARK  19 active torsions:
REMARK  status: ('A' for Active; 'I' for Inactive)
REMARK    1  A    between atoms: C_1  and  C_2
REMARK    2  A    between atoms: C_2  and  C_3
REMARK    3  A    between atoms: C_2  and  C_4
REMARK    4  A    between atoms: C_4  and  O_6
REMARK    5  A    between atoms: O_6  and  C_7
REMARK    6  A    between atoms: C_7  and  C_8
REMARK    7  A    between atoms: C_8  and  N_9
REMARK    8  A    between atoms: C_13  and  N_14
REMARK    9  A    between atoms: C_17  and  N_18
REMARK   10  A    between atoms: C_22  and  O_23
REMARK   11  A    between atoms: O_23  and  C_24
REMARK   12  A    between atoms: C_24  and  C_26
REMARK   13  A    between atoms: C_26  and  C_27
REMARK   14  A    between atoms: C_26  and  C_28
REMARK   15  A    between atoms: C_29  and  O_30
REMARK   16  A    between atoms: O_30  and  C_31
REMARK   17  A    between atoms: C_31  and  C_33
REMARK   18  A    between atoms: C_33  and  C_34
REMARK   19  A    between atoms: C_33  and  C_35
REMARK                            x       y       z     vdW  Elec       q    Type
REMARK                         _______ _______ _______ _____ _____    ______ ____
ROOT
ATOM      1  C   UNL     1       0.407  10.463  19.904  0.00  0.00    +0.000 C 
ATOM      2  O   UNL     1       1.227  11.479  20.522  0.00  0.00    +0.000 OA
ATOM      3  C   UNL     1       0.546  12.750  20.499  0.00  0.00    +0.000 C 
ATOM      4  C   UNL     1      -0.858  12.530  19.919  0.00  0.00    +0.000 C 
ATOM      5  C   UNL     1      -0.681  11.238  19.124  0.00  0.00    +0.000 C 
ENDROOT
BRANCH   3   6
ATOM      6  N   UNL     1       1.369  13.733  19.779  0.00  0.00    +0.000 N 
ATOM      7  C   UNL     1       2.248  13.358  18.780  0.00  0.00    +0.000 A 
ATOM      8  C   UNL     1       3.059  14.232  18.176  0.00  0.00    +0.000 A 
ATOM      9  C   UNL     1       3.046  15.627  18.540  0.00  0.00    +0.000 A 
ATOM     10  C   UNL     1       2.166  16.031  19.473  0.00  0.00    +0.000 A 
ATOM     11  C   UNL     1       1.247  15.070  20.149  0.00  0.00    +0.000 A 
ATOM     12  O   UNL     1       0.463  15.483  20.998  0.00  0.00    +0.000 OA
BRANCH   9  13
ATOM     13  N   UNL     1       3.946  16.452  17.904  0.00  0.00    +0.000 N 
ATOM     14  H   UNL     1       4.834  16.536  18.391  0.00  0.00    +0.000 HD
ATOM     15  H   UNL     1       3.566  17.362  17.656  0.00  0.00    +0.000 HD
ENDBRANCH   9  13
ENDBRANCH   3   6
BRANCH   1  16
ATOM     16  N   UNL     1      -0.229   9.570  20.903  0.00  0.00    +0.000 NA
ATOM     17  N   UNL     1       0.031   9.717  22.113  0.00  0.00    +0.000 NA
ATOM     18  N   UNL     1       0.276   9.858  23.217  0.00  0.00    +0.000 NA
ENDBRANCH   1  16
BRANCH   1  19
ATOM     19  C   UNL     1       1.330   9.690  18.904  0.00  0.00    +0.000 C 
BRANCH  19  20
ATOM     20  O   UNL     1       1.710   8.431  19.499  0.00  0.00    +0.000 OA
BRANCH  20  21
ATOM     21  C   UNL     1       2.455   7.590  18.723  0.00  0.00    +0.000 C 
ATOM     22  O   UNL     1       3.106   7.928  17.750  0.00  0.00    +0.000 OA
BRANCH  21  24
ATOM     23  C   UNL     1       3.787   5.577  19.372  0.00  0.00    +0.000 C 
ATOM     24  C   UNL     1       2.394   6.188  19.299  0.00  0.00    +0.000 C 
ATOM     25  C   UNL     1       1.742   6.227  20.679  0.00  0.00    +0.000 C 
ENDBRANCH  21  24
ENDBRANCH  20  21
ENDBRANCH  19  20
ENDBRANCH   1  19
BRANCH   4  26
ATOM     26  O   UNL     1      -1.813  12.338  20.997  0.00  0.00    +0.000 OA
BRANCH  26  27
ATOM     27  C   UNL     1      -2.425  13.462  21.467  0.00  0.00    +0.000 C 
ATOM     28  O   UNL     1      -2.835  14.376  20.766  0.00  0.00    +0.000 OA
BRANCH  27  29
ATOM     29  C   UNL     1      -2.607  13.399  22.980  0.00  0.00    +0.000 C 
ATOM     30  C   UNL     1      -2.733  11.959  23.464  0.00  0.00    +0.000 C 
ATOM     31  C   UNL     1      -1.440  14.091  23.688  0.00  0.00    +0.000 C 
ENDBRANCH  27  29
ENDBRANCH  26  27
ENDBRANCH   4  26
BRANCH   5  32
ATOM     32  O   UNL     1      -1.886  10.468  18.971  0.00  0.00    +0.000 OA
BRANCH  32  33
ATOM     33  C   UNL     1      -2.225  10.156  17.691  0.00  0.00    +0.000 C 
ATOM     34  O   UNL     1      -1.452   9.689  16.870  0.00  0.00    +0.000 OA
BRANCH  33  35
ATOM     35  C   UNL     1      -3.687  10.478  17.440  0.00  0.00    +0.000 C 
ATOM     36  C   UNL     1      -4.142  11.577  18.392  0.00  0.00    +0.000 C 
ATOM     37  C   UNL     1      -3.896  10.884  15.984  0.00  0.00    +0.000 C 
ENDBRANCH  33  35
ENDBRANCH  32  33
ENDBRANCH   5  32
TORSDOF 13
ENDMDL
MODEL 3
REMARK VINA RESULT:      -6.3      4.668      8.737
REMARK  Name = 
REMARK  19 active torsions:
REMARK  status: ('A' for Active; 'I' for Inactive)
REMARK    1  A    between atoms: C_1  and  C_2
REMARK    2  A    between atoms: C_2  and  C_3
REMARK    3  A    between atoms: C_2  and  C_4
REMARK    4  A    between atoms: C_4  and  O_6
REMARK    5  A    between atoms: O_6  and  C_7
REMARK    6  A    between atoms: C_7  and  C_8
REMARK    7  A    between atoms: C_8  and  N_9
REMARK    8  A    between atoms: C_13  and  N_14
REMARK    9  A    between atoms: C_17  and  N_18
REMARK   10  A    between atoms: C_22  and  O_23
REMARK   11  A    between atoms: O_23  and  C_24
REMARK   12  A    between atoms: C_24  and  C_26
REMARK   13  A    between atoms: C_26  and  C_27
REMARK   14  A    between atoms: C_26  and  C_28
REMARK   15  A    between atoms: C_29  and  O_30
REMARK   16  A    between atoms: O_30  and  C_31
REMARK   17  A    between atoms: C_31  and  C_33
REMARK   18  A    between atoms: C_33  and  C_34
REMARK   19  A    between atoms: C_33  and  C_35
REMARK                            x       y       z     vdW  Elec       q    Type
REMARK                         _______ _______ _______ _____ _____    ______ ____
ROOT
ATOM      1  C   UNL     1       5.320   5.307  18.629  0.00  0.00    +0.000 C 
ATOM      2  O   UNL     1       4.262   5.680  19.539  0.00  0.00    +0.000 OA
ATOM      3  C   UNL     1       3.004   5.747  18.837  0.00  0.00    +0.000 C 
ATOM      4  C   UNL     1       3.236   5.285  17.392  0.00  0.00    +0.000 C 
ATOM      5  C   UNL     1       4.735   5.524  17.214  0.00  0.00    +0.000 C 
ENDROOT
BRANCH   3   6
ATOM      6  N   UNL     1       2.437   7.096  18.975  0.00  0.00    +0.000 N 
ATOM      7  C   UNL     1       2.566   8.048  17.981  0.00  0.00    +0.000 A 
ATOM      8  C   UNL     1       2.126   9.301  18.129  0.00  0.00    +0.000 A 
ATOM      9  C   UNL     1       1.481   9.719  19.349  0.00  0.00    +0.000 A 
ATOM     10  C   UNL     1       1.296   8.802  20.316  0.00  0.00    +0.000 A 
ATOM     11  C   UNL     1       1.771   7.398  20.162  0.00  0.00    +0.000 A 
ATOM     12  O   UNL     1       1.585   6.596  21.072  0.00  0.00    +0.000 OA
BRANCH   9  13
ATOM     13  N   UNL     1       1.100  11.039  19.440  0.00  0.00    +0.000 N 
ATOM     14  H   UNL     1       0.807  11.314  20.374  0.00  0.00    +0.000 HD
ATOM     15  H   UNL     1       0.423  11.322  18.736  0.00  0.00    +0.000 HD
ENDBRANCH   9  13
ENDBRANCH   3   6
BRANCH   1  16
ATOM     16  N   UNL     1       5.730   3.892  18.793  0.00  0.00    +0.000 NA
ATOM     17  N   UNL     1       5.275   3.226  19.745  0.00  0.00    +0.000 NA
ATOM     18  N   UNL     1       4.856   2.627  20.619  0.00  0.00    +0.000 NA
ENDBRANCH   1  16
BRANCH   1  19
ATOM     19  C   UNL     1       6.497   6.310  18.877  0.00  0.00    +0.000 C 
BRANCH  19  20
ATOM     20  O   UNL     1       6.390   7.395  17.931  0.00  0.00    +0.000 OA
BRANCH  20  21
ATOM     21  C   UNL     1       7.564   7.934  17.488  0.00  0.00    +0.000 C 
ATOM     22  O   UNL     1       8.250   7.477  16.591  0.00  0.00    +0.000 OA
BRANCH  21  24
ATOM     23  C   UNL     1       9.087   9.076  19.108  0.00  0.00    +0.000 C 
ATOM     24  C   UNL     1       7.841   9.221  18.242  0.00  0.00    +0.000 C 
ATOM     25  C   UNL     1       7.994  10.374  17.254  0.00  0.00    +0.000 C 
ENDBRANCH  21  24
ENDBRANCH  20  21
ENDBRANCH  19  20
ENDBRANCH   1  19
BRANCH   4  26
ATOM     26  O   UNL     1       2.928   3.871  17.268  0.00  0.00    +0.000 OA
BRANCH  26  27
ATOM     27  C   UNL     1       1.667   3.496  17.630  0.00  0.00    +0.000 C 
ATOM     28  O   UNL     1       0.646   4.080  17.299  0.00  0.00    +0.000 OA
BRANCH  27  29
ATOM     29  C   UNL     1       1.689   2.203  18.438  0.00  0.00    +0.000 C 
ATOM     30  C   UNL     1       2.994   1.444  18.236  0.00  0.00    +0.000 C 
ATOM     31  C   UNL     1       1.475   2.497  19.925  0.00  0.00    +0.000 C 
ENDBRANCH  27  29
ENDBRANCH  26  27
ENDBRANCH   4  26
BRANCH   5  32
ATOM     32  O   UNL     1       5.358   4.672  16.237  0.00  0.00    +0.000 OA
BRANCH  32  33
ATOM     33  C   UNL     1       5.720   5.278  15.074  0.00  0.00    +0.000 C 
ATOM     34  O   UNL     1       5.458   6.437  14.794  0.00  0.00    +0.000 OA
BRANCH  33  35
ATOM     35  C   UNL     1       6.481   4.309  14.189  0.00  0.00    +0.000 C 
ATOM     36  C   UNL     1       5.529   3.679  13.179  0.00  0.00    +0.000 C 
ATOM     37  C   UNL     1       7.634   5.023  13.492  0.00  0.00    +0.000 C 
ENDBRANCH  33  35
ENDBRANCH  32  33
ENDBRANCH   5  32
TORSDOF 13
ENDMDL
MODEL 4
REMARK VINA RESULT:      -6.2      0.955      1.448
REMARK  Name = 
REMARK  19 active torsions:
REMARK  status: ('A' for Active; 'I' for Inactive)
REMARK    1  A    between atoms: C_1  and  C_2
REMARK    2  A    between atoms: C_2  and  C_3
REMARK    3  A    between atoms: C_2  and  C_4
REMARK    4  A    between atoms: C_4  and  O_6
REMARK    5  A    between atoms: O_6  and  C_7
REMARK    6  A    between atoms: C_7  and  C_8
REMARK    7  A    between atoms: C_8  and  N_9
REMARK    8  A    between atoms: C_13  and  N_14
REMARK    9  A    between atoms: C_17  and  N_18
REMARK   10  A    between atoms: C_22  and  O_23
REMARK   11  A    between atoms: O_23  and  C_24
REMARK   12  A    between atoms: C_24  and  C_26
REMARK   13  A    between atoms: C_26  and  C_27
REMARK   14  A    between atoms: C_26  and  C_28
REMARK   15  A    between atoms: C_29  and  O_30
REMARK   16  A    between atoms: O_30  and  C_31
REMARK   17  A    between atoms: C_31  and  C_33
REMARK   18  A    between atoms: C_33  and  C_34
REMARK   19  A    between atoms: C_33  and  C_35
REMARK                            x       y       z     vdW  Elec       q    Type
REMARK                         _______ _______ _______ _____ _____    ______ ____
ROOT
ATOM      1  C   UNL     1       0.510  10.219  20.161  0.00  0.00    +0.000 C 
ATOM      2  O   UNL     1       1.450  11.091  20.827  0.00  0.00    +0.000 OA
ATOM      3  C   UNL     1       0.991  12.457  20.767  0.00  0.00    +0.000 C 
ATOM      4  C   UNL     1      -0.396  12.467  20.107  0.00  0.00    +0.000 C 
ATOM      5  C   UNL     1      -0.389  11.157  19.321  0.00  0.00    +0.000 C 
ENDROOT
BRANCH   3   6
ATOM      6  N   UNL     1       2.004  13.284  20.098  0.00  0.00    +0.000 N 
ATOM      7  C   UNL     1       2.234  13.200  18.737  0.00  0.00    +0.000 A 
ATOM      8  C   UNL     1       3.207  13.888  18.133  0.00  0.00    +0.000 A 
ATOM      9  C   UNL     1       4.068  14.768  18.883  0.00  0.00    +0.000 A 
ATOM     10  C   UNL     1       3.836  14.910  20.200  0.00  0.00    +0.000 A 
ATOM     11  C   UNL     1       2.748  14.158  20.888  0.00  0.00    +0.000 A 
ATOM     12  O   UNL     1       2.575  14.315  22.093  0.00  0.00    +0.000 OA
BRANCH   9  13
ATOM     13  N   UNL     1       5.075  15.403  18.193  0.00  0.00    +0.000 N 
ATOM     14  H   UNL     1       5.146  16.396  18.401  0.00  0.00    +0.000 HD
ATOM     15  H   UNL     1       5.061  15.231  17.191  0.00  0.00    +0.000 HD
ENDBRANCH   9  13
ENDBRANCH   3   6
BRANCH   1  16
ATOM     16  N   UNL     1      -0.322   9.451  21.119  0.00  0.00    +0.000 NA
ATOM     17  N   UNL     1      -0.149   9.607  22.344  0.00  0.00    +0.000 NA
ATOM     18  N   UNL     1       0.017   9.754  23.462  0.00  0.00    +0.000 NA
ENDBRANCH   1  16
BRANCH   1  19
ATOM     19  C   UNL     1       1.348   9.297  19.213  0.00  0.00    +0.000 C 
BRANCH  19  20
ATOM     20  O   UNL     1       1.765   8.129  19.952  0.00  0.00    +0.000 OA
BRANCH  20  21
ATOM     21  C   UNL     1       2.355   7.131  19.230  0.00  0.00    +0.000 C 
ATOM     22  O   UNL     1       2.571   7.168  18.031  0.00  0.00    +0.000 OA
BRANCH  21  24
ATOM     23  C   UNL     1       1.552   5.119  20.477  0.00  0.00    +0.000 C 
ATOM     24  C   UNL     1       2.752   6.004  20.163  0.00  0.00    +0.000 C 
ATOM     25  C   UNL     1       3.881   5.189  19.536  0.00  0.00    +0.000 C 
ENDBRANCH  21  24
ENDBRANCH  20  21
ENDBRANCH  19  20
ENDBRANCH   1  19
BRANCH   4  26
ATOM     26  O   UNL     1      -1.429  12.443  21.128  0.00  0.00    +0.000 OA
BRANCH  26  27
ATOM     27  C   UNL     1      -2.410  13.384  21.014  0.00  0.00    +0.000 C 
ATOM     28  O   UNL     1      -2.261  14.487  20.508  0.00  0.00    +0.000 OA
BRANCH  27  29
ATOM     29  C   UNL     1      -3.744  12.853  21.527  0.00  0.00    +0.000 C 
ATOM     30  C   UNL     1      -3.736  12.705  23.044  0.00  0.00    +0.000 C 
ATOM     31  C   UNL     1      -4.889  13.772  21.094  0.00  0.00    +0.000 C 
ENDBRANCH  27  29
ENDBRANCH  26  27
ENDBRANCH   4  26
BRANCH   5  32
ATOM     32  O   UNL     1      -1.694  10.596  19.097  0.00  0.00    +0.000 OA
BRANCH  32  33
ATOM     33  C   UNL     1      -2.029  10.387  17.795  0.00  0.00    +0.000 C 
ATOM     34  O   UNL     1      -1.530   9.527  17.087  0.00  0.00    +0.000 OA
BRANCH  33  35
ATOM     35  C   UNL     1      -3.095  11.376  17.360  0.00  0.00    +0.000 C 
ATOM     36  C   UNL     1      -3.405  11.179  15.881  0.00  0.00    +0.000 C 
ATOM     37  C   UNL     1      -4.347  11.213  18.215  0.00  0.00    +0.000 C 
ENDBRANCH  33  35
ENDBRANCH  32  33
ENDBRANCH   5  32
TORSDOF 13
ENDMDL
MODEL 5
REMARK VINA RESULT:      -6.2      4.257      7.962
REMARK  Name = 
REMARK  19 active torsions:
REMARK  status: ('A' for Active; 'I' for Inactive)
REMARK    1  A    between atoms: C_1  and  C_2
REMARK    2  A    between atoms: C_2  and  C_3
REMARK    3  A    between atoms: C_2  and  C_4
REMARK    4  A    between atoms: C_4  and  O_6
REMARK    5  A    between atoms: O_6  and  C_7
REMARK    6  A    between atoms: C_7  and  C_8
REMARK    7  A    between atoms: C_8  and  N_9
REMARK    8  A    between atoms: C_13  and  N_14
REMARK    9  A    between atoms: C_17  and  N_18
REMARK   10  A    between atoms: C_22  and  O_23
REMARK   11  A    between atoms: O_23  and  C_24
REMARK   12  A    between atoms: C_24  and  C_26
REMARK   13  A    between atoms: C_26  and  C_27
REMARK   14  A    between atoms: C_26  and  C_28
REMARK   15  A    between atoms: C_29  and  O_30
REMARK   16  A    between atoms: O_30  and  C_31
REMARK   17  A    between atoms: C_31  and  C_33
REMARK   18  A    between atoms: C_33  and  C_34
REMARK   19  A    between atoms: C_33  and  C_35
REMARK                            x       y       z     vdW  Elec       q    Type
REMARK                         _______ _______ _______ _____ _____    ______ ____
ROOT
ATOM      1  C   UNL     1       4.858   5.832  18.167  0.00  0.00    +0.000 C 
ATOM      2  O   UNL     1       4.521   6.927  19.048  0.00  0.00    +0.000 OA
ATOM      3  C   UNL     1       3.183   6.761  19.559  0.00  0.00    +0.000 C 
ATOM      4  C   UNL     1       2.644   5.413  19.060  0.00  0.00    +0.000 C 
ATOM      5  C   UNL     1       3.509   5.154  17.828  0.00  0.00    +0.000 C 
ENDROOT
BRANCH   3   6
ATOM      6  N   UNL     1       2.371   7.929  19.191  0.00  0.00    +0.000 N 
ATOM      7  C   UNL     1       2.498   8.550  17.962  0.00  0.00    +0.000 A 
ATOM      8  C   UNL     1       1.823   9.660  17.648  0.00  0.00    +0.000 A 
ATOM      9  C   UNL     1       0.915  10.265  18.590  0.00  0.00    +0.000 A 
ATOM     10  C   UNL     1       0.733   9.657  19.776  0.00  0.00    +0.000 A 
ATOM     11  C   UNL     1       1.469   8.412  20.137  0.00  0.00    +0.000 A 
ATOM     12  O   UNL     1       1.275   7.893  21.232  0.00  0.00    +0.000 OA
BRANCH   9  13
ATOM     13  N   UNL     1       0.297  11.434  18.207  0.00  0.00    +0.000 N 
ATOM     14  H   UNL     1      -0.250  11.343  17.355  0.00  0.00    +0.000 HD
ATOM     15  H   UNL     1       0.919  12.237  18.169  0.00  0.00    +0.000 HD
ENDBRANCH   9  13
ENDBRANCH   3   6
BRANCH   1  16
ATOM     16  N   UNL     1       5.766   4.851  18.810  0.00  0.00    +0.000 NA
ATOM     17  N   UNL     1       6.678   5.257  19.558  0.00  0.00    +0.000 NA
ATOM     18  N   UNL     1       7.510   5.636  20.237  0.00  0.00    +0.000 NA
ENDBRANCH   1  16
BRANCH   1  19
ATOM     19  C   UNL     1       5.472   6.469  16.876  0.00  0.00    +0.000 C 
BRANCH  19  20
ATOM     20  O   UNL     1       6.883   6.164  16.834  0.00  0.00    +0.000 OA
BRANCH  20  21
ATOM     21  C   UNL     1       7.243   5.042  16.142  0.00  0.00    +0.000 C 
ATOM     22  O   UNL     1       7.996   4.177  16.553  0.00  0.00    +0.000 OA
BRANCH  21  24
ATOM     23  C   UNL     1       7.490   5.153  13.657  0.00  0.00    +0.000 C 
ATOM     24  C   UNL     1       6.509   5.015  14.815  0.00  0.00    +0.000 C 
ATOM     25  C   UNL     1       5.706   3.722  14.698  0.00  0.00    +0.000 C 
ENDBRANCH  21  24
ENDBRANCH  20  21
ENDBRANCH  19  20
ENDBRANCH   1  19
BRANCH   4  26
ATOM     26  O   UNL     1       2.869   4.388  20.065  0.00  0.00    +0.000 OA
BRANCH  26  27
ATOM     27  C   UNL     1       1.809   4.089  20.869  0.00  0.00    +0.000 C 
ATOM     28  O   UNL     1       0.673   4.510  20.707  0.00  0.00    +0.000 OA
BRANCH  27  29
ATOM     29  C   UNL     1       2.205   3.093  21.954  0.00  0.00    +0.000 C 
ATOM     30  C   UNL     1       1.041   2.181  22.322  0.00  0.00    +0.000 C 
ATOM     31  C   UNL     1       3.405   2.259  21.503  0.00  0.00    +0.000 C 
ENDBRANCH  27  29
ENDBRANCH  26  27
ENDBRANCH   4  26
BRANCH   5  32
ATOM     32  O   UNL     1       3.672   3.763  17.501  0.00  0.00    +0.000 OA
BRANCH  32  33
ATOM     33  C   UNL     1       2.550   3.126  17.070  0.00  0.00    +0.000 C 
ATOM     34  O   UNL     1       1.737   3.613  16.300  0.00  0.00    +0.000 OA
BRANCH  33  35
ATOM     35  C   UNL     1       2.460   1.742  17.685  0.00  0.00    +0.000 C 
ATOM     36  C   UNL     1       3.773   1.402  18.379  0.00  0.00    +0.000 C 
ATOM     37  C   UNL     1       1.285   1.670  18.655  0.00  0.00    +0.000 C 
ENDBRANCH  33  35
ENDBRANCH  32  33
ENDBRANCH   5  32
TORSDOF 13
ENDMDL
MODEL 6
REMARK VINA RESULT:      -6.2      2.034      2.921
REMARK  Name = 
REMARK  19 active torsions:
REMARK  status: ('A' for Active; 'I' for Inactive)
REMARK    1  A    between atoms: C_1  and  C_2
REMARK    2  A    between atoms: C_2  and  C_3
REMARK    3  A    between atoms: C_2  and  C_4
REMARK    4  A    between atoms: C_4  and  O_6
REMARK    5  A    between atoms: O_6  and  C_7
REMARK    6  A    between atoms: C_7  and  C_8
REMARK    7  A    between atoms: C_8  and  N_9
REMARK    8  A    between atoms: C_13  and  N_14
REMARK    9  A    between atoms: C_17  and  N_18
REMARK   10  A    between atoms: C_22  and  O_23
REMARK   11  A    between atoms: O_23  and  C_24
REMARK   12  A    between atoms: C_24  and  C_26
REMARK   13  A    between atoms: C_26  and  C_27
REMARK   14  A    between atoms: C_26  and  C_28
REMARK   15  A    between atoms: C_29  and  O_30
REMARK   16  A    between atoms: O_30  and  C_31
REMARK   17  A    between atoms: C_31  and  C_33
REMARK   18  A    between atoms: C_33  and  C_34
REMARK   19  A    between atoms: C_33  and  C_35
REMARK                            x       y       z     vdW  Elec       q    Type
REMARK                         _______ _______ _______ _____ _____    ______ ____
ROOT
ATOM      1  C   UNL     1      -0.479  11.514  21.497  0.00  0.00    +0.000 C 
ATOM      2  O   UNL     1       0.825  12.134  21.522  0.00  0.00    +0.000 OA
ATOM      3  C   UNL     1       0.696  13.569  21.468  0.00  0.00    +0.000 C 
ATOM      4  C   UNL     1      -0.799  13.917  21.516  0.00  0.00    +0.000 C 
ATOM      5  C   UNL     1      -1.447  12.624  21.024  0.00  0.00    +0.000 C 
ENDROOT
BRANCH   3   6
ATOM      6  N   UNL     1       1.416  14.082  20.294  0.00  0.00    +0.000 N 
ATOM      7  C   UNL     1       1.594  13.318  19.155  0.00  0.00    +0.000 A 
ATOM      8  C   UNL     1       2.316  13.743  18.114  0.00  0.00    +0.000 A 
ATOM      9  C   UNL     1       2.945  15.041  18.131  0.00  0.00    +0.000 A 
ATOM     10  C   UNL     1       2.747  15.828  19.203  0.00  0.00    +0.000 A 
ATOM     11  C   UNL     1       1.936  15.372  20.368  0.00  0.00    +0.000 A 
ATOM     12  O   UNL     1       1.786  16.122  21.328  0.00  0.00    +0.000 OA
BRANCH   9  13
ATOM     13  N   UNL     1       3.710  15.384  17.039  0.00  0.00    +0.000 N 
ATOM     14  H   UNL     1       3.226  15.986  16.377  0.00  0.00    +0.000 HD
ATOM     15  H   UNL     1       4.146  14.591  16.575  0.00  0.00    +0.000 HD
ENDBRANCH   9  13
ENDBRANCH   3   6
BRANCH   1  16
ATOM     16  N   UNL     1      -0.894  11.022  22.834  0.00  0.00    +0.000 NA
ATOM     17  N   UNL     1      -0.176  10.198  23.435  0.00  0.00    +0.000 NA
ATOM     18  N   UNL     1       0.484   9.443  23.976  0.00  0.00    +0.000 NA
ENDBRANCH   1  16
BRANCH   1  19
ATOM     19  C   UNL     1      -0.414  10.374  20.427  0.00  0.00    +0.000 C 
BRANCH  19  20
ATOM     20  O   UNL     1       0.971  10.105  20.120  0.00  0.00    +0.000 OA
BRANCH  20  21
ATOM     21  C   UNL     1       1.321   8.791  19.990  0.00  0.00    +0.000 C 
ATOM     22  O   UNL     1       1.339   7.978  20.897  0.00  0.00    +0.000 OA
BRANCH  21  24
ATOM     23  C   UNL     1       2.081   9.754  17.812  0.00  0.00    +0.000 C 
ATOM     24  C   UNL     1       1.621   8.493  18.533  0.00  0.00    +0.000 C 
ATOM     25  C   UNL     1       2.677   7.395  18.439  0.00  0.00    +0.000 C 
ENDBRANCH  21  24
ENDBRANCH  20  21
ENDBRANCH  19  20
ENDBRANCH   1  19
BRANCH   4  26
ATOM     26  O   UNL     1      -1.198  14.198  22.884  0.00  0.00    +0.000 OA
BRANCH  26  27
ATOM     27  C   UNL     1      -0.919  15.450  23.348  0.00  0.00    +0.000 C 
ATOM     28  O   UNL     1      -0.123  15.700  24.241  0.00  0.00    +0.000 OA
BRANCH  27  29
ATOM     29  C   UNL     1      -1.673  16.512  22.553  0.00  0.00    +0.000 C 
ATOM     30  C   UNL     1      -3.170  16.456  22.834  0.00  0.00    +0.000 C 
ATOM     31  C   UNL     1      -1.129  17.906  22.873  0.00  0.00    +0.000 C 
ENDBRANCH  27  29
ENDBRANCH  26  27
ENDBRANCH   4  26
BRANCH   5  32
ATOM     32  O   UNL     1      -2.786  12.414  21.505  0.00  0.00    +0.000 OA
BRANCH  32  33
ATOM     33  C   UNL     1      -3.774  12.576  20.584  0.00  0.00    +0.000 C 
ATOM     34  O   UNL     1      -3.644  12.351  19.391  0.00  0.00    +0.000 OA
BRANCH  33  35
ATOM     35  C   UNL     1      -5.041  13.077  21.252  0.00  0.00    +0.000 C 
ATOM     36  C   UNL     1      -6.221  12.209  20.834  0.00  0.00    +0.000 C 
ATOM     37  C   UNL     1      -4.871  13.088  22.768  0.00  0.00    +0.000 C 
ENDBRANCH  33  35
ENDBRANCH  32  33
ENDBRANCH   5  32
TORSDOF 13
ENDMDL
MODEL 7
REMARK VINA RESULT:      -6.1      1.993      2.538
REMARK  Name = 
REMARK  19 active torsions:
REMARK  status: ('A' for Active; 'I' for Inactive)
REMARK    1  A    between atoms: C_1  and  C_2
REMARK    2  A    between atoms: C_2  and  C_3
REMARK    3  A    between atoms: C_2  and  C_4
REMARK    4  A    between atoms: C_4  and  O_6
REMARK    5  A    between atoms: O_6  and  C_7
REMARK    6  A    between atoms: C_7  and  C_8
REMARK    7  A    between atoms: C_8  and  N_9
REMARK    8  A    between atoms: C_13  and  N_14
REMARK    9  A    between atoms: C_17  and  N_18
REMARK   10  A    between atoms: C_22  and  O_23
REMARK   11  A    between atoms: O_23  and  C_24
REMARK   12  A    between atoms: C_24  and  C_26
REMARK   13  A    between atoms: C_26  and  C_27
REMARK   14  A    between atoms: C_26  and  C_28
REMARK   15  A    between atoms: C_29  and  O_30
REMARK   16  A    between atoms: O_30  and  C_31
REMARK   17  A    between atoms: C_31  and  C_33
REMARK   18  A    between atoms: C_33  and  C_34
REMARK   19  A    between atoms: C_33  and  C_35
REMARK                            x       y       z     vdW  Elec       q    Type
REMARK                         _______ _______ _______ _____ _____    ______ ____
ROOT
ATOM      1  C   UNL     1       0.069  11.235  20.628  0.00  0.00    +0.000 C 
ATOM      2  O   UNL     1       0.633  12.200  21.544  0.00  0.00    +0.000 OA
ATOM      3  C   UNL     1      -0.301  13.274  21.772  0.00  0.00    +0.000 C 
ATOM      4  C   UNL     1      -1.606  12.939  21.037  0.00  0.00    +0.000 C 
ATOM      5  C   UNL     1      -1.131  11.955  19.968  0.00  0.00    +0.000 C 
ENDROOT
BRANCH   3   6
ATOM      6  N   UNL     1       0.318  14.550  21.389  0.00  0.00    +0.000 N 
ATOM      7  C   UNL     1       0.739  14.799  20.095  0.00  0.00    +0.000 A 
ATOM      8  C   UNL     1       1.376  15.923  19.754  0.00  0.00    +0.000 A 
ATOM      9  C   UNL     1       1.650  16.945  20.733  0.00  0.00    +0.000 A 
ATOM     10  C   UNL     1       1.208  16.754  21.990  0.00  0.00    +0.000 A 
ATOM     11  C   UNL     1       0.487  15.510  22.384  0.00  0.00    +0.000 A 
ATOM     12  O   UNL     1       0.106  15.377  23.543  0.00  0.00    +0.000 OA
BRANCH   9  13
ATOM     13  N   UNL     1       2.352  18.051  20.311  0.00  0.00    +0.000 N 
ATOM     14  H   UNL     1       1.758  18.808  19.982  0.00  0.00    +0.000 HD
ATOM     15  H   UNL     1       3.092  17.840  19.646  0.00  0.00    +0.000 HD
ENDBRANCH   9  13
ENDBRANCH   3   6
BRANCH   1  16
ATOM     16  N   UNL     1      -0.397  10.008  21.318  0.00  0.00    +0.000 NA
ATOM     17  N   UNL     1      -0.112   9.834  22.520  0.00  0.00    +0.000 NA
ATOM     18  N   UNL     1       0.155   9.681  23.617  0.00  0.00    +0.000 NA
ENDBRANCH   1  16
BRANCH   1  19
ATOM     19  C   UNL     1       1.169  10.942  19.553  0.00  0.00    +0.000 C 
BRANCH  19  20
ATOM     20  O   UNL     1       1.085   9.553  19.168  0.00  0.00    +0.000 OA
BRANCH  20  21
ATOM     21  C   UNL     1       1.897   9.155  18.145  0.00  0.00    +0.000 C 
ATOM     22  O   UNL     1       2.335   9.885  17.273  0.00  0.00    +0.000 OA
BRANCH  21  24
ATOM     23  C   UNL     1       3.567   7.355  17.679  0.00  0.00    +0.000 C 
ATOM     24  C   UNL     1       2.217   7.680  18.303  0.00  0.00    +0.000 C 
ATOM     25  C   UNL     1       2.194   7.305  19.782  0.00  0.00    +0.000 C 
ENDBRANCH  21  24
ENDBRANCH  20  21
ENDBRANCH  19  20
ENDBRANCH   1  19
BRANCH   4  26
ATOM     26  O   UNL     1      -2.535  12.292  21.947  0.00  0.00    +0.000 OA
BRANCH  26  27
ATOM     27  C   UNL     1      -3.476  13.096  22.519  0.00  0.00    +0.000 C 
ATOM     28  O   UNL     1      -4.353  13.686  21.904  0.00  0.00    +0.000 OA
BRANCH  27  29
ATOM     29  C   UNL     1      -3.346  13.102  24.039  0.00  0.00    +0.000 C 
ATOM     30  C   UNL     1      -3.217  14.522  24.579  0.00  0.00    +0.000 C 
ATOM     31  C   UNL     1      -4.544  12.401  24.682  0.00  0.00    +0.000 C 
ENDBRANCH  27  29
ENDBRANCH  26  27
ENDBRANCH   4  26
BRANCH   5  32
ATOM     32  O   UNL     1      -2.139  11.028  19.527  0.00  0.00    +0.000 OA
BRANCH  32  33
ATOM     33  C   UNL     1      -3.004  11.503  18.591  0.00  0.00    +0.000 C 
ATOM     34  O   UNL     1      -4.042  12.090  18.851  0.00  0.00    +0.000 OA
BRANCH  33  35
ATOM     35  C   UNL     1      -2.495  11.192  17.196  0.00  0.00    +0.000 C 
ATOM     36  C   UNL     1      -1.769   9.853  17.201  0.00  0.00    +0.000 C 
ATOM     37  C   UNL     1      -3.649  11.193  16.199  0.00  0.00    +0.000 C 
ENDBRANCH  33  35
ENDBRANCH  32  33
ENDBRANCH   5  32
TORSDOF 13
ENDMDL
MODEL 8
REMARK VINA RESULT:      -6.1      2.678      4.104
REMARK  Name = 
REMARK  19 active torsions:
REMARK  status: ('A' for Active; 'I' for Inactive)
REMARK    1  A    between atoms: C_1  and  C_2
REMARK    2  A    between atoms: C_2  and  C_3
REMARK    3  A    between atoms: C_2  and  C_4
REMARK    4  A    between atoms: C_4  and  O_6
REMARK    5  A    between atoms: O_6  and  C_7
REMARK    6  A    between atoms: C_7  and  C_8
REMARK    7  A    between atoms: C_8  and  N_9
REMARK    8  A    between atoms: C_13  and  N_14
REMARK    9  A    between atoms: C_17  and  N_18
REMARK   10  A    between atoms: C_22  and  O_23
REMARK   11  A    between atoms: O_23  and  C_24
REMARK   12  A    between atoms: C_24  and  C_26
REMARK   13  A    between atoms: C_26  and  C_27
REMARK   14  A    between atoms: C_26  and  C_28
REMARK   15  A    between atoms: C_29  and  O_30
REMARK   16  A    between atoms: O_30  and  C_31
REMARK   17  A    between atoms: C_31  and  C_33
REMARK   18  A    between atoms: C_33  and  C_34
REMARK   19  A    between atoms: C_33  and  C_35
REMARK                            x       y       z     vdW  Elec       q    Type
REMARK                         _______ _______ _______ _____ _____    ______ ____
ROOT
ATOM      1  C   UNL     1      -0.537  11.693  21.655  0.00  0.00    +0.000 C 
ATOM      2  O   UNL     1       0.847  12.088  21.533  0.00  0.00    +0.000 OA
ATOM      3  C   UNL     1       0.967  13.521  21.635  0.00  0.00    +0.000 C 
ATOM      4  C   UNL     1      -0.422  14.097  21.948  0.00  0.00    +0.000 C 
ATOM      5  C   UNL     1      -1.350  12.993  21.444  0.00  0.00    +0.000 C 
ENDROOT
BRANCH   3   6
ATOM      6  N   UNL     1       1.597  14.047  20.416  0.00  0.00    +0.000 N 
ATOM      7  C   UNL     1       1.599  13.337  19.230  0.00  0.00    +0.000 A 
ATOM      8  C   UNL     1       2.239  13.770  18.139  0.00  0.00    +0.000 A 
ATOM      9  C   UNL     1       2.959  15.018  18.149  0.00  0.00    +0.000 A 
ATOM     10  C   UNL     1       2.932  15.757  19.273  0.00  0.00    +0.000 A 
ATOM     11  C   UNL     1       2.215  15.294  20.495  0.00  0.00    +0.000 A 
ATOM     12  O   UNL     1       2.221  15.998  21.501  0.00  0.00    +0.000 OA
BRANCH   9  13
ATOM     13  N   UNL     1       3.630  15.368  16.999  0.00  0.00    +0.000 N 
ATOM     14  H   UNL     1       4.367  16.053  17.152  0.00  0.00    +0.000 HD
ATOM     15  H   UNL     1       3.020  15.639  16.232  0.00  0.00    +0.000 HD
ENDBRANCH   9  13
ENDBRANCH   3   6
BRANCH   1  16
ATOM     16  N   UNL     1      -0.844  11.119  22.987  0.00  0.00    +0.000 NA
ATOM     17  N   UNL     1      -0.102  10.234  23.459  0.00  0.00    +0.000 NA
ATOM     18  N   UNL     1       0.579   9.423  23.882  0.00  0.00    +0.000 NA
ENDBRANCH   1  16
BRANCH   1  19
ATOM     19  C   UNL     1      -0.822  10.693  20.485  0.00  0.00    +0.000 C 
BRANCH  19  20
ATOM     20  O   UNL     1      -1.411  11.420  19.385  0.00  0.00    +0.000 OA
BRANCH  20  21
ATOM     21  C   UNL     1      -1.343  10.826  18.157  0.00  0.00    +0.000 C 
ATOM     22  O   UNL     1      -0.544   9.962  17.841  0.00  0.00    +0.000 OA
BRANCH  21  24
ATOM     23  C   UNL     1      -2.612  10.506  16.028  0.00  0.00    +0.000 C 
ATOM     24  C   UNL     1      -2.454  11.365  17.277  0.00  0.00    +0.000 C 
ATOM     25  C   UNL     1      -3.758  11.420  18.069  0.00  0.00    +0.000 C 
ENDBRANCH  21  24
ENDBRANCH  20  21
ENDBRANCH  19  20
ENDBRANCH   1  19
BRANCH   4  26
ATOM     26  O   UNL     1      -0.572  14.273  23.382  0.00  0.00    +0.000 OA
BRANCH  26  27
ATOM     27  C   UNL     1      -0.689  15.559  23.822  0.00  0.00    +0.000 C 
ATOM     28  O   UNL     1       0.253  16.301  24.058  0.00  0.00    +0.000 OA
BRANCH  27  29
ATOM     29  C   UNL     1      -2.152  15.980  23.908  0.00  0.00    +0.000 C 
ATOM     30  C   UNL     1      -2.774  15.558  25.234  0.00  0.00    +0.000 C 
ATOM     31  C   UNL     1      -2.285  17.493  23.723  0.00  0.00    +0.000 C 
ENDBRANCH  27  29
ENDBRANCH  26  27
ENDBRANCH   4  26
BRANCH   5  32
ATOM     32  O   UNL     1      -2.625  12.944  22.107  0.00  0.00    +0.000 OA
BRANCH  32  33
ATOM     33  C   UNL     1      -3.652  13.552  21.453  0.00  0.00    +0.000 C 
ATOM     34  O   UNL     1      -3.542  14.111  20.373  0.00  0.00    +0.000 OA
BRANCH  33  35
ATOM     35  C   UNL     1      -4.933  13.436  22.257  0.00  0.00    +0.000 C 
ATOM     36  C   UNL     1      -5.946  12.594  21.493  0.00  0.00    +0.000 C 
ATOM     37  C   UNL     1      -4.642  12.841  23.632  0.00  0.00    +0.000 C 
ENDBRANCH  33  35
ENDBRANCH  32  33
ENDBRANCH   5  32
TORSDOF 13
ENDMDL
MODEL 9
REMARK VINA RESULT:      -6.1      3.122      4.551
REMARK  Name = 
REMARK  19 active torsions:
REMARK  status: ('A' for Active; 'I' for Inactive)
REMARK    1  A    between atoms: C_1  and  C_2
REMARK    2  A    between atoms: C_2  and  C_3
REMARK    3  A    between atoms: C_2  and  C_4
REMARK    4  A    between atoms: C_4  and  O_6
REMARK    5  A    between atoms: O_6  and  C_7
REMARK    6  A    between atoms: C_7  and  C_8
REMARK    7  A    between atoms: C_8  and  N_9
REMARK    8  A    between atoms: C_13  and  N_14
REMARK    9  A    between atoms: C_17  and  N_18
REMARK   10  A    between atoms: C_22  and  O_23
REMARK   11  A    between atoms: O_23  and  C_24
REMARK   12  A    between atoms: C_24  and  C_26
REMARK   13  A    between atoms: C_26  and  C_27
REMARK   14  A    between atoms: C_26  and  C_28
REMARK   15  A    between atoms: C_29  and  O_30
REMARK   16  A    between atoms: O_30  and  C_31
REMARK   17  A    between atoms: C_31  and  C_33
REMARK   18  A    between atoms: C_33  and  C_34
REMARK   19  A    between atoms: C_33  and  C_35
REMARK                            x       y       z     vdW  Elec       q    Type
REMARK                         _______ _______ _______ _____ _____    ______ ____
ROOT
ATOM      1  C   UNL     1      -0.845  11.963  21.903  0.00  0.00    +0.000 C 
ATOM      2  O   UNL     1       0.360  12.758  21.837  0.00  0.00    +0.000 OA
ATOM      3  C   UNL     1       0.074  14.126  22.191  0.00  0.00    +0.000 C 
ATOM      4  C   UNL     1      -1.399  14.213  22.617  0.00  0.00    +0.000 C 
ATOM      5  C   UNL     1      -2.005  12.987  21.936  0.00  0.00    +0.000 C 
ENDROOT
BRANCH   3   6
ATOM      6  N   UNL     1       0.451  15.008  21.078  0.00  0.00    +0.000 N 
ATOM      7  C   UNL     1      -0.495  15.613  20.271  0.00  0.00    +0.000 A 
ATOM      8  C   UNL     1      -0.162  16.350  19.208  0.00  0.00    +0.000 A 
ATOM      9  C   UNL     1       1.220  16.557  18.854  0.00  0.00    +0.000 A 
ATOM     10  C   UNL     1       2.165  16.024  19.649  0.00  0.00    +0.000 A 
ATOM     11  C   UNL     1       1.811  15.207  20.845  0.00  0.00    +0.000 A 
ATOM     12  O   UNL     1       2.706  14.736  21.539  0.00  0.00    +0.000 OA
BRANCH   9  13
ATOM     13  N   UNL     1       1.477  17.290  17.717  0.00  0.00    +0.000 N 
ATOM     14  H   UNL     1       0.838  17.089  16.952  0.00  0.00    +0.000 HD
ATOM     15  H   UNL     1       2.447  17.255  17.414  0.00  0.00    +0.000 HD
ENDBRANCH   9  13
ENDBRANCH   3   6
BRANCH   1  16
ATOM     16  N   UNL     1      -0.892  11.111  23.115  0.00  0.00    +0.000 NA
ATOM     17  N   UNL     1       0.002  10.262  23.305  0.00  0.00    +0.000 NA
ATOM     18  N   UNL     1       0.822   9.488  23.469  0.00  0.00    +0.000 NA
ENDBRANCH   1  16
BRANCH   1  19
ATOM     19  C   UNL     1      -0.906  11.133  20.577  0.00  0.00    +0.000 C 
BRANCH  19  20
ATOM     20  O   UNL     1      -1.863  11.747  19.688  0.00  0.00    +0.000 OA
BRANCH  20  21
ATOM     21  C   UNL     1      -1.404  12.102  18.451  0.00  0.00    +0.000 C 
ATOM     22  O   UNL     1      -0.440  12.816  18.241  0.00  0.00    +0.000 OA
BRANCH  21  24
ATOM     23  C   UNL     1      -1.801   9.970  17.208  0.00  0.00    +0.000 C 
ATOM     24  C   UNL     1      -2.243  11.417  17.389  0.00  0.00    +0.000 C 
ATOM     25  C   UNL     1      -3.719  11.492  17.772  0.00  0.00    +0.000 C 
ENDBRANCH  21  24
ENDBRANCH  20  21
ENDBRANCH  19  20
ENDBRANCH   1  19
BRANCH   4  26
ATOM     26  O   UNL     1      -1.503  14.096  24.061  0.00  0.00    +0.000 OA
BRANCH  26  27
ATOM     27  C   UNL     1      -1.436  15.262  24.766  0.00  0.00    +0.000 C 
ATOM     28  O   UNL     1      -0.692  15.458  25.716  0.00  0.00    +0.000 OA
BRANCH  27  29
ATOM     29  C   UNL     1      -2.354  16.321  24.167  0.00  0.00    +0.000 C 
ATOM     30  C   UNL     1      -3.561  16.580  25.060  0.00  0.00    +0.000 C 
ATOM     31  C   UNL     1      -1.586  17.624  23.930  0.00  0.00    +0.000 C 
ENDBRANCH  27  29
ENDBRANCH  26  27
ENDBRANCH   4  26
BRANCH   5  32
ATOM     32  O   UNL     1      -3.170  12.460  22.594  0.00  0.00    +0.000 OA
BRANCH  32  33
ATOM     33  C   UNL     1      -4.311  13.184  22.437  0.00  0.00    +0.000 C 
ATOM     34  O   UNL     1      -4.912  13.725  23.351  0.00  0.00    +0.000 OA
BRANCH  33  35
ATOM     35  C   UNL     1      -4.721  13.212  20.976  0.00  0.00    +0.000 C 
ATOM     36  C   UNL     1      -5.851  12.216  20.741  0.00  0.00    +0.000 C 
ATOM     37  C   UNL     1      -5.133  14.623  20.569  0.00  0.00    +0.000 C 
ENDBRANCH  33  35
ENDBRANCH  32  33
ENDBRANCH   5  32
TORSDOF 13
ENDMDL
