MODEL 1
REMARK VINA RESULT:      -7.4      0.000      0.000
REMARK  Name = 
REMARK  3 active torsions:
REMARK  status: ('A' for Active; 'I' for Inactive)
REMARK    1  A    between atoms: C_1  and  C_2
REMARK    2  A    between atoms: C_5  and  C_6
REMARK    3  A    between atoms: C_10  and  C_11
REMARK                            x       y       z     vdW  Elec       q    Type
REMARK                         _______ _______ _______ _____ _____    ______ ____
ROOT
ATOM      1  C   UNL     1       3.145   5.722  17.993  0.00  0.00    +0.000 C 
ATOM      2  C   UNL     1       4.373   5.697  17.461  0.00  0.00    +0.000 C 
ATOM      3  C   UNL     1       5.357   6.800  17.243  0.00  0.00    +0.000 C 
ATOM      4  C   UNL     1       6.183   6.298  16.061  0.00  0.00    +0.000 C 
ATOM      5  C   UNL     1       6.274   4.768  16.193  0.00  0.00    +0.000 C 
ATOM      6  C   UNL     1       4.962   4.454  16.883  0.00  0.00    +0.000 C 
ATOM      7  O   UNL     1       4.463   3.345  16.990  0.00  0.00    +0.000 OA
ENDROOT
BRANCH   1  12
ATOM      8  C   UNL     1       0.529  10.441  20.046  0.00  0.00    +0.000 C 
ATOM      9  C   UNL     1       1.241   9.233  19.511  0.00  0.00    +0.000 A 
ATOM     10  C   UNL     1       1.555   9.128  18.151  0.00  0.00    +0.000 A 
ATOM     11  C   UNL     1       2.189   7.983  17.658  0.00  0.00    +0.000 A 
ATOM     12  C   UNL     1       2.515   6.931  18.519  0.00  0.00    +0.000 A 
ATOM     13  C   UNL     1       2.215   7.038  19.880  0.00  0.00    +0.000 A 
ATOM     14  C   UNL     1       1.581   8.183  20.372  0.00  0.00    +0.000 A 
ENDBRANCH   1  12
BRANCH   5  15
ATOM     15  C   UNL     1       6.420   4.040  14.850  0.00  0.00    +0.000 C 
ATOM     16  C   UNL     1       5.140   3.989  14.019  0.00  0.00    +0.000 C 
ATOM     17  C   UNL     1       5.620   3.646  12.616  0.00  0.00    +0.000 C 
ATOM     18  C   UNL     1       7.014   4.252  12.497  0.00  0.00    +0.000 C 
ATOM     19  C   UNL     1       7.403   4.730  13.896  0.00  0.00    +0.000 C 
ENDBRANCH   5  15
TORSDOF 2
ENDMDL
MODEL 2
REMARK VINA RESULT:      -7.4      0.051      1.109
REMARK  Name = 
REMARK  3 active torsions:
REMARK  status: ('A' for Active; 'I' for Inactive)
REMARK    1  A    between atoms: C_1  and  C_2
REMARK    2  A    between atoms: C_5  and  C_6
REMARK    3  A    between atoms: C_10  and  C_11
REMARK                            x       y       z     vdW  Elec       q    Type
REMARK                         _______ _______ _______ _____ _____    ______ ____
ROOT
ATOM      1  C   UNL     1       3.127   5.688  18.000  0.00  0.00    +0.000 C 
ATOM      2  C   UNL     1       4.353   5.683  17.462  0.00  0.00    +0.000 C 
ATOM      3  C   UNL     1       5.316   6.802  17.234  0.00  0.00    +0.000 C 
ATOM      4  C   UNL     1       6.145   6.309  16.051  0.00  0.00    +0.000 C 
ATOM      5  C   UNL     1       6.265   4.782  16.191  0.00  0.00    +0.000 C 
ATOM      6  C   UNL     1       4.962   4.447  16.889  0.00  0.00    +0.000 C 
ATOM      7  O   UNL     1       4.483   3.330  17.005  0.00  0.00    +0.000 OA
ENDROOT
BRANCH   1  12
ATOM      8  C   UNL     1       0.684  10.485  20.086  0.00  0.00    +0.000 C 
ATOM      9  C   UNL     1       1.286   9.221  19.546  0.00  0.00    +0.000 A 
ATOM     10  C   UNL     1       1.594   8.152  20.395  0.00  0.00    +0.000 A 
ATOM     11  C   UNL     1       2.187   6.992  19.886  0.00  0.00    +0.000 A 
ATOM     12  C   UNL     1       2.477   6.888  18.522  0.00  0.00    +0.000 A 
ATOM     13  C   UNL     1       2.158   7.948  17.669  0.00  0.00    +0.000 A 
ATOM     14  C   UNL     1       1.566   9.107  18.179  0.00  0.00    +0.000 A 
ENDBRANCH   1  12
BRANCH   5  15
ATOM     15  C   UNL     1       6.418   4.048  14.852  0.00  0.00    +0.000 C 
ATOM     16  C   UNL     1       5.142   3.994  14.014  0.00  0.00    +0.000 C 
ATOM     17  C   UNL     1       5.628   3.645  12.615  0.00  0.00    +0.000 C 
ATOM     18  C   UNL     1       7.024   4.251  12.500  0.00  0.00    +0.000 C 
ATOM     19  C   UNL     1       7.405   4.735  13.900  0.00  0.00    +0.000 C 
ENDBRANCH   5  15
TORSDOF 2
ENDMDL
MODEL 3
REMARK VINA RESULT:      -7.3      3.707      7.933
REMARK  Name = 
REMARK  3 active torsions:
REMARK  status: ('A' for Active; 'I' for Inactive)
REMARK    1  A    between atoms: C_1  and  C_2
REMARK    2  A    between atoms: C_5  and  C_6
REMARK    3  A    between atoms: C_10  and  C_11
REMARK                            x       y       z     vdW  Elec       q    Type
REMARK                         _______ _______ _______ _____ _____    ______ ____
ROOT
ATOM      1  C   UNL     1       2.557   7.275  17.899  0.00  0.00    +0.000 C 
ATOM      2  C   UNL     1       2.071   8.118  18.818  0.00  0.00    +0.000 C 
ATOM      3  C   UNL     1       1.653   7.875  20.231  0.00  0.00    +0.000 C 
ATOM      4  C   UNL     1       0.622   8.972  20.481  0.00  0.00    +0.000 C 
ATOM      5  C   UNL     1       1.070  10.203  19.675  0.00  0.00    +0.000 C 
ATOM      6  C   UNL     1       1.779   9.547  18.507  0.00  0.00    +0.000 C 
ATOM      7  O   UNL     1       2.102  10.102  17.469  0.00  0.00    +0.000 OA
ENDROOT
BRANCH   1  12
ATOM      8  C   UNL     1       3.585   1.660  18.766  0.00  0.00    +0.000 C 
ATOM      9  C   UNL     1       3.297   3.120  18.571  0.00  0.00    +0.000 A 
ATOM     10  C   UNL     1       2.066   3.548  18.061  0.00  0.00    +0.000 A 
ATOM     11  C   UNL     1       1.822   4.909  17.852  0.00  0.00    +0.000 A 
ATOM     12  C   UNL     1       2.805   5.856  18.151  0.00  0.00    +0.000 A 
ATOM     13  C   UNL     1       4.030   5.434  18.674  0.00  0.00    +0.000 A 
ATOM     14  C   UNL     1       4.274   4.073  18.882  0.00  0.00    +0.000 A 
ENDBRANCH   1  12
BRANCH   5  15
ATOM     15  C   UNL     1      -0.087  11.105  19.228  0.00  0.00    +0.000 C 
ATOM     16  C   UNL     1      -1.225  10.367  18.525  0.00  0.00    +0.000 C 
ATOM     17  C   UNL     1      -2.394  11.339  18.586  0.00  0.00    +0.000 C 
ATOM     18  C   UNL     1      -2.198  12.142  19.868  0.00  0.00    +0.000 C 
ATOM     19  C   UNL     1      -0.811  11.780  20.400  0.00  0.00    +0.000 C 
ENDBRANCH   5  15
TORSDOF 2
ENDMDL
MODEL 4
REMARK VINA RESULT:      -7.3      3.709      7.939
REMARK  Name = 
REMARK  3 active torsions:
REMARK  status: ('A' for Active; 'I' for Inactive)
REMARK    1  A    between atoms: C_1  and  C_2
REMARK    2  A    between atoms: C_5  and  C_6
REMARK    3  A    between atoms: C_10  and  C_11
REMARK                            x       y       z     vdW  Elec       q    Type
REMARK                         _______ _______ _______ _____ _____    ______ ____
ROOT
ATOM      1  C   UNL     1       2.599   7.356  17.875  0.00  0.00    +0.000 C 
ATOM      2  C   UNL     1       2.080   8.189  18.784  0.00  0.00    +0.000 C 
ATOM      3  C   UNL     1       1.649   7.941  20.193  0.00  0.00    +0.000 C 
ATOM      4  C   UNL     1       0.586   9.012  20.424  0.00  0.00    +0.000 C 
ATOM      5  C   UNL     1       1.013  10.251  19.619  0.00  0.00    +0.000 C 
ATOM      6  C   UNL     1       1.755   9.610  18.463  0.00  0.00    +0.000 C 
ATOM      7  O   UNL     1       2.076  10.169  17.427  0.00  0.00    +0.000 OA
ENDROOT
BRANCH   1  12
ATOM      8  C   UNL     1       3.662   1.801  19.038  0.00  0.00    +0.000 C 
ATOM      9  C   UNL     1       3.407   3.242  18.705  0.00  0.00    +0.000 A 
ATOM     10  C   UNL     1       4.380   4.218  18.946  0.00  0.00    +0.000 A 
ATOM     11  C   UNL     1       4.118   5.563  18.663  0.00  0.00    +0.000 A 
ATOM     12  C   UNL     1       2.881   5.945  18.137  0.00  0.00    +0.000 A 
ATOM     13  C   UNL     1       1.911   4.971  17.882  0.00  0.00    +0.000 A 
ATOM     14  C   UNL     1       2.173   3.628  18.165  0.00  0.00    +0.000 A 
ENDBRANCH   1  12
BRANCH   5  15
ATOM     15  C   UNL     1      -0.161  11.121  19.153  0.00  0.00    +0.000 C 
ATOM     16  C   UNL     1      -1.275  10.349  18.449  0.00  0.00    +0.000 C 
ATOM     17  C   UNL     1      -2.467  11.294  18.489  0.00  0.00    +0.000 C 
ATOM     18  C   UNL     1      -2.301  12.114  19.765  0.00  0.00    +0.000 C 
ATOM     19  C   UNL     1      -0.910  11.791  20.312  0.00  0.00    +0.000 C 
ENDBRANCH   5  15
TORSDOF 2
ENDMDL
MODEL 5
REMARK VINA RESULT:      -7.2      3.582      7.717
REMARK  Name = 
REMARK  3 active torsions:
REMARK  status: ('A' for Active; 'I' for Inactive)
REMARK    1  A    between atoms: C_1  and  C_2
REMARK    2  A    between atoms: C_5  and  C_6
REMARK    3  A    between atoms: C_10  and  C_11
REMARK                            x       y       z     vdW  Elec       q    Type
REMARK                         _______ _______ _______ _____ _____    ______ ____
ROOT
ATOM      1  C   UNL     1       2.477   7.095  17.872  0.00  0.00    +0.000 C 
ATOM      2  C   UNL     1       2.083   7.917  18.853  0.00  0.00    +0.000 C 
ATOM      3  C   UNL     1       1.808   7.642  20.295  0.00  0.00    +0.000 C 
ATOM      4  C   UNL     1       0.803   8.728  20.669  0.00  0.00    +0.000 C 
ATOM      5  C   UNL     1       1.167   9.979  19.850  0.00  0.00    +0.000 C 
ATOM      6  C   UNL     1       1.758   9.351  18.603  0.00  0.00    +0.000 C 
ATOM      7  O   UNL     1       1.974   9.930  17.550  0.00  0.00    +0.000 OA
ENDROOT
BRANCH   1  12
ATOM      8  C   UNL     1       3.601   1.469  18.511  0.00  0.00    +0.000 C 
ATOM      9  C   UNL     1       3.290   2.931  18.377  0.00  0.00    +0.000 A 
ATOM     10  C   UNL     1       2.019   3.362  17.983  0.00  0.00    +0.000 A 
ATOM     11  C   UNL     1       1.751   4.726  17.829  0.00  0.00    +0.000 A 
ATOM     12  C   UNL     1       2.752   5.673  18.068  0.00  0.00    +0.000 A 
ATOM     13  C   UNL     1       4.019   5.247  18.475  0.00  0.00    +0.000 A 
ATOM     14  C   UNL     1       4.286   3.883  18.627  0.00  0.00    +0.000 A 
ENDBRANCH   1  12
BRANCH   5  15
ATOM     15  C   UNL     1      -0.032  10.885  19.539  0.00  0.00    +0.000 C 
ATOM     16  C   UNL     1       0.339  12.224  18.907  0.00  0.00    +0.000 C 
ATOM     17  C   UNL     1      -0.963  12.724  18.300  0.00  0.00    +0.000 C 
ATOM     18  C   UNL     1      -1.743  11.474  17.907  0.00  0.00    +0.000 C 
ATOM     19  C   UNL     1      -0.984  10.285  18.498  0.00  0.00    +0.000 C 
ENDBRANCH   5  15
TORSDOF 2
ENDMDL
MODEL 6
REMARK VINA RESULT:      -7.2      2.037      8.059
REMARK  Name = 
REMARK  3 active torsions:
REMARK  status: ('A' for Active; 'I' for Inactive)
REMARK    1  A    between atoms: C_1  and  C_2
REMARK    2  A    between atoms: C_5  and  C_6
REMARK    3  A    between atoms: C_10  and  C_11
REMARK                            x       y       z     vdW  Elec       q    Type
REMARK                         _______ _______ _______ _____ _____    ______ ____
ROOT
ATOM      1  C   UNL     1       2.990   6.661  19.126  0.00  0.00    +0.000 C 
ATOM      2  C   UNL     1       2.190   7.715  18.927  0.00  0.00    +0.000 C 
ATOM      3  C   UNL     1       1.910   8.497  17.685  0.00  0.00    +0.000 C 
ATOM      4  C   UNL     1       1.517   9.871  18.223  0.00  0.00    +0.000 C 
ATOM      5  C   UNL     1       0.780   9.640  19.554  0.00  0.00    +0.000 C 
ATOM      6  C   UNL     1       1.449   8.371  20.043  0.00  0.00    +0.000 C 
ATOM      7  O   UNL     1       1.376   7.919  21.175  0.00  0.00    +0.000 OA
ENDROOT
BRANCH   1  12
ATOM      8  C   UNL     1       5.985   4.192  14.852  0.00  0.00    +0.000 C 
ATOM      9  C   UNL     1       5.227   4.815  15.988  0.00  0.00    +0.000 A 
ATOM     10  C   UNL     1       4.264   4.087  16.694  0.00  0.00    +0.000 A 
ATOM     11  C   UNL     1       3.540   4.690  17.729  0.00  0.00    +0.000 A 
ATOM     12  C   UNL     1       3.773   6.026  18.067  0.00  0.00    +0.000 A 
ATOM     13  C   UNL     1       4.744   6.752  17.373  0.00  0.00    +0.000 A 
ATOM     14  C   UNL     1       5.466   6.150  16.339  0.00  0.00    +0.000 A 
ENDBRANCH   1  12
BRANCH   5  15
ATOM     15  C   UNL     1       0.921  10.799  20.549  0.00  0.00    +0.000 C 
ATOM     16  C   UNL     1       1.140  12.163  19.899  0.00  0.00    +0.000 C 
ATOM     17  C   UNL     1       0.806  13.159  21.000  0.00  0.00    +0.000 C 
ATOM     18  C   UNL     1      -0.255  12.482  21.862  0.00  0.00    +0.000 C 
ATOM     19  C   UNL     1      -0.345  11.033  21.382  0.00  0.00    +0.000 C 
ENDBRANCH   5  15
TORSDOF 2
ENDMDL
MODEL 7
REMARK VINA RESULT:      -7.2      2.043      8.029
REMARK  Name = 
REMARK  3 active torsions:
REMARK  status: ('A' for Active; 'I' for Inactive)
REMARK    1  A    between atoms: C_1  and  C_2
REMARK    2  A    between atoms: C_5  and  C_6
REMARK    3  A    between atoms: C_10  and  C_11
REMARK                            x       y       z     vdW  Elec       q    Type
REMARK                         _______ _______ _______ _____ _____    ______ ____
ROOT
ATOM      1  C   UNL     1       2.970   6.665  19.118  0.00  0.00    +0.000 C 
ATOM      2  C   UNL     1       2.163   7.717  18.935  0.00  0.00    +0.000 C 
ATOM      3  C   UNL     1       1.852   8.496  17.698  0.00  0.00    +0.000 C 
ATOM      4  C   UNL     1       1.469   9.870  18.242  0.00  0.00    +0.000 C 
ATOM      5  C   UNL     1       0.764   9.640  19.589  0.00  0.00    +0.000 C 
ATOM      6  C   UNL     1       1.447   8.374  20.066  0.00  0.00    +0.000 C 
ATOM      7  O   UNL     1       1.400   7.925  21.200  0.00  0.00    +0.000 OA
ENDROOT
BRANCH   1  12
ATOM      8  C   UNL     1       6.066   4.115  14.965  0.00  0.00    +0.000 C 
ATOM      9  C   UNL     1       5.241   4.795  16.019  0.00  0.00    +0.000 A 
ATOM     10  C   UNL     1       5.465   6.136  16.352  0.00  0.00    +0.000 A 
ATOM     11  C   UNL     1       4.713   6.749  17.359  0.00  0.00    +0.000 A 
ATOM     12  C   UNL     1       3.729   6.029  18.043  0.00  0.00    +0.000 A 
ATOM     13  C   UNL     1       3.494   4.694  17.703  0.00  0.00    +0.000 A 
ATOM     14  C   UNL     1       4.246   4.081  16.698  0.00  0.00    +0.000 A 
ENDBRANCH   1  12
BRANCH   5  15
ATOM     15  C   UNL     1       0.925  10.802  20.578  0.00  0.00    +0.000 C 
ATOM     16  C   UNL     1       1.251  12.143  19.926  0.00  0.00    +0.000 C 
ATOM     17  C   UNL     1       0.924  13.170  20.999  0.00  0.00    +0.000 C 
ATOM     18  C   UNL     1      -0.212  12.565  21.818  0.00  0.00    +0.000 C 
ATOM     19  C   UNL     1      -0.363  11.118  21.349  0.00  0.00    +0.000 C 
ENDBRANCH   5  15
TORSDOF 2
ENDMDL
MODEL 8
REMARK VINA RESULT:      -7.1      3.483      7.719
REMARK  Name = 
REMARK  3 active torsions:
REMARK  status: ('A' for Active; 'I' for Inactive)
REMARK    1  A    between atoms: C_1  and  C_2
REMARK    2  A    between atoms: C_5  and  C_6
REMARK    3  A    between atoms: C_10  and  C_11
REMARK                            x       y       z     vdW  Elec       q    Type
REMARK                         _______ _______ _______ _____ _____    ______ ____
ROOT
ATOM      1  C   UNL     1       2.461   6.978  17.787  0.00  0.00    +0.000 C 
ATOM      2  C   UNL     1       2.094   7.787  18.788  0.00  0.00    +0.000 C 
ATOM      3  C   UNL     1       1.883   7.499  20.239  0.00  0.00    +0.000 C 
ATOM      4  C   UNL     1       0.878   8.567  20.661  0.00  0.00    +0.000 C 
ATOM      5  C   UNL     1       1.188   9.828  19.836  0.00  0.00    +0.000 C 
ATOM      6  C   UNL     1       1.737   9.218  18.562  0.00  0.00    +0.000 C 
ATOM      7  O   UNL     1       1.902   9.806  17.505  0.00  0.00    +0.000 OA
ENDROOT
BRANCH   1  12
ATOM      8  C   UNL     1       3.636   1.387  18.613  0.00  0.00    +0.000 C 
ATOM      9  C   UNL     1       3.347   2.838  18.365  0.00  0.00    +0.000 A 
ATOM     10  C   UNL     1       4.354   3.802  18.485  0.00  0.00    +0.000 A 
ATOM     11  C   UNL     1       4.064   5.156  18.285  0.00  0.00    +0.000 A 
ATOM     12  C   UNL     1       2.766   5.560  17.962  0.00  0.00    +0.000 A 
ATOM     13  C   UNL     1       1.760   4.598  17.827  0.00  0.00    +0.000 A 
ATOM     14  C   UNL     1       2.050   3.245  18.029  0.00  0.00    +0.000 A 
ENDBRANCH   1  12
BRANCH   5  15
ATOM     15  C   UNL     1      -0.036  10.717  19.580  0.00  0.00    +0.000 C 
ATOM     16  C   UNL     1       0.300  12.145  19.156  0.00  0.00    +0.000 C 
ATOM     17  C   UNL     1      -0.992  12.668  18.547  0.00  0.00    +0.000 C 
ATOM     18  C   UNL     1      -1.687  11.451  17.945  0.00  0.00    +0.000 C 
ATOM     19  C   UNL     1      -0.903  10.225  18.414  0.00  0.00    +0.000 C 
ENDBRANCH   5  15
TORSDOF 2
ENDMDL
MODEL 9
REMARK VINA RESULT:      -6.9      2.239      3.862
REMARK  Name = 
REMARK  3 active torsions:
REMARK  status: ('A' for Active; 'I' for Inactive)
REMARK    1  A    between atoms: C_1  and  C_2
REMARK    2  A    between atoms: C_5  and  C_6
REMARK    3  A    between atoms: C_10  and  C_11
REMARK                            x       y       z     vdW  Elec       q    Type
REMARK                         _______ _______ _______ _____ _____    ______ ____
ROOT
ATOM      1  C   UNL     1       2.213   8.146  19.097  0.00  0.00    +0.000 C 
ATOM      2  C   UNL     1       2.517   6.843  19.111  0.00  0.00    +0.000 C 
ATOM      3  C   UNL     1       2.115   5.764  20.063  0.00  0.00    +0.000 C 
ATOM      4  C   UNL     1       3.258   4.760  19.951  0.00  0.00    +0.000 C 
ATOM      5  C   UNL     1       3.750   4.798  18.494  0.00  0.00    +0.000 C 
ATOM      6  C   UNL     1       3.454   6.237  18.121  0.00  0.00    +0.000 C 
ATOM      7  O   UNL     1       3.885   6.820  17.140  0.00  0.00    +0.000 OA
ENDROOT
BRANCH   1  12
ATOM      8  C   UNL     1      -1.130  10.770  23.005  0.00  0.00    +0.000 C 
ATOM      9  C   UNL     1      -0.283  10.058  21.992  0.00  0.00    +0.000 A 
ATOM     10  C   UNL     1       0.636   9.078  22.384  0.00  0.00    +0.000 A 
ATOM     11  C   UNL     1       1.444   8.446  21.434  0.00  0.00    +0.000 A 
ATOM     12  C   UNL     1       1.342   8.785  20.082  0.00  0.00    +0.000 A 
ATOM     13  C   UNL     1       0.415   9.754  19.685  0.00  0.00    +0.000 A 
ATOM     14  C   UNL     1      -0.392  10.386  20.635  0.00  0.00    +0.000 A 
ENDBRANCH   1  12
BRANCH   5  15
ATOM     15  C   UNL     1       5.233   4.442  18.331  0.00  0.00    +0.000 C 
ATOM     16  C   UNL     1       5.743   4.510  16.894  0.00  0.00    +0.000 C 
ATOM     17  C   UNL     1       7.257   4.566  17.037  0.00  0.00    +0.000 C 
ATOM     18  C   UNL     1       7.521   5.282  18.357  0.00  0.00    +0.000 C 
ATOM     19  C   UNL     1       6.168   5.420  19.056  0.00  0.00    +0.000 C 
ENDBRANCH   5  15
TORSDOF 2
ENDMDL
