MODEL 1
REMARK VINA RESULT:      -7.4      0.000      0.000
REMARK  Name = 
REMARK  3 active torsions:
REMARK  status: ('A' for Active; 'I' for Inactive)
REMARK    1  A    between atoms: C_2  and  C_4
REMARK    2  A    between atoms: N_11  and  C_12
REMARK    3  A    between atoms: C_12  and  C_13
REMARK                            x       y       z     vdW  Elec       q    Type
REMARK                         _______ _______ _______ _____ _____    ______ ____
ROOT
ATOM      1  C   UNL     1       5.994   3.504  12.503  0.00  0.00    +0.000 A 
ATOM      2  C   UNL     1       7.294   3.891  12.260  0.00  0.00    +0.000 A 
ATOM      3  S   UNL     1       7.835   4.931  13.501  0.00  0.00    +0.000 S 
ATOM      4  C   UNL     1       6.304   4.802  14.304  0.00  0.00    +0.000 A 
ATOM      5  N   UNL     1       5.990   5.485  15.446  0.00  0.00    +0.000 N 
ATOM      6  C   UNL     1       7.023   5.806  16.444  0.00  0.00    +0.000 C 
ATOM      7  C   UNL     1       6.534   6.929  17.402  0.00  0.00    +0.000 C 
ATOM      8  N   UNL     1       5.200   6.714  18.027  0.00  0.00    +0.000 NA
ATOM      9  C   UNL     1       4.249   6.420  16.927  0.00  0.00    +0.000 C 
ATOM     10  C   UNL     1       4.653   5.246  16.014  0.00  0.00    +0.000 C 
ATOM     11  N   UNL     1       5.442   4.034  13.669  0.00  0.00    +0.000 NA
ENDROOT
BRANCH   1  13
ATOM     12  N   UNL     1       5.815   1.422  11.391  0.00  0.00    +0.000 N 
ATOM     13  C   UNL     1       5.224   2.628  11.627  0.00  0.00    +0.000 C 
ATOM     14  O   UNL     1       4.132   2.920  11.145  0.00  0.00    +0.000 OA
ATOM     15  H   UNL     1       5.332   0.730  10.839  0.00  0.00    +0.000 HD
ATOM     16  H   UNL     1       6.696   1.207  11.842  0.00  0.00    +0.000 HD
ENDBRANCH   1  13
BRANCH   8  17
ATOM     17  C   UNL     1       5.280   5.630  19.025  0.00  0.00    +0.000 C 
BRANCH  17  18
ATOM     18  C   UNL     1       3.950   5.061  19.454  0.00  0.00    +0.000 A 
ATOM     19  C   UNL     1       3.005   5.836  20.174  0.00  0.00    +0.000 A 
ATOM     20  C   UNL     1       1.765   5.338  20.644  0.00  0.00    +0.000 A 
ATOM     21  C   UNL     1       1.337   4.017  20.434  0.00  0.00    +0.000 A 
ATOM     22  C   UNL     1       2.221   3.193  19.702  0.00  0.00    +0.000 A 
ATOM     23  N   UNL     1       2.001   1.910  19.374  0.00  0.00    +0.000 NA
ATOM     24  S   UNL     1       3.331   1.409  18.519  0.00  0.00    +0.000 S 
ATOM     25  N   UNL     1       4.253   2.788  18.539  0.00  0.00    +0.000 NA
ATOM     26  C   UNL     1       3.547   3.717  19.207  0.00  0.00    +0.000 A 
ENDBRANCH  17  18
ENDBRANCH   8  17
TORSDOF 3
ENDMDL
MODEL 2
REMARK VINA RESULT:      -7.1      4.116      7.647
REMARK  Name = 
REMARK  3 active torsions:
REMARK  status: ('A' for Active; 'I' for Inactive)
REMARK    1  A    between atoms: C_2  and  C_4
REMARK    2  A    between atoms: N_11  and  C_12
REMARK    3  A    between atoms: C_12  and  C_13
REMARK                            x       y       z     vdW  Elec       q    Type
REMARK                         _______ _______ _______ _____ _____    ______ ____
ROOT
ATOM      1  C   UNL     1       1.266   9.808  19.543  0.00  0.00    +0.000 A 
ATOM      2  C   UNL     1       0.790   9.690  20.830  0.00  0.00    +0.000 A 
ATOM      3  S   UNL     1       0.960   8.081  21.372  0.00  0.00    +0.000 S 
ATOM      4  C   UNL     1       1.669   7.624  19.857  0.00  0.00    +0.000 A 
ATOM      5  N   UNL     1       2.035   6.344  19.549  0.00  0.00    +0.000 N 
ATOM      6  C   UNL     1       2.512   5.421  20.592  0.00  0.00    +0.000 C 
ATOM      7  C   UNL     1       2.444   3.948  20.097  0.00  0.00    +0.000 C 
ATOM      8  N   UNL     1       3.079   3.677  18.778  0.00  0.00    +0.000 NA
ATOM      9  C   UNL     1       2.508   4.651  17.815  0.00  0.00    +0.000 C 
ATOM     10  C   UNL     1       2.645   6.130  18.227  0.00  0.00    +0.000 C 
ATOM     11  N   UNL     1       1.760   8.621  19.000  0.00  0.00    +0.000 NA
ENDROOT
BRANCH   1  13
ATOM     12  N   UNL     1       2.187  11.095  17.784  0.00  0.00    +0.000 N 
ATOM     13  C   UNL     1       1.254  11.048  18.776  0.00  0.00    +0.000 C 
ATOM     14  O   UNL     1       0.473  11.975  18.975  0.00  0.00    +0.000 OA
ATOM     15  H   UNL     1       2.219  11.892  17.166  0.00  0.00    +0.000 HD
ATOM     16  H   UNL     1       2.783  10.291  17.627  0.00  0.00    +0.000 HD
ENDBRANCH   1  13
BRANCH   8  17
ATOM     17  C   UNL     1       4.547   3.776  18.895  0.00  0.00    +0.000 C 
BRANCH  17  18
ATOM     18  C   UNL     1       5.260   4.187  17.632  0.00  0.00    +0.000 A 
ATOM     19  C   UNL     1       5.068   3.497  16.408  0.00  0.00    +0.000 A 
ATOM     20  C   UNL     1       5.749   3.810  15.205  0.00  0.00    +0.000 A 
ATOM     21  C   UNL     1       6.684   4.852  15.100  0.00  0.00    +0.000 A 
ATOM     22  C   UNL     1       6.909   5.599  16.277  0.00  0.00    +0.000 A 
ATOM     23  N   UNL     1       7.743   6.644  16.392  0.00  0.00    +0.000 NA
ATOM     24  S   UNL     1       7.635   7.162  17.964  0.00  0.00    +0.000 S 
ATOM     25  N   UNL     1       6.539   6.077  18.575  0.00  0.00    +0.000 NA
ATOM     26  C   UNL     1       6.192   5.263  17.563  0.00  0.00    +0.000 A 
ENDBRANCH  17  18
ENDBRANCH   8  17
TORSDOF 3
ENDMDL
MODEL 3
REMARK VINA RESULT:      -6.9      1.592      1.929
REMARK  Name = 
REMARK  3 active torsions:
REMARK  status: ('A' for Active; 'I' for Inactive)
REMARK    1  A    between atoms: C_2  and  C_4
REMARK    2  A    between atoms: N_11  and  C_12
REMARK    3  A    between atoms: C_12  and  C_13
REMARK                            x       y       z     vdW  Elec       q    Type
REMARK                         _______ _______ _______ _____ _____    ______ ____
ROOT
ATOM      1  C   UNL     1       6.055   3.412  12.403  0.00  0.00    +0.000 A 
ATOM      2  C   UNL     1       7.278   3.954  12.075  0.00  0.00    +0.000 A 
ATOM      3  S   UNL     1       7.804   5.003  13.314  0.00  0.00    +0.000 S 
ATOM      4  C   UNL     1       6.369   4.672  14.230  0.00  0.00    +0.000 A 
ATOM      5  N   UNL     1       6.080   5.272  15.423  0.00  0.00    +0.000 N 
ATOM      6  C   UNL     1       7.151   5.673  16.350  0.00  0.00    +0.000 C 
ATOM      7  C   UNL     1       6.623   6.697  17.393  0.00  0.00    +0.000 C 
ATOM      8  N   UNL     1       5.379   6.309  18.112  0.00  0.00    +0.000 NA
ATOM      9  C   UNL     1       4.377   5.948  17.079  0.00  0.00    +0.000 C 
ATOM     10  C   UNL     1       4.830   4.861  16.084  0.00  0.00    +0.000 C 
ATOM     11  N   UNL     1       5.548   3.833  13.632  0.00  0.00    +0.000 NA
ENDROOT
BRANCH   1  13
ATOM     12  N   UNL     1       5.958   1.304  11.330  0.00  0.00    +0.000 N 
ATOM     13  C   UNL     1       5.316   2.486  11.552  0.00  0.00    +0.000 C 
ATOM     14  O   UNL     1       4.206   2.719  11.078  0.00  0.00    +0.000 OA
ATOM     15  H   UNL     1       5.501   0.581  10.797  0.00  0.00    +0.000 HD
ATOM     16  H   UNL     1       6.853   1.137  11.774  0.00  0.00    +0.000 HD
ENDBRANCH   1  13
BRANCH   8  17
ATOM     17  C   UNL     1       5.662   5.206  19.051  0.00  0.00    +0.000 C 
BRANCH  17  18
ATOM     18  C   UNL     1       4.496   4.289  19.326  0.00  0.00    +0.000 A 
ATOM     19  C   UNL     1       4.560   2.899  19.055  0.00  0.00    +0.000 A 
ATOM     20  C   UNL     1       3.480   2.002  19.247  0.00  0.00    +0.000 A 
ATOM     21  C   UNL     1       2.227   2.402  19.740  0.00  0.00    +0.000 A 
ATOM     22  C   UNL     1       2.099   3.773  20.054  0.00  0.00    +0.000 A 
ATOM     23  N   UNL     1       1.000   4.361  20.553  0.00  0.00    +0.000 NA
ATOM     24  S   UNL     1       1.370   5.966  20.744  0.00  0.00    +0.000 S 
ATOM     25  N   UNL     1       2.933   5.994  20.190  0.00  0.00    +0.000 NA
ATOM     26  C   UNL     1       3.244   4.733  19.842  0.00  0.00    +0.000 A 
ENDBRANCH  17  18
ENDBRANCH   8  17
TORSDOF 3
ENDMDL
MODEL 4
REMARK VINA RESULT:      -6.5      5.806      7.193
REMARK  Name = 
REMARK  3 active torsions:
REMARK  status: ('A' for Active; 'I' for Inactive)
REMARK    1  A    between atoms: C_2  and  C_4
REMARK    2  A    between atoms: N_11  and  C_12
REMARK    3  A    between atoms: C_12  and  C_13
REMARK                            x       y       z     vdW  Elec       q    Type
REMARK                         _______ _______ _______ _____ _____    ______ ____
ROOT
ATOM      1  C   UNL     1       5.222   5.020  17.049  0.00  0.00    +0.000 A 
ATOM      2  C   UNL     1       5.178   4.289  18.216  0.00  0.00    +0.000 A 
ATOM      3  S   UNL     1       4.165   5.061  19.352  0.00  0.00    +0.000 S 
ATOM      4  C   UNL     1       3.830   6.331  18.220  0.00  0.00    +0.000 A 
ATOM      5  N   UNL     1       3.055   7.418  18.512  0.00  0.00    +0.000 N 
ATOM      6  C   UNL     1       1.929   7.315  19.454  0.00  0.00    +0.000 C 
ATOM      7  C   UNL     1       1.493   8.723  19.950  0.00  0.00    +0.000 C 
ATOM      8  N   UNL     1       1.243   9.736  18.888  0.00  0.00    +0.000 NA
ATOM      9  C   UNL     1       2.447   9.761  18.021  0.00  0.00    +0.000 C 
ATOM     10  C   UNL     1       2.852   8.396  17.430  0.00  0.00    +0.000 C 
ATOM     11  N   UNL     1       4.452   6.183  17.068  0.00  0.00    +0.000 NA
ENDROOT
BRANCH   1  13
ATOM     12  N   UNL     1       7.357   4.720  16.075  0.00  0.00    +0.000 N 
ATOM     13  C   UNL     1       6.010   4.649  15.880  0.00  0.00    +0.000 C 
ATOM     14  O   UNL     1       5.529   4.285  14.809  0.00  0.00    +0.000 OA
ATOM     15  H   UNL     1       7.984   4.431  15.339  0.00  0.00    +0.000 HD
ATOM     16  H   UNL     1       7.712   4.984  16.986  0.00  0.00    +0.000 HD
ENDBRANCH   1  13
BRANCH   8  17
ATOM     17  C   UNL     1       0.009   9.400  18.151  0.00  0.00    +0.000 C 
BRANCH  17  18
ATOM     18  C   UNL     1      -1.143  10.347  18.374  0.00  0.00    +0.000 A 
ATOM     19  C   UNL     1      -1.271  11.097  19.571  0.00  0.00    +0.000 A 
ATOM     20  C   UNL     1      -2.357  11.963  19.853  0.00  0.00    +0.000 A 
ATOM     21  C   UNL     1      -3.422  12.174  18.962  0.00  0.00    +0.000 A 
ATOM     22  C   UNL     1      -3.349  11.475  17.737  0.00  0.00    +0.000 A 
ATOM     23  N   UNL     1      -4.246  11.548  16.741  0.00  0.00    +0.000 NA
ATOM     24  S   UNL     1      -3.695  10.548  15.538  0.00  0.00    +0.000 S 
ATOM     25  N   UNL     1      -2.304   9.966  16.229  0.00  0.00    +0.000 NA
ATOM     26  C   UNL     1      -2.198  10.546  17.437  0.00  0.00    +0.000 A 
ENDBRANCH  17  18
ENDBRANCH   8  17
TORSDOF 3
ENDMDL
MODEL 5
REMARK VINA RESULT:      -6.4      6.803      9.063
REMARK  Name = 
REMARK  3 active torsions:
REMARK  status: ('A' for Active; 'I' for Inactive)
REMARK    1  A    between atoms: C_2  and  C_4
REMARK    2  A    between atoms: N_11  and  C_12
REMARK    3  A    between atoms: C_12  and  C_13
REMARK                            x       y       z     vdW  Elec       q    Type
REMARK                         _______ _______ _______ _____ _____    ______ ____
ROOT
ATOM      1  C   UNL     1       2.262  15.057  18.843  0.00  0.00    +0.000 A 
ATOM      2  C   UNL     1       1.507  15.510  19.902  0.00  0.00    +0.000 A 
ATOM      3  S   UNL     1       0.680  14.206  20.630  0.00  0.00    +0.000 S 
ATOM      4  C   UNL     1       1.382  13.100  19.494  0.00  0.00    +0.000 A 
ATOM      5  N   UNL     1       1.088  11.766  19.458  0.00  0.00    +0.000 N 
ATOM      6  C   UNL     1       0.752  11.031  20.688  0.00  0.00    +0.000 C 
ATOM      7  C   UNL     1       0.047   9.686  20.351  0.00  0.00    +0.000 C 
ATOM      8  N   UNL     1       0.738   8.823  19.355  0.00  0.00    +0.000 NA
ATOM      9  C   UNL     1       1.004   9.665  18.163  0.00  0.00    +0.000 C 
ATOM     10  C   UNL     1       1.790  10.961  18.444  0.00  0.00    +0.000 C 
ATOM     11  N   UNL     1       2.178  13.683  18.620  0.00  0.00    +0.000 NA
ENDROOT
BRANCH   1  13
ATOM     12  N   UNL     1       3.838  15.239  17.087  0.00  0.00    +0.000 N 
ATOM     13  C   UNL     1       3.079  15.917  17.994  0.00  0.00    +0.000 C 
ATOM     14  O   UNL     1       3.088  17.144  18.059  0.00  0.00    +0.000 OA
ATOM     15  H   UNL     1       4.396  15.752  16.422  0.00  0.00    +0.000 HD
ATOM     16  H   UNL     1       3.769  14.230  17.040  0.00  0.00    +0.000 HD
ENDBRANCH   1  13
BRANCH   8  17
ATOM     17  C   UNL     1       1.966   8.255  19.946  0.00  0.00    +0.000 C 
BRANCH  17  18
ATOM     18  C   UNL     1       2.501   7.031  19.246  0.00  0.00    +0.000 A 
ATOM     19  C   UNL     1       3.303   7.128  18.080  0.00  0.00    +0.000 A 
ATOM     20  C   UNL     1       3.790   6.011  17.356  0.00  0.00    +0.000 A 
ATOM     21  C   UNL     1       3.533   4.682  17.730  0.00  0.00    +0.000 A 
ATOM     22  C   UNL     1       2.758   4.509  18.898  0.00  0.00    +0.000 A 
ATOM     23  N   UNL     1       2.413   3.330  19.439  0.00  0.00    +0.000 NA
ATOM     24  S   UNL     1       1.515   3.677  20.790  0.00  0.00    +0.000 S 
ATOM     25  N   UNL     1       1.509   5.336  20.742  0.00  0.00    +0.000 NA
ATOM     26  C   UNL     1       2.230   5.696  19.666  0.00  0.00    +0.000 A 
ENDBRANCH  17  18
ENDBRANCH   8  17
TORSDOF 3
ENDMDL
MODEL 6
REMARK VINA RESULT:      -6.4      7.405     10.729
REMARK  Name = 
REMARK  3 active torsions:
REMARK  status: ('A' for Active; 'I' for Inactive)
REMARK    1  A    between atoms: C_2  and  C_4
REMARK    2  A    between atoms: N_11  and  C_12
REMARK    3  A    between atoms: C_12  and  C_13
REMARK                            x       y       z     vdW  Elec       q    Type
REMARK                         _______ _______ _______ _____ _____    ______ ____
ROOT
ATOM      1  C   UNL     1      -3.094  12.430  23.078  0.00  0.00    +0.000 A 
ATOM      2  C   UNL     1      -3.251  13.165  21.923  0.00  0.00    +0.000 A 
ATOM      3  S   UNL     1      -2.144  12.634  20.738  0.00  0.00    +0.000 S 
ATOM      4  C   UNL     1      -1.515  11.443  21.829  0.00  0.00    +0.000 A 
ATOM      5  N   UNL     1      -0.471  10.616  21.525  0.00  0.00    +0.000 N 
ATOM      6  C   UNL     1      -0.242  10.160  20.144  0.00  0.00    +0.000 C 
ATOM      7  C   UNL     1       1.204   9.616  19.975  0.00  0.00    +0.000 C 
ATOM      8  N   UNL     1       1.638   8.603  20.977  0.00  0.00    +0.000 NA
ATOM      9  C   UNL     1       1.377   9.182  22.318  0.00  0.00    +0.000 C 
ATOM     10  C   UNL     1      -0.074   9.644  22.557  0.00  0.00    +0.000 C 
ATOM     11  N   UNL     1      -2.099  11.456  23.011  0.00  0.00    +0.000 NA
ENDROOT
BRANCH   1  13
ATOM     12  N   UNL     1      -3.543  13.773  24.974  0.00  0.00    +0.000 N 
ATOM     13  C   UNL     1      -3.873  12.640  24.293  0.00  0.00    +0.000 C 
ATOM     14  O   UNL     1      -4.763  11.887  24.681  0.00  0.00    +0.000 OA
ATOM     15  H   UNL     1      -4.064  14.029  25.799  0.00  0.00    +0.000 HD
ATOM     16  H   UNL     1      -2.832  14.388  24.596  0.00  0.00    +0.000 HD
ENDBRANCH   1  13
BRANCH   8  17
ATOM     17  C   UNL     1       0.924   7.331  20.750  0.00  0.00    +0.000 C 
BRANCH  17  18
ATOM     18  C   UNL     1       1.803   6.172  20.351  0.00  0.00    +0.000 A 
ATOM     19  C   UNL     1       1.779   4.942  21.056  0.00  0.00    +0.000 A 
ATOM     20  C   UNL     1       2.617   3.839  20.756  0.00  0.00    +0.000 A 
ATOM     21  C   UNL     1       3.557   3.850  19.713  0.00  0.00    +0.000 A 
ATOM     22  C   UNL     1       3.619   5.038  18.952  0.00  0.00    +0.000 A 
ATOM     23  N   UNL     1       4.430   5.253  17.903  0.00  0.00    +0.000 NA
ATOM     24  S   UNL     1       4.108   6.789  17.368  0.00  0.00    +0.000 S 
ATOM     25  N   UNL     1       2.940   7.258  18.448  0.00  0.00    +0.000 NA
ATOM     26  C   UNL     1       2.735   6.218  19.274  0.00  0.00    +0.000 A 
ENDBRANCH  17  18
ENDBRANCH   8  17
TORSDOF 3
ENDMDL
MODEL 7
REMARK VINA RESULT:      -6.3      6.654      8.883
REMARK  Name = 
REMARK  3 active torsions:
REMARK  status: ('A' for Active; 'I' for Inactive)
REMARK    1  A    between atoms: C_2  and  C_4
REMARK    2  A    between atoms: N_11  and  C_12
REMARK    3  A    between atoms: C_12  and  C_13
REMARK                            x       y       z     vdW  Elec       q    Type
REMARK                         _______ _______ _______ _____ _____    ______ ____
ROOT
ATOM      1  C   UNL     1       2.610  14.947  18.620  0.00  0.00    +0.000 A 
ATOM      2  C   UNL     1       1.849  15.497  19.628  0.00  0.00    +0.000 A 
ATOM      3  S   UNL     1       0.929  14.281  20.396  0.00  0.00    +0.000 S 
ATOM      4  C   UNL     1       1.603  13.079  19.344  0.00  0.00    +0.000 A 
ATOM      5  N   UNL     1       1.237  11.763  19.369  0.00  0.00    +0.000 N 
ATOM      6  C   UNL     1       0.823  11.115  20.624  0.00  0.00    +0.000 C 
ATOM      7  C   UNL     1       0.056   9.794  20.336  0.00  0.00    +0.000 C 
ATOM      8  N   UNL     1       0.727   8.841  19.410  0.00  0.00    +0.000 NA
ATOM      9  C   UNL     1       1.076   9.601  18.185  0.00  0.00    +0.000 C 
ATOM     10  C   UNL     1       1.923  10.867  18.423  0.00  0.00    +0.000 C 
ATOM     11  N   UNL     1       2.457  13.569  18.467  0.00  0.00    +0.000 NA
ENDROOT
BRANCH   1  13
ATOM     12  N   UNL     1       4.642  15.056  17.412  0.00  0.00    +0.000 N 
ATOM     13  C   UNL     1       3.499  15.714  17.755  0.00  0.00    +0.000 C 
ATOM     14  O   UNL     1       3.255  16.846  17.344  0.00  0.00    +0.000 OA
ATOM     15  H   UNL     1       5.293  15.486  16.773  0.00  0.00    +0.000 HD
ATOM     16  H   UNL     1       4.783  14.108  17.739  0.00  0.00    +0.000 HD
ENDBRANCH   1  13
BRANCH   8  17
ATOM     17  C   UNL     1       1.903   8.241  20.070  0.00  0.00    +0.000 C 
BRANCH  17  18
ATOM     18  C   UNL     1       2.052   6.753  19.876  0.00  0.00    +0.000 A 
ATOM     19  C   UNL     1       1.395   5.822  20.719  0.00  0.00    +0.000 A 
ATOM     20  C   UNL     1       1.539   4.416  20.613  0.00  0.00    +0.000 A 
ATOM     21  C   UNL     1       2.347   3.797  19.645  0.00  0.00    +0.000 A 
ATOM     22  C   UNL     1       3.015   4.666  18.754  0.00  0.00    +0.000 A 
ATOM     23  N   UNL     1       3.817   4.286  17.747  0.00  0.00    +0.000 NA
ATOM     24  S   UNL     1       4.339   5.677  17.010  0.00  0.00    +0.000 S 
ATOM     25  N   UNL     1       3.585   6.825  17.942  0.00  0.00    +0.000 NA
ATOM     26  C   UNL     1       2.871   6.164  18.870  0.00  0.00    +0.000 A 
ENDBRANCH  17  18
ENDBRANCH   8  17
TORSDOF 3
ENDMDL
MODEL 8
REMARK VINA RESULT:      -6.2      5.719      8.568
REMARK  Name = 
REMARK  3 active torsions:
REMARK  status: ('A' for Active; 'I' for Inactive)
REMARK    1  A    between atoms: C_2  and  C_4
REMARK    2  A    between atoms: N_11  and  C_12
REMARK    3  A    between atoms: C_12  and  C_13
REMARK                            x       y       z     vdW  Elec       q    Type
REMARK                         _______ _______ _______ _____ _____    ______ ____
ROOT
ATOM      1  C   UNL     1      -0.654  11.233  21.350  0.00  0.00    +0.000 A 
ATOM      2  C   UNL     1      -0.679  12.183  20.353  0.00  0.00    +0.000 A 
ATOM      3  S   UNL     1       0.237  11.650  19.015  0.00  0.00    +0.000 S 
ATOM      4  C   UNL     1       0.613  10.170  19.836  0.00  0.00    +0.000 A 
ATOM      5  N   UNL     1       1.430   9.205  19.318  0.00  0.00    +0.000 N 
ATOM      6  C   UNL     1       1.500   8.972  17.866  0.00  0.00    +0.000 C 
ATOM      7  C   UNL     1       2.777   8.165  17.499  0.00  0.00    +0.000 C 
ATOM      8  N   UNL     1       3.002   6.916  18.277  0.00  0.00    +0.000 NA
ATOM      9  C   UNL     1       2.927   7.281  19.713  0.00  0.00    +0.000 C 
ATOM     10  C   UNL     1       1.628   7.997  20.135  0.00  0.00    +0.000 C 
ATOM     11  N   UNL     1       0.089  10.093  21.043  0.00  0.00    +0.000 NA
ENDROOT
BRANCH   1  13
ATOM     12  N   UNL     1      -1.193  10.298  23.457  0.00  0.00    +0.000 N 
ATOM     13  C   UNL     1      -1.323  11.380  22.638  0.00  0.00    +0.000 C 
ATOM     14  O   UNL     1      -1.939  12.385  22.985  0.00  0.00    +0.000 OA
ATOM     15  H   UNL     1      -1.578  10.329  24.389  0.00  0.00    +0.000 HD
ATOM     16  H   UNL     1      -0.641   9.508  23.147  0.00  0.00    +0.000 HD
ENDBRANCH   1  13
BRANCH   8  17
ATOM     17  C   UNL     1       2.009   5.895  17.889  0.00  0.00    +0.000 C 
BRANCH  17  18
ATOM     18  C   UNL     1       2.431   4.469  18.141  0.00  0.00    +0.000 A 
ATOM     19  C   UNL     1       3.159   3.725  17.177  0.00  0.00    +0.000 A 
ATOM     20  C   UNL     1       3.537   2.369  17.341  0.00  0.00    +0.000 A 
ATOM     21  C   UNL     1       3.235   1.621  18.491  0.00  0.00    +0.000 A 
ATOM     22  C   UNL     1       2.531   2.307  19.505  0.00  0.00    +0.000 A 
ATOM     23  N   UNL     1       2.160   1.788  20.686  0.00  0.00    +0.000 NA
ATOM     24  S   UNL     1       1.373   2.998  21.505  0.00  0.00    +0.000 S 
ATOM     25  N   UNL     1       1.452   4.228  20.394  0.00  0.00    +0.000 NA
ATOM     26  C   UNL     1       2.118   3.748  19.330  0.00  0.00    +0.000 A 
ENDBRANCH  17  18
ENDBRANCH   8  17
TORSDOF 3
ENDMDL
MODEL 9
REMARK VINA RESULT:      -6.2      4.548      7.944
REMARK  Name = 
REMARK  3 active torsions:
REMARK  status: ('A' for Active; 'I' for Inactive)
REMARK    1  A    between atoms: C_2  and  C_4
REMARK    2  A    between atoms: N_11  and  C_12
REMARK    3  A    between atoms: C_12  and  C_13
REMARK                            x       y       z     vdW  Elec       q    Type
REMARK                         _______ _______ _______ _____ _____    ______ ____
ROOT
ATOM      1  C   UNL     1       1.036  10.284  20.081  0.00  0.00    +0.000 A 
ATOM      2  C   UNL     1       0.351  10.160  21.270  0.00  0.00    +0.000 A 
ATOM      3  S   UNL     1       0.260   8.517  21.723  0.00  0.00    +0.000 S 
ATOM      4  C   UNL     1       1.148   8.057  20.307  0.00  0.00    +0.000 A 
ATOM      5  N   UNL     1       1.419   6.759  19.974  0.00  0.00    +0.000 N 
ATOM      6  C   UNL     1       1.622   5.737  21.013  0.00  0.00    +0.000 C 
ATOM      7  C   UNL     1       1.477   4.308  20.417  0.00  0.00    +0.000 C 
ATOM      8  N   UNL     1       2.280   4.030  19.195  0.00  0.00    +0.000 NA
ATOM      9  C   UNL     1       1.978   5.109  18.223  0.00  0.00    +0.000 C 
ATOM     10  C   UNL     1       2.205   6.541  18.749  0.00  0.00    +0.000 C 
ATOM     11  N   UNL     1       1.480   9.077  19.542  0.00  0.00    +0.000 NA
ENDROOT
BRANCH   1  13
ATOM     12  N   UNL     1       0.737  11.629  18.157  0.00  0.00    +0.000 N 
ATOM     13  C   UNL     1       1.278  11.554  19.406  0.00  0.00    +0.000 C 
ATOM     14  O   UNL     1       1.897  12.493  19.901  0.00  0.00    +0.000 OA
ATOM     15  H   UNL     1       0.808  12.488  17.633  0.00  0.00    +0.000 HD
ATOM     16  H   UNL     1       0.199  10.847  17.804  0.00  0.00    +0.000 HD
ENDBRANCH   1  13
BRANCH   8  17
ATOM     17  C   UNL     1       3.713   3.951  19.541  0.00  0.00    +0.000 C 
BRANCH  17  18
ATOM     18  C   UNL     1       4.658   4.098  18.375  0.00  0.00    +0.000 A 
ATOM     19  C   UNL     1       4.354   3.564  17.097  0.00  0.00    +0.000 A 
ATOM     20  C   UNL     1       5.226   3.630  15.981  0.00  0.00    +0.000 A 
ATOM     21  C   UNL     1       6.487   4.245  16.027  0.00  0.00    +0.000 A 
ATOM     22  C   UNL     1       6.847   4.820  17.266  0.00  0.00    +0.000 A 
ATOM     23  N   UNL     1       7.994   5.470  17.522  0.00  0.00    +0.000 NA
ATOM     24  S   UNL     1       7.920   5.948  19.108  0.00  0.00    +0.000 S 
ATOM     25  N   UNL     1       6.440   5.340  19.548  0.00  0.00    +0.000 NA
ATOM     26  C   UNL     1       5.925   4.744  18.459  0.00  0.00    +0.000 A 
ENDBRANCH  17  18
ENDBRANCH   8  17
TORSDOF 3
ENDMDL
