MODEL 1
REMARK VINA RESULT:      -6.8      0.000      0.000
REMARK  Name = 
REMARK  8 active torsions:
REMARK  status: ('A' for Active; 'I' for Inactive)
REMARK    1  A    between atoms: C_1  and  C_2
REMARK    2  A    between atoms: N_4  and  C_5
REMARK    3  A    between atoms: C_8  and  C_9
REMARK    4  A    between atoms: C_9  and  N_10
REMARK    5  A    between atoms: C_13  and  C_14
REMARK    6  A    between atoms: C_13  and  C_16
REMARK    7  A    between atoms: C_14  and  O_15
REMARK    8  A    between atoms: C_16  and  C_17
REMARK                            x       y       z     vdW  Elec       q    Type
REMARK                         _______ _______ _______ _____ _____    ______ ____
ROOT
ATOM      1  N   UNL     1       2.458   7.532  18.795  0.00  0.00    +0.000 NA
ATOM      2  C   UNL     1       1.973   8.496  17.801  0.00  0.00    +0.000 C 
ATOM      3  C   UNL     1       1.792   9.899  18.382  0.00  0.00    +0.000 C 
ATOM      4  C   UNL     1       0.869   9.999  19.618  0.00  0.00    +0.000 C 
ATOM      5  C   UNL     1       1.226   8.830  20.586  0.00  0.00    +0.000 C 
ATOM      6  C   UNL     1       1.521   7.475  19.933  0.00  0.00    +0.000 C 
ENDROOT
BRANCH   1   7
ATOM      7  C   UNL     1       2.572   6.167  18.222  0.00  0.00    +0.000 C 
BRANCH   7  15
ATOM      8  C   UNL     1       3.317   3.585  20.149  0.00  0.00    +0.000 C 
ATOM      9  C   UNL     1       4.219   4.391  19.284  0.00  0.00    +0.000 A 
ATOM     10  N   UNL     1       5.511   4.046  19.199  0.00  0.00    +0.000 NA
ATOM     11  N   UNL     1       6.032   4.934  18.330  0.00  0.00    +0.000 N 
ATOM     12  C   UNL     1       7.431   4.837  17.987  0.00  0.00    +0.000 C 
ATOM     13  C   UNL     1       5.108   5.825  17.875  0.00  0.00    +0.000 A 
ATOM     14 CL   UNL     1       5.527   7.017  16.740  0.00  0.00    +0.000 Cl
ATOM     15  C   UNL     1       3.901   5.517  18.471  0.00  0.00    +0.000 A 
ENDBRANCH   7  15
ENDBRANCH   1   7
BRANCH   4  16
ATOM     16  C   UNL     1       1.228  11.317  20.358  0.00  0.00    +0.000 C 
BRANCH  16  17
ATOM     17  O   UNL     1       0.779  11.275  21.708  0.00  0.00    +0.000 OA
ATOM     18  H   UNL     1       0.107  10.576  21.771  0.00  0.00    +0.000 HD
ENDBRANCH  16  17
ENDBRANCH   4  16
BRANCH   4  19
ATOM     19  C   UNL     1      -0.681   9.984  19.282  0.00  0.00    +0.000 C 
BRANCH  19  20
ATOM     20  C   UNL     1      -1.129  10.740  17.990  0.00  0.00    +0.000 C 
ATOM     21  C   UNL     1      -1.908  12.044  18.210  0.00  0.00    +0.000 C 
ATOM     22  C   UNL     1      -3.336  11.824  18.691  0.00  0.00    +0.000 C 
ATOM     23  C   UNL     1      -4.052  10.704  17.947  0.00  0.00    +0.000 C 
ATOM     24  C   UNL     1      -3.155   9.534  17.573  0.00  0.00    +0.000 C 
ATOM     25  O   UNL     1      -1.878   9.930  17.086  0.00  0.00    +0.000 OA
ENDBRANCH  19  20
ENDBRANCH   4  19
TORSDOF 6
ENDMDL
MODEL 2
REMARK VINA RESULT:      -6.5      4.029      8.213
REMARK  Name = 
REMARK  8 active torsions:
REMARK  status: ('A' for Active; 'I' for Inactive)
REMARK    1  A    between atoms: C_1  and  C_2
REMARK    2  A    between atoms: N_4  and  C_5
REMARK    3  A    between atoms: C_8  and  C_9
REMARK    4  A    between atoms: C_9  and  N_10
REMARK    5  A    between atoms: C_13  and  C_14
REMARK    6  A    between atoms: C_13  and  C_16
REMARK    7  A    between atoms: C_14  and  O_15
REMARK    8  A    between atoms: C_16  and  C_17
REMARK                            x       y       z     vdW  Elec       q    Type
REMARK                         _______ _______ _______ _____ _____    ______ ____
ROOT
ATOM      1  N   UNL     1       4.122   6.198  18.053  0.00  0.00    +0.000 NA
ATOM      2  C   UNL     1       4.180   4.740  17.900  0.00  0.00    +0.000 C 
ATOM      3  C   UNL     1       5.578   4.177  18.162  0.00  0.00    +0.000 C 
ATOM      4  C   UNL     1       6.715   4.782  17.308  0.00  0.00    +0.000 C 
ATOM      5  C   UNL     1       6.528   6.329  17.276  0.00  0.00    +0.000 C 
ATOM      6  C   UNL     1       5.088   6.834  17.138  0.00  0.00    +0.000 C 
ENDROOT
BRANCH   1   7
ATOM      7  C   UNL     1       2.771   6.727  17.740  0.00  0.00    +0.000 C 
BRANCH   7  15
ATOM      8  C   UNL     1       1.963   5.532  20.716  0.00  0.00    +0.000 C 
ATOM      9  C   UNL     1       1.780   6.909  20.185  0.00  0.00    +0.000 A 
ATOM     10  N   UNL     1       1.262   7.847  20.989  0.00  0.00    +0.000 NA
ATOM     11  N   UNL     1       1.261   8.963  20.234  0.00  0.00    +0.000 N 
ATOM     12  C   UNL     1       0.776  10.196  20.808  0.00  0.00    +0.000 C 
ATOM     13  C   UNL     1       1.756   8.749  18.983  0.00  0.00    +0.000 A 
ATOM     14 CL   UNL     1       1.886  10.020  17.864  0.00  0.00    +0.000 Cl
ATOM     15  C   UNL     1       2.109   7.416  18.895  0.00  0.00    +0.000 A 
ENDBRANCH   7  15
ENDBRANCH   1   7
BRANCH   4  16
ATOM     16  C   UNL     1       8.050   4.509  18.055  0.00  0.00    +0.000 C 
BRANCH  16  17
ATOM     17  O   UNL     1       8.076   5.190  19.305  0.00  0.00    +0.000 OA
ATOM     18  H   UNL     1       7.195   5.576  19.445  0.00  0.00    +0.000 HD
ENDBRANCH  16  17
ENDBRANCH   4  16
BRANCH   4  19
ATOM     19  C   UNL     1       6.805   4.205  15.833  0.00  0.00    +0.000 C 
BRANCH  19  20
ATOM     20  C   UNL     1       6.096   5.027  14.710  0.00  0.00    +0.000 C 
ATOM     21  C   UNL     1       5.155   4.238  13.790  0.00  0.00    +0.000 C 
ATOM     22  C   UNL     1       5.886   3.339  12.802  0.00  0.00    +0.000 C 
ATOM     23  C   UNL     1       7.086   4.016  12.152  0.00  0.00    +0.000 C 
ATOM     24  C   UNL     1       7.845   4.956  13.077  0.00  0.00    +0.000 C 
ATOM     25  O   UNL     1       6.998   5.763  13.886  0.00  0.00    +0.000 OA
ENDBRANCH  19  20
ENDBRANCH   4  19
TORSDOF 6
ENDMDL
MODEL 3
REMARK VINA RESULT:      -6.5      3.305      7.894
REMARK  Name = 
REMARK  8 active torsions:
REMARK  status: ('A' for Active; 'I' for Inactive)
REMARK    1  A    between atoms: C_1  and  C_2
REMARK    2  A    between atoms: N_4  and  C_5
REMARK    3  A    between atoms: C_8  and  C_9
REMARK    4  A    between atoms: C_9  and  N_10
REMARK    5  A    between atoms: C_13  and  C_14
REMARK    6  A    between atoms: C_13  and  C_16
REMARK    7  A    between atoms: C_14  and  O_15
REMARK    8  A    between atoms: C_16  and  C_17
REMARK                            x       y       z     vdW  Elec       q    Type
REMARK                         _______ _______ _______ _____ _____    ______ ____
ROOT
ATOM      1  N   UNL     1       1.603   7.273  20.014  0.00  0.00    +0.000 NA
ATOM      2  C   UNL     1       2.497   7.542  18.882  0.00  0.00    +0.000 C 
ATOM      3  C   UNL     1       2.535   6.391  17.876  0.00  0.00    +0.000 C 
ATOM      4  C   UNL     1       2.915   5.008  18.452  0.00  0.00    +0.000 C 
ATOM      5  C   UNL     1       2.134   4.808  19.787  0.00  0.00    +0.000 C 
ATOM      6  C   UNL     1       2.023   6.035  20.697  0.00  0.00    +0.000 C 
ENDROOT
BRANCH   1   7
ATOM      7  C   UNL     1       1.626   8.379  21.003  0.00  0.00    +0.000 C 
BRANCH   7  15
ATOM      8  C   UNL     1      -0.329   9.735  23.299  0.00  0.00    +0.000 C 
ATOM      9  C   UNL     1      -0.325   9.962  21.830  0.00  0.00    +0.000 A 
ATOM     10  N   UNL     1      -1.176  10.857  21.312  0.00  0.00    +0.000 NA
ATOM     11  N   UNL     1      -0.900  10.848  19.993  0.00  0.00    +0.000 N 
ATOM     12  C   UNL     1      -1.636  11.731  19.119  0.00  0.00    +0.000 C 
ATOM     13  C   UNL     1       0.092   9.972  19.671  0.00  0.00    +0.000 A 
ATOM     14 CL   UNL     1       0.637   9.815  18.070  0.00  0.00    +0.000 Cl
ATOM     15  C   UNL     1       0.504   9.360  20.840  0.00  0.00    +0.000 A 
ENDBRANCH   7  15
ENDBRANCH   1   7
BRANCH   4  16
ATOM     16  C   UNL     1       2.388   3.933  17.461  0.00  0.00    +0.000 C 
BRANCH  16  17
ATOM     17  O   UNL     1       1.093   3.487  17.844  0.00  0.00    +0.000 OA
ATOM     18  H   UNL     1       0.584   4.268  18.119  0.00  0.00    +0.000 HD
ENDBRANCH  16  17
ENDBRANCH   4  16
BRANCH   4  19
ATOM     19  C   UNL     1       4.470   4.800  18.684  0.00  0.00    +0.000 C 
BRANCH  19  20
ATOM     20  C   UNL     1       5.363   4.677  17.408  0.00  0.00    +0.000 C 
ATOM     21  C   UNL     1       6.842   4.348  17.651  0.00  0.00    +0.000 C 
ATOM     22  C   UNL     1       7.639   5.518  18.211  0.00  0.00    +0.000 C 
ATOM     23  C   UNL     1       7.326   6.840  17.523  0.00  0.00    +0.000 C 
ATOM     24  C   UNL     1       5.867   6.999  17.118  0.00  0.00    +0.000 C 
ATOM     25  O   UNL     1       5.303   5.820  16.557  0.00  0.00    +0.000 OA
ENDBRANCH  19  20
ENDBRANCH   4  19
TORSDOF 6
ENDMDL
MODEL 4
REMARK VINA RESULT:      -6.5      3.340      7.908
REMARK  Name = 
REMARK  8 active torsions:
REMARK  status: ('A' for Active; 'I' for Inactive)
REMARK    1  A    between atoms: C_1  and  C_2
REMARK    2  A    between atoms: N_4  and  C_5
REMARK    3  A    between atoms: C_8  and  C_9
REMARK    4  A    between atoms: C_9  and  N_10
REMARK    5  A    between atoms: C_13  and  C_14
REMARK    6  A    between atoms: C_13  and  C_16
REMARK    7  A    between atoms: C_14  and  O_15
REMARK    8  A    between atoms: C_16  and  C_17
REMARK                            x       y       z     vdW  Elec       q    Type
REMARK                         _______ _______ _______ _____ _____    ______ ____
ROOT
ATOM      1  N   UNL     1       1.752   6.501  19.987  0.00  0.00    +0.000 NA
ATOM      2  C   UNL     1       1.965   6.456  18.535  0.00  0.00    +0.000 C 
ATOM      3  C   UNL     1       1.689   5.073  17.943  0.00  0.00    +0.000 C 
ATOM      4  C   UNL     1       2.484   3.905  18.568  0.00  0.00    +0.000 C 
ATOM      5  C   UNL     1       2.457   4.072  20.118  0.00  0.00    +0.000 C 
ATOM      6  C   UNL     1       2.613   5.502  20.647  0.00  0.00    +0.000 C 
ENDROOT
BRANCH   1   7
ATOM      7  C   UNL     1       2.080   7.836  20.546  0.00  0.00    +0.000 C 
BRANCH   7  15
ATOM      8  C   UNL     1      -0.456   8.808  22.431  0.00  0.00    +0.000 C 
ATOM      9  C   UNL     1      -0.044   9.313  21.095  0.00  0.00    +0.000 A 
ATOM     10  N   UNL     1      -0.728  10.327  20.549  0.00  0.00    +0.000 NA
ATOM     11  N   UNL     1      -0.095  10.560  19.382  0.00  0.00    +0.000 N 
ATOM     12  C   UNL     1      -0.568  11.625  18.530  0.00  0.00    +0.000 C 
ATOM     13  C   UNL     1       0.959   9.720  19.182  0.00  0.00    +0.000 A 
ATOM     14 CL   UNL     1       1.931   9.851  17.795  0.00  0.00    +0.000 Cl
ATOM     15  C   UNL     1       1.036   8.878  20.274  0.00  0.00    +0.000 A 
ENDBRANCH   7  15
ENDBRANCH   1   7
BRANCH   4  16
ATOM     16  C   UNL     1       1.712   2.595  18.246  0.00  0.00    +0.000 C 
BRANCH  16  17
ATOM     17  O   UNL     1       2.551   1.672  17.561  0.00  0.00    +0.000 OA
ATOM     18  H   UNL     1       3.418   2.095  17.445  0.00  0.00    +0.000 HD
ENDBRANCH  16  17
ENDBRANCH   4  16
BRANCH   4  19
ATOM     19  C   UNL     1       3.979   3.780  18.052  0.00  0.00    +0.000 C 
BRANCH  19  20
ATOM     20  C   UNL     1       4.588   5.035  17.347  0.00  0.00    +0.000 C 
ATOM     21  C   UNL     1       5.190   4.798  15.955  0.00  0.00    +0.000 C 
ATOM     22  C   UNL     1       6.518   4.053  15.987  0.00  0.00    +0.000 C 
ATOM     23  C   UNL     1       7.459   4.555  17.075  0.00  0.00    +0.000 C 
ATOM     24  C   UNL     1       6.757   4.975  18.358  0.00  0.00    +0.000 C 
ATOM     25  O   UNL     1       5.563   5.714  18.136  0.00  0.00    +0.000 OA
ENDBRANCH  19  20
ENDBRANCH   4  19
TORSDOF 6
ENDMDL
MODEL 5
REMARK VINA RESULT:      -6.4      2.791      4.948
REMARK  Name = 
REMARK  8 active torsions:
REMARK  status: ('A' for Active; 'I' for Inactive)
REMARK    1  A    between atoms: C_1  and  C_2
REMARK    2  A    between atoms: N_4  and  C_5
REMARK    3  A    between atoms: C_8  and  C_9
REMARK    4  A    between atoms: C_9  and  N_10
REMARK    5  A    between atoms: C_13  and  C_14
REMARK    6  A    between atoms: C_13  and  C_16
REMARK    7  A    between atoms: C_14  and  O_15
REMARK    8  A    between atoms: C_16  and  C_17
REMARK                            x       y       z     vdW  Elec       q    Type
REMARK                         _______ _______ _______ _____ _____    ______ ____
ROOT
ATOM      1  N   UNL     1       4.756   3.846  18.355  0.00  0.00    +0.000 NA
ATOM      2  C   UNL     1       4.652   4.936  19.333  0.00  0.00    +0.000 C 
ATOM      3  C   UNL     1       3.362   4.872  20.150  0.00  0.00    +0.000 C 
ATOM      4  C   UNL     1       2.050   4.851  19.332  0.00  0.00    +0.000 C 
ATOM      5  C   UNL     1       2.233   3.857  18.146  0.00  0.00    +0.000 C 
ATOM      6  C   UNL     1       3.595   3.880  17.445  0.00  0.00    +0.000 C 
ENDROOT
BRANCH   1   7
ATOM      7  C   UNL     1       5.989   3.961  17.537  0.00  0.00    +0.000 C 
BRANCH   7  15
ATOM      8  C   UNL     1       5.126   6.332  15.398  0.00  0.00    +0.000 C 
ATOM      9  C   UNL     1       6.116   6.394  16.505  0.00  0.00    +0.000 A 
ATOM     10  N   UNL     1       6.744   7.552  16.746  0.00  0.00    +0.000 NA
ATOM     11  N   UNL     1       7.529   7.286  17.809  0.00  0.00    +0.000 N 
ATOM     12  C   UNL     1       8.347   8.342  18.356  0.00  0.00    +0.000 C 
ATOM     13  C   UNL     1       7.415   5.998  18.235  0.00  0.00    +0.000 A 
ATOM     14 CL   UNL     1       8.283   5.441  19.585  0.00  0.00    +0.000 Cl
ATOM     15  C   UNL     1       6.502   5.365  17.412  0.00  0.00    +0.000 A 
ENDBRANCH   7  15
ENDBRANCH   1   7
BRANCH   4  16
ATOM     16  C   UNL     1       0.943   4.258  20.247  0.00  0.00    +0.000 C 
BRANCH  16  17
ATOM     17  O   UNL     1       0.529   2.981  19.773  0.00  0.00    +0.000 OA
ATOM     18  H   UNL     1       0.812   2.908  18.846  0.00  0.00    +0.000 HD
ENDBRANCH  16  17
ENDBRANCH   4  16
BRANCH   4  19
ATOM     19  C   UNL     1       1.590   6.272  18.797  0.00  0.00    +0.000 C 
BRANCH  19  20
ATOM     20  C   UNL     1       2.364   7.515  19.341  0.00  0.00    +0.000 C 
ATOM     21  C   UNL     1       1.692   8.275  20.493  0.00  0.00    +0.000 C 
ATOM     22  C   UNL     1       0.488   9.098  20.055  0.00  0.00    +0.000 C 
ATOM     23  C   UNL     1       0.726   9.866  18.762  0.00  0.00    +0.000 C 
ATOM     24  C   UNL     1       1.588   9.126  17.749  0.00  0.00    +0.000 C 
ATOM     25  O   UNL     1       2.704   8.463  18.331  0.00  0.00    +0.000 OA
ENDBRANCH  19  20
ENDBRANCH   4  19
TORSDOF 6
ENDMDL
MODEL 6
REMARK VINA RESULT:      -6.4      2.531      4.005
REMARK  Name = 
REMARK  8 active torsions:
REMARK  status: ('A' for Active; 'I' for Inactive)
REMARK    1  A    between atoms: C_1  and  C_2
REMARK    2  A    between atoms: N_4  and  C_5
REMARK    3  A    between atoms: C_8  and  C_9
REMARK    4  A    between atoms: C_9  and  N_10
REMARK    5  A    between atoms: C_13  and  C_14
REMARK    6  A    between atoms: C_13  and  C_16
REMARK    7  A    between atoms: C_14  and  O_15
REMARK    8  A    between atoms: C_16  and  C_17
REMARK                            x       y       z     vdW  Elec       q    Type
REMARK                         _______ _______ _______ _____ _____    ______ ____
ROOT
ATOM      1  N   UNL     1       1.826   7.694  19.327  0.00  0.00    +0.000 NA
ATOM      2  C   UNL     1       1.484   8.383  20.577  0.00  0.00    +0.000 C 
ATOM      3  C   UNL     1       0.252   9.278  20.436  0.00  0.00    +0.000 C 
ATOM      4  C   UNL     1       0.321  10.344  19.318  0.00  0.00    +0.000 C 
ATOM      5  C   UNL     1       0.904   9.669  18.039  0.00  0.00    +0.000 C 
ATOM      6  C   UNL     1       2.057   8.684  18.259  0.00  0.00    +0.000 C 
ENDROOT
BRANCH   1   7
ATOM      7  C   UNL     1       3.056   6.876  19.473  0.00  0.00    +0.000 C 
BRANCH   7  15
ATOM      8  C   UNL     1       4.765   6.071  16.759  0.00  0.00    +0.000 C 
ATOM      9  C   UNL     1       3.788   5.249  17.520  0.00  0.00    +0.000 A 
ATOM     10  N   UNL     1       3.558   3.990  17.127  0.00  0.00    +0.000 NA
ATOM     11  N   UNL     1       2.670   3.521  18.026  0.00  0.00    +0.000 N 
ATOM     12  C   UNL     1       2.211   2.157  17.909  0.00  0.00    +0.000 C 
ATOM     13  C   UNL     1       2.334   4.450  18.963  0.00  0.00    +0.000 A 
ATOM     14 CL   UNL     1       1.256   4.075  20.221  0.00  0.00    +0.000 Cl
ATOM     15  C   UNL     1       3.036   5.605  18.677  0.00  0.00    +0.000 A 
ENDBRANCH   7  15
ENDBRANCH   1   7
BRANCH   4  16
ATOM     16  C   UNL     1      -1.138  10.756  18.980  0.00  0.00    +0.000 C 
BRANCH  16  17
ATOM     17  O   UNL     1      -1.280  11.012  17.588  0.00  0.00    +0.000 OA
ATOM     18  H   UNL     1      -1.255  10.156  17.129  0.00  0.00    +0.000 HD
ENDBRANCH  16  17
ENDBRANCH   4  16
BRANCH   4  19
ATOM     19  C   UNL     1       1.163  11.634  19.695  0.00  0.00    +0.000 C 
BRANCH  19  20
ATOM     20  C   UNL     1       1.553  12.590  18.522  0.00  0.00    +0.000 C 
ATOM     21  C   UNL     1       2.817  13.434  18.733  0.00  0.00    +0.000 C 
ATOM     22  C   UNL     1       2.626  14.574  19.724  0.00  0.00    +0.000 C 
ATOM     23  C   UNL     1       1.315  15.324  19.528  0.00  0.00    +0.000 C 
ATOM     24  C   UNL     1       0.151  14.439  19.107  0.00  0.00    +0.000 C 
ATOM     25  O   UNL     1       0.501  13.468  18.129  0.00  0.00    +0.000 OA
ENDBRANCH  19  20
ENDBRANCH   4  19
TORSDOF 6
ENDMDL
MODEL 7
REMARK VINA RESULT:      -6.4      3.799      7.433
REMARK  Name = 
REMARK  8 active torsions:
REMARK  status: ('A' for Active; 'I' for Inactive)
REMARK    1  A    between atoms: C_1  and  C_2
REMARK    2  A    between atoms: N_4  and  C_5
REMARK    3  A    between atoms: C_8  and  C_9
REMARK    4  A    between atoms: C_9  and  N_10
REMARK    5  A    between atoms: C_13  and  C_14
REMARK    6  A    between atoms: C_13  and  C_16
REMARK    7  A    between atoms: C_14  and  O_15
REMARK    8  A    between atoms: C_16  and  C_17
REMARK                            x       y       z     vdW  Elec       q    Type
REMARK                         _______ _______ _______ _____ _____    ______ ____
ROOT
ATOM      1  N   UNL     1       1.965   8.840  18.916  0.00  0.00    +0.000 NA
ATOM      2  C   UNL     1       1.878   7.702  19.838  0.00  0.00    +0.000 C 
ATOM      3  C   UNL     1       3.102   6.789  19.763  0.00  0.00    +0.000 C 
ATOM      4  C   UNL     1       3.438   6.230  18.361  0.00  0.00    +0.000 C 
ATOM      5  C   UNL     1       3.309   7.394  17.331  0.00  0.00    +0.000 C 
ATOM      6  C   UNL     1       2.131   8.352  17.535  0.00  0.00    +0.000 C 
ENDROOT
BRANCH   1   7
ATOM      7  C   UNL     1       0.742   9.680  18.967  0.00  0.00    +0.000 C 
BRANCH   7  15
ATOM      8  C   UNL     1      -0.313  10.182  22.060  0.00  0.00    +0.000 C 
ATOM      9  C   UNL     1       0.444  11.105  21.175  0.00  0.00    +0.000 A 
ATOM     10  N   UNL     1       0.815  12.300  21.654  0.00  0.00    +0.000 NA
ATOM     11  N   UNL     1       1.495  12.865  20.637  0.00  0.00    +0.000 N 
ATOM     12  C   UNL     1       2.066  14.178  20.822  0.00  0.00    +0.000 C 
ATOM     13  C   UNL     1       1.556  12.063  19.538  0.00  0.00    +0.000 A 
ATOM     14 CL   UNL     1       2.396  12.549  18.144  0.00  0.00    +0.000 Cl
ATOM     15  C   UNL     1       0.879  10.895  19.835  0.00  0.00    +0.000 A 
ENDBRANCH   7  15
ENDBRANCH   1   7
BRANCH   4  16
ATOM     16  C   UNL     1       4.933   5.810  18.376  0.00  0.00    +0.000 C 
BRANCH  16  17
ATOM     17  O   UNL     1       5.359   5.509  19.700  0.00  0.00    +0.000 OA
ATOM     18  H   UNL     1       5.330   4.543  19.803  0.00  0.00    +0.000 HD
ENDBRANCH  16  17
ENDBRANCH   4  16
BRANCH   4  19
ATOM     19  C   UNL     1       2.544   4.998  17.916  0.00  0.00    +0.000 C 
BRANCH  19  20
ATOM     20  C   UNL     1       3.028   3.580  18.360  0.00  0.00    +0.000 C 
ATOM     21  C   UNL     1       2.124   2.405  17.962  0.00  0.00    +0.000 C 
ATOM     22  C   UNL     1       0.839   2.326  18.775  0.00  0.00    +0.000 C 
ATOM     23  C   UNL     1       1.058   2.560  20.264  0.00  0.00    +0.000 C 
ATOM     24  C   UNL     1       2.131   3.592  20.580  0.00  0.00    +0.000 C 
ATOM     25  O   UNL     1       3.287   3.478  19.759  0.00  0.00    +0.000 OA
ENDBRANCH  19  20
ENDBRANCH   4  19
TORSDOF 6
ENDMDL
MODEL 8
REMARK VINA RESULT:      -6.3      2.425      4.286
REMARK  Name = 
REMARK  8 active torsions:
REMARK  status: ('A' for Active; 'I' for Inactive)
REMARK    1  A    between atoms: C_1  and  C_2
REMARK    2  A    between atoms: N_4  and  C_5
REMARK    3  A    between atoms: C_8  and  C_9
REMARK    4  A    between atoms: C_9  and  N_10
REMARK    5  A    between atoms: C_13  and  C_14
REMARK    6  A    between atoms: C_13  and  C_16
REMARK    7  A    between atoms: C_14  and  O_15
REMARK    8  A    between atoms: C_16  and  C_17
REMARK                            x       y       z     vdW  Elec       q    Type
REMARK                         _______ _______ _______ _____ _____    ______ ____
ROOT
ATOM      1  N   UNL     1       1.971   7.482  19.112  0.00  0.00    +0.000 NA
ATOM      2  C   UNL     1       1.759   8.228  20.358  0.00  0.00    +0.000 C 
ATOM      3  C   UNL     1       0.568   9.184  20.276  0.00  0.00    +0.000 C 
ATOM      4  C   UNL     1       0.609  10.208  19.119  0.00  0.00    +0.000 C 
ATOM      5  C   UNL     1       1.059   9.462  17.825  0.00  0.00    +0.000 C 
ATOM      6  C   UNL     1       2.172   8.424  17.995  0.00  0.00    +0.000 C 
ENDROOT
BRANCH   1   7
ATOM      7  C   UNL     1       3.164   6.603  19.198  0.00  0.00    +0.000 C 
BRANCH   7  15
ATOM      8  C   UNL     1       4.643   4.964  16.737  0.00  0.00    +0.000 C 
ATOM      9  C   UNL     1       3.576   4.493  17.657  0.00  0.00    +0.000 A 
ATOM     10  N   UNL     1       3.144   3.229  17.553  0.00  0.00    +0.000 NA
ATOM     11  N   UNL     1       2.222   3.115  18.530  0.00  0.00    +0.000 N 
ATOM     12  C   UNL     1       1.556   1.848  18.718  0.00  0.00    +0.000 C 
ATOM     13  C   UNL     1       2.062   4.268  19.236  0.00  0.00    +0.000 A 
ATOM     14 CL   UNL     1       0.979   4.353  20.542  0.00  0.00    +0.000 Cl
ATOM     15  C   UNL     1       2.924   5.208  18.704  0.00  0.00    +0.000 A 
ENDBRANCH   7  15
ENDBRANCH   1   7
BRANCH   4  16
ATOM     16  C   UNL     1      -0.849  10.688  18.874  0.00  0.00    +0.000 C 
BRANCH  16  17
ATOM     17  O   UNL     1      -1.139  10.727  17.481  0.00  0.00    +0.000 OA
ATOM     18  H   UNL     1      -1.833  10.070  17.309  0.00  0.00    +0.000 HD
ENDBRANCH  16  17
ENDBRANCH   4  16
BRANCH   4  19
ATOM     19  C   UNL     1       1.542  11.462  19.387  0.00  0.00    +0.000 C 
BRANCH  19  20
ATOM     20  C   UNL     1       0.873  12.712  20.044  0.00  0.00    +0.000 C 
ATOM     21  C   UNL     1       0.627  13.909  19.116  0.00  0.00    +0.000 C 
ATOM     22  C   UNL     1       1.897  14.664  18.750  0.00  0.00    +0.000 C 
ATOM     23  C   UNL     1       2.825  14.885  19.937  0.00  0.00    +0.000 C 
ATOM     24  C   UNL     1       2.849  13.732  20.930  0.00  0.00    +0.000 C 
ATOM     25  O   UNL     1       1.563  13.187  21.198  0.00  0.00    +0.000 OA
ENDBRANCH  19  20
ENDBRANCH   4  19
TORSDOF 6
ENDMDL
MODEL 9
REMARK VINA RESULT:      -6.3      1.680      1.737
REMARK  Name = 
REMARK  8 active torsions:
REMARK  status: ('A' for Active; 'I' for Inactive)
REMARK    1  A    between atoms: C_1  and  C_2
REMARK    2  A    between atoms: N_4  and  C_5
REMARK    3  A    between atoms: C_8  and  C_9
REMARK    4  A    between atoms: C_9  and  N_10
REMARK    5  A    between atoms: C_13  and  C_14
REMARK    6  A    between atoms: C_13  and  C_16
REMARK    7  A    between atoms: C_14  and  O_15
REMARK    8  A    between atoms: C_16  and  C_17
REMARK                            x       y       z     vdW  Elec       q    Type
REMARK                         _______ _______ _______ _____ _____    ______ ____
ROOT
ATOM      1  N   UNL     1       2.425   7.392  19.524  0.00  0.00    +0.000 NA
ATOM      2  C   UNL     1       1.900   7.678  18.183  0.00  0.00    +0.000 C 
ATOM      3  C   UNL     1       1.813   9.177  17.894  0.00  0.00    +0.000 C 
ATOM      4  C   UNL     1       0.992  10.009  18.905  0.00  0.00    +0.000 C 
ATOM      5  C   UNL     1       1.380   9.548  20.343  0.00  0.00    +0.000 C 
ATOM      6  C   UNL     1       1.577   8.041  20.541  0.00  0.00    +0.000 C 
ENDROOT
BRANCH   1   7
ATOM      7  C   UNL     1       2.448   5.934  19.802  0.00  0.00    +0.000 C 
BRANCH   7  15
ATOM      8  C   UNL     1       1.132   3.278  18.335  0.00  0.00    +0.000 C 
ATOM      9  C   UNL     1       2.404   3.979  18.020  0.00  0.00    +0.000 A 
ATOM     10  N   UNL     1       3.139   3.550  16.986  0.00  0.00    +0.000 NA
ATOM     11  N   UNL     1       4.185   4.400  16.950  0.00  0.00    +0.000 N 
ATOM     12  C   UNL     1       5.185   4.235  15.922  0.00  0.00    +0.000 C 
ATOM     13  C   UNL     1       4.128   5.342  17.932  0.00  0.00    +0.000 A 
ATOM     14 CL   UNL     1       5.320   6.545  18.063  0.00  0.00    +0.000 Cl
ATOM     15  C   UNL     1       2.981   5.111  18.667  0.00  0.00    +0.000 A 
ENDBRANCH   7  15
ENDBRANCH   1   7
BRANCH   4  16
ATOM     16  C   UNL     1       1.452  11.487  18.771  0.00  0.00    +0.000 C 
BRANCH  16  17
ATOM     17  O   UNL     1       2.353  11.637  17.679  0.00  0.00    +0.000 OA
ATOM     18  H   UNL     1       3.253  11.505  18.023  0.00  0.00    +0.000 HD
ENDBRANCH  16  17
ENDBRANCH   4  16
BRANCH   4  19
ATOM     19  C   UNL     1      -0.579   9.922  18.702  0.00  0.00    +0.000 C 
BRANCH  19  20
ATOM     20  C   UNL     1      -1.200  10.843  17.602  0.00  0.00    +0.000 C 
ATOM     21  C   UNL     1      -1.990  12.057  18.109  0.00  0.00    +0.000 C 
ATOM     22  C   UNL     1      -3.343  11.695  18.705  0.00  0.00    +0.000 C 
ATOM     23  C   UNL     1      -4.105  10.667  17.878  0.00  0.00    +0.000 C 
ATOM     24  C   UNL     1      -3.220   9.613  17.229  0.00  0.00    +0.000 C 
ATOM     25  O   UNL     1      -2.023  10.142  16.672  0.00  0.00    +0.000 OA
ENDBRANCH  19  20
ENDBRANCH   4  19
TORSDOF 6
ENDMDL
