MODEL 1
REMARK VINA RESULT:      -8.4      0.000      0.000
REMARK  Name = 
REMARK  8 active torsions:
REMARK  status: ('A' for Active; 'I' for Inactive)
REMARK    1  A    between atoms: C_2  and  C_3
REMARK    2  A    between atoms: C_3  and  C_4
REMARK    3  A    between atoms: C_4  and  N_5
REMARK    4  A    between atoms: C_7  and  C_8
REMARK    5  A    between atoms: N_12  and  C_13
REMARK    6  A    between atoms: N_23  and  C_24
REMARK    7  A    between atoms: C_27  and  O_28
REMARK    8  A    between atoms: O_28  and  C_29
REMARK                            x       y       z     vdW  Elec       q    Type
REMARK                         _______ _______ _______ _____ _____    ______ ____
ROOT
ATOM      1  C   UNL     1       0.285  10.186  18.755  0.00  0.00    +0.000 C 
ATOM      2  C   UNL     1      -0.080   9.207  19.914  0.00  0.00    +0.000 C 
ATOM      3  C   UNL     1       1.054   8.526  20.633  0.00  0.00    +0.000 C 
ATOM      4  N   UNL     1       1.996   7.982  19.667  0.00  0.00    +0.000 N 
ATOM      5  C   UNL     1       2.368   8.783  18.512  0.00  0.00    +0.000 C 
ATOM      6  C   UNL     1       1.080   9.272  17.769  0.00  0.00    +0.000 C 
ENDROOT
BRANCH   1   7
ATOM      7  N   UNL     1      -1.048  10.757  18.456  0.00  0.00    +0.000 N 
ATOM      8  C   UNL     1      -1.926  10.588  17.443  0.00  0.00    +0.000 A 
ATOM      9  C   UNL     1      -3.024  11.390  17.766  0.00  0.00    +0.000 A 
ATOM     10  C   UNL     1      -2.768  11.886  19.077  0.00  0.00    +0.000 A 
ATOM     11  N   UNL     1      -3.655  12.585  19.846  0.00  0.00    +0.000 N 
ATOM     12  N   UNL     1      -1.563  11.488  19.462  0.00  0.00    +0.000 NA
ATOM     13  H   UNL     1      -4.513  12.892  19.393  0.00  0.00    +0.000 HD
BRANCH  11  14
ATOM     14  C   UNL     1      -3.711  12.710  21.262  0.00  0.00    +0.000 A 
ATOM     15  C   UNL     1      -2.618  12.456  22.105  0.00  0.00    +0.000 A 
ATOM     16  C   UNL     1      -2.757  12.409  23.499  0.00  0.00    +0.000 A 
ATOM     17  C   UNL     1      -4.000  12.629  24.069  0.00  0.00    +0.000 A 
ATOM     18  F   UNL     1      -4.147  12.537  25.398  0.00  0.00    +0.000 F 
ATOM     19  C   UNL     1      -5.096  12.928  23.274  0.00  0.00    +0.000 A 
ATOM     20  C   UNL     1      -4.946  12.975  21.878  0.00  0.00    +0.000 A 
ENDBRANCH  11  14
BRANCH   9  21
ATOM     21  C   UNL     1      -4.197  11.629  16.959  0.00  0.00    +0.000 C 
ATOM     22  N   UNL     1      -3.997  11.534  15.612  0.00  0.00    +0.000 N 
ATOM     23  O   UNL     1      -5.301  11.868  17.429  0.00  0.00    +0.000 OA
ATOM     24  H   UNL     1      -3.196  11.038  15.250  0.00  0.00    +0.000 HD
ATOM     25  H   UNL     1      -4.818  11.606  15.029  0.00  0.00    +0.000 HD
ENDBRANCH   9  21
ENDBRANCH   1   7
BRANCH   4  26
ATOM     26  C   UNL     1       2.393   6.660  19.685  0.00  0.00    +0.000 A 
ATOM     27  C   UNL     1       3.348   6.192  18.785  0.00  0.00    +0.000 A 
ATOM     28  C   UNL     1       3.691   4.841  18.741  0.00  0.00    +0.000 A 
ATOM     29  C   UNL     1       3.046   3.965  19.601  0.00  0.00    +0.000 A 
ATOM     30  N   UNL     1       2.145   4.382  20.511  0.00  0.00    +0.000 NA
ATOM     31  C   UNL     1       1.856   5.706  20.545  0.00  0.00    +0.000 A 
BRANCH  29  32
ATOM     32  O   UNL     1       3.261   2.620  19.641  0.00  0.00    +0.000 OA
BRANCH  32  33
ATOM     33  C   UNL     1       3.392   2.023  18.372  0.00  0.00    +0.000 C 
ATOM     34  F   UNL     1       3.830   0.749  18.540  0.00  0.00    +0.000 F 
ATOM     35  F   UNL     1       2.153   1.938  17.826  0.00  0.00    +0.000 F 
ENDBRANCH  32  33
ENDBRANCH  29  32
ENDBRANCH   4  26
BRANCH   1  36
ATOM     36  C   UNL     1       1.190  11.461  18.770  0.00  0.00    +0.000 C 
BRANCH  36  38
ATOM     37  N   UNL     1       1.711  12.706  20.997  0.00  0.00    +0.000 NA
ATOM     38  C   UNL     1       1.490  12.071  20.035  0.00  0.00    +0.000 C 
ENDBRANCH  36  38
ENDBRANCH   1  36
TORSDOF 8
ENDMDL
MODEL 2
REMARK VINA RESULT:      -8.4      1.069      1.318
REMARK  Name = 
REMARK  8 active torsions:
REMARK  status: ('A' for Active; 'I' for Inactive)
REMARK    1  A    between atoms: C_2  and  C_3
REMARK    2  A    between atoms: C_3  and  C_4
REMARK    3  A    between atoms: C_4  and  N_5
REMARK    4  A    between atoms: C_7  and  C_8
REMARK    5  A    between atoms: N_12  and  C_13
REMARK    6  A    between atoms: N_23  and  C_24
REMARK    7  A    between atoms: C_27  and  O_28
REMARK    8  A    between atoms: O_28  and  C_29
REMARK                            x       y       z     vdW  Elec       q    Type
REMARK                         _______ _______ _______ _____ _____    ______ ____
ROOT
ATOM      1  C   UNL     1       0.135  10.342  18.917  0.00  0.00    +0.000 C 
ATOM      2  C   UNL     1      -0.105   9.396  20.134  0.00  0.00    +0.000 C 
ATOM      3  C   UNL     1       1.095   8.705  20.727  0.00  0.00    +0.000 C 
ATOM      4  N   UNL     1       1.901   8.120  19.666  0.00  0.00    +0.000 N 
ATOM      5  C   UNL     1       2.146   8.888  18.456  0.00  0.00    +0.000 C 
ATOM      6  C   UNL     1       0.787   9.390  17.863  0.00  0.00    +0.000 C 
ENDROOT
BRANCH   1   7
ATOM      7  N   UNL     1      -1.213  10.936  18.768  0.00  0.00    +0.000 N 
ATOM      8  C   UNL     1      -2.263  10.667  17.962  0.00  0.00    +0.000 A 
ATOM      9  C   UNL     1      -3.261  11.569  18.341  0.00  0.00    +0.000 A 
ATOM     10  C   UNL     1      -2.759  12.240  19.494  0.00  0.00    +0.000 A 
ATOM     11  N   UNL     1      -3.472  13.094  20.285  0.00  0.00    +0.000 N 
ATOM     12  N   UNL     1      -1.517  11.836  19.721  0.00  0.00    +0.000 NA
ATOM     13  H   UNL     1      -4.389  13.378  19.946  0.00  0.00    +0.000 HD
BRANCH  11  14
ATOM     14  C   UNL     1      -3.269  13.432  21.652  0.00  0.00    +0.000 A 
ATOM     15  C   UNL     1      -3.530  12.551  22.714  0.00  0.00    +0.000 A 
ATOM     16  C   UNL     1      -3.495  12.975  24.049  0.00  0.00    +0.000 A 
ATOM     17  C   UNL     1      -3.184  14.294  24.340  0.00  0.00    +0.000 A 
ATOM     18  F   UNL     1      -3.197  14.715  25.612  0.00  0.00    +0.000 F 
ATOM     19  C   UNL     1      -2.876  15.184  23.323  0.00  0.00    +0.000 A 
ATOM     20  C   UNL     1      -2.911  14.748  21.987  0.00  0.00    +0.000 A 
ENDBRANCH  11  14
BRANCH   9  21
ATOM     21  C   UNL     1      -4.553  11.750  17.723  0.00  0.00    +0.000 C 
ATOM     22  N   UNL     1      -4.671  11.220  16.470  0.00  0.00    +0.000 N 
ATOM     23  O   UNL     1      -5.493  12.306  18.276  0.00  0.00    +0.000 OA
ATOM     24  H   UNL     1      -4.028  10.509  16.156  0.00  0.00    +0.000 HD
ATOM     25  H   UNL     1      -5.589  11.253  16.052  0.00  0.00    +0.000 HD
ENDBRANCH   9  21
ENDBRANCH   1   7
BRANCH   4  26
ATOM     26  C   UNL     1       2.272   6.790  19.668  0.00  0.00    +0.000 A 
ATOM     27  C   UNL     1       1.783   5.917  20.639  0.00  0.00    +0.000 A 
ATOM     28  C   UNL     1       2.219   4.594  20.698  0.00  0.00    +0.000 A 
ATOM     29  C   UNL     1       3.167   4.167  19.783  0.00  0.00    +0.000 A 
ATOM     30  N   UNL     1       3.638   4.967  18.806  0.00  0.00    +0.000 NA
ATOM     31  C   UNL     1       3.172   6.239  18.761  0.00  0.00    +0.000 A 
BRANCH  29  32
ATOM     32  O   UNL     1       3.703   2.914  19.748  0.00  0.00    +0.000 OA
BRANCH  32  33
ATOM     33  C   UNL     1       3.128   2.074  18.775  0.00  0.00    +0.000 C 
ATOM     34  F   UNL     1       3.935   0.996  18.607  0.00  0.00    +0.000 F 
ATOM     35  F   UNL     1       1.956   1.606  19.274  0.00  0.00    +0.000 F 
ENDBRANCH  32  33
ENDBRANCH  29  32
ENDBRANCH   4  26
BRANCH   1  36
ATOM     36  C   UNL     1       1.060  11.596  18.791  0.00  0.00    +0.000 C 
BRANCH  36  38
ATOM     37  N   UNL     1       1.864  12.740  20.988  0.00  0.00    +0.000 NA
ATOM     38  C   UNL     1       1.579  12.186  19.994  0.00  0.00    +0.000 C 
ENDBRANCH  36  38
ENDBRANCH   1  36
TORSDOF 8
ENDMDL
MODEL 3
REMARK VINA RESULT:      -8.2      0.793      1.067
REMARK  Name = 
REMARK  8 active torsions:
REMARK  status: ('A' for Active; 'I' for Inactive)
REMARK    1  A    between atoms: C_2  and  C_3
REMARK    2  A    between atoms: C_3  and  C_4
REMARK    3  A    between atoms: C_4  and  N_5
REMARK    4  A    between atoms: C_7  and  C_8
REMARK    5  A    between atoms: N_12  and  C_13
REMARK    6  A    between atoms: N_23  and  C_24
REMARK    7  A    between atoms: C_27  and  O_28
REMARK    8  A    between atoms: O_28  and  C_29
REMARK                            x       y       z     vdW  Elec       q    Type
REMARK                         _______ _______ _______ _____ _____    ______ ____
ROOT
ATOM      1  C   UNL     1      -0.052  10.509  18.810  0.00  0.00    +0.000 C 
ATOM      2  C   UNL     1      -0.317   9.476  19.948  0.00  0.00    +0.000 C 
ATOM      3  C   UNL     1       0.879   8.830  20.596  0.00  0.00    +0.000 C 
ATOM      4  N   UNL     1       1.803   8.366  19.572  0.00  0.00    +0.000 N 
ATOM      5  C   UNL     1       2.085   9.221  18.431  0.00  0.00    +0.000 C 
ATOM      6  C   UNL     1       0.743   9.668  17.760  0.00  0.00    +0.000 C 
ENDROOT
BRANCH   1   7
ATOM      7  N   UNL     1      -1.423  11.021  18.587  0.00  0.00    +0.000 N 
ATOM      8  C   UNL     1      -2.337  10.836  17.609  0.00  0.00    +0.000 A 
ATOM      9  C   UNL     1      -3.456  11.575  18.004  0.00  0.00    +0.000 A 
ATOM     10  C   UNL     1      -3.164  12.049  19.316  0.00  0.00    +0.000 A 
ATOM     11  N   UNL     1      -4.047  12.683  20.143  0.00  0.00    +0.000 N 
ATOM     12  N   UNL     1      -1.925  11.700  19.635  0.00  0.00    +0.000 NA
ATOM     13  H   UNL     1      -4.938  12.959  19.738  0.00  0.00    +0.000 HD
BRANCH  11  14
ATOM     14  C   UNL     1      -4.043  12.768  21.563  0.00  0.00    +0.000 A 
ATOM     15  C   UNL     1      -2.925  12.463  22.354  0.00  0.00    +0.000 A 
ATOM     16  C   UNL     1      -3.010  12.379  23.750  0.00  0.00    +0.000 A 
ATOM     17  C   UNL     1      -4.223  12.613  24.377  0.00  0.00    +0.000 A 
ATOM     18  F   UNL     1      -4.319  12.487  25.707  0.00  0.00    +0.000 F 
ATOM     19  C   UNL     1      -5.341  12.963  23.635  0.00  0.00    +0.000 A 
ATOM     20  C   UNL     1      -5.245  13.046  22.236  0.00  0.00    +0.000 A 
ENDBRANCH  11  14
BRANCH   9  21
ATOM     21  C   UNL     1      -4.675  11.777  17.258  0.00  0.00    +0.000 C 
ATOM     22  N   UNL     1      -4.755  11.080  16.086  0.00  0.00    +0.000 N 
ATOM     23  O   UNL     1      -5.592  12.489  17.645  0.00  0.00    +0.000 OA
ATOM     24  H   UNL     1      -4.165  10.276  15.931  0.00  0.00    +0.000 HD
ATOM     25  H   UNL     1      -5.632  11.132  15.591  0.00  0.00    +0.000 HD
ENDBRANCH   9  21
ENDBRANCH   1   7
BRANCH   4  26
ATOM     26  C   UNL     1       2.264   7.065  19.529  0.00  0.00    +0.000 A 
ATOM     27  C   UNL     1       1.925   6.156  20.530  0.00  0.00    +0.000 A 
ATOM     28  C   UNL     1       2.456   4.867  20.539  0.00  0.00    +0.000 A 
ATOM     29  C   UNL     1       3.348   4.511  19.540  0.00  0.00    +0.000 A 
ATOM     30  N   UNL     1       3.673   5.346  18.534  0.00  0.00    +0.000 NA
ATOM     31  C   UNL     1       3.117   6.582  18.541  0.00  0.00    +0.000 A 
BRANCH  29  32
ATOM     32  O   UNL     1       3.965   3.299  19.446  0.00  0.00    +0.000 OA
BRANCH  32  33
ATOM     33  C   UNL     1       3.451   2.474  18.428  0.00  0.00    +0.000 C 
ATOM     34  F   UNL     1       4.254   2.584  17.339  0.00  0.00    +0.000 F 
ATOM     35  F   UNL     1       3.548   1.188  18.851  0.00  0.00    +0.000 F 
ENDBRANCH  32  33
ENDBRANCH  29  32
ENDBRANCH   4  26
BRANCH   1  36
ATOM     36  C   UNL     1       0.790  11.826  18.829  0.00  0.00    +0.000 C 
BRANCH  36  38
ATOM     37  N   UNL     1       1.796  12.622  21.096  0.00  0.00    +0.000 NA
ATOM     38  C   UNL     1       1.273  12.310  20.093  0.00  0.00    +0.000 C 
ENDBRANCH  36  38
ENDBRANCH   1  36
TORSDOF 8
ENDMDL
MODEL 4
REMARK VINA RESULT:      -8.2      1.104      1.372
REMARK  Name = 
REMARK  8 active torsions:
REMARK  status: ('A' for Active; 'I' for Inactive)
REMARK    1  A    between atoms: C_2  and  C_3
REMARK    2  A    between atoms: C_3  and  C_4
REMARK    3  A    between atoms: C_4  and  N_5
REMARK    4  A    between atoms: C_7  and  C_8
REMARK    5  A    between atoms: N_12  and  C_13
REMARK    6  A    between atoms: N_23  and  C_24
REMARK    7  A    between atoms: C_27  and  O_28
REMARK    8  A    between atoms: O_28  and  C_29
REMARK                            x       y       z     vdW  Elec       q    Type
REMARK                         _______ _______ _______ _____ _____    ______ ____
ROOT
ATOM      1  C   UNL     1      -0.029  10.550  19.007  0.00  0.00    +0.000 C 
ATOM      2  C   UNL     1      -0.200   9.558  20.199  0.00  0.00    +0.000 C 
ATOM      3  C   UNL     1       1.036   8.870  20.716  0.00  0.00    +0.000 C 
ATOM      4  N   UNL     1       1.805   8.337  19.602  0.00  0.00    +0.000 N 
ATOM      5  C   UNL     1       1.985   9.150  18.410  0.00  0.00    +0.000 C 
ATOM      6  C   UNL     1       0.593   9.647  17.894  0.00  0.00    +0.000 C 
ENDROOT
BRANCH   1   7
ATOM      7  N   UNL     1      -1.392  11.124  18.937  0.00  0.00    +0.000 N 
ATOM      8  C   UNL     1      -2.464  10.877  18.153  0.00  0.00    +0.000 A 
ATOM      9  C   UNL     1      -3.465  11.737  18.615  0.00  0.00    +0.000 A 
ATOM     10  C   UNL     1      -2.936  12.356  19.784  0.00  0.00    +0.000 A 
ATOM     11  N   UNL     1      -3.636  13.152  20.644  0.00  0.00    +0.000 N 
ATOM     12  N   UNL     1      -1.679  11.965  19.946  0.00  0.00    +0.000 NA
ATOM     13  H   UNL     1      -4.568  13.435  20.352  0.00  0.00    +0.000 HD
BRANCH  11  14
ATOM     14  C   UNL     1      -3.390  13.420  22.020  0.00  0.00    +0.000 A 
ATOM     15  C   UNL     1      -3.990  12.703  23.067  0.00  0.00    +0.000 A 
ATOM     16  C   UNL     1      -3.871  13.111  24.402  0.00  0.00    +0.000 A 
ATOM     17  C   UNL     1      -3.135  14.243  24.709  0.00  0.00    +0.000 A 
ATOM     18  F   UNL     1      -3.059  14.664  25.979  0.00  0.00    +0.000 F 
ATOM     19  C   UNL     1      -2.489  14.954  23.708  0.00  0.00    +0.000 A 
ATOM     20  C   UNL     1      -2.613  14.536  22.372  0.00  0.00    +0.000 A 
ENDBRANCH  11  14
BRANCH   9  21
ATOM     21  C   UNL     1      -4.781  11.925  18.052  0.00  0.00    +0.000 C 
ATOM     22  N   UNL     1      -5.029  11.210  16.915  0.00  0.00    +0.000 N 
ATOM     23  O   UNL     1      -5.634  12.642  18.557  0.00  0.00    +0.000 OA
ATOM     24  H   UNL     1      -4.465  10.404  16.689  0.00  0.00    +0.000 HD
ATOM     25  H   UNL     1      -5.969  11.252  16.553  0.00  0.00    +0.000 HD
ENDBRANCH   9  21
ENDBRANCH   1   7
BRANCH   4  26
ATOM     26  C   UNL     1       2.198   7.015  19.542  0.00  0.00    +0.000 A 
ATOM     27  C   UNL     1       2.919   6.536  18.449  0.00  0.00    +0.000 A 
ATOM     28  C   UNL     1       3.244   5.184  18.340  0.00  0.00    +0.000 A 
ATOM     29  C   UNL     1       2.819   4.319  19.335  0.00  0.00    +0.000 A 
ATOM     30  N   UNL     1       2.153   4.746  20.426  0.00  0.00    +0.000 NA
ATOM     31  C   UNL     1       1.878   6.070  20.512  0.00  0.00    +0.000 A 
BRANCH  29  32
ATOM     32  O   UNL     1       3.039   2.974  19.339  0.00  0.00    +0.000 OA
BRANCH  32  33
ATOM     33  C   UNL     1       2.055   2.231  18.657  0.00  0.00    +0.000 C 
ATOM     34  F   UNL     1       1.042   3.069  18.318  0.00  0.00    +0.000 F 
ATOM     35  F   UNL     1       2.601   1.794  17.495  0.00  0.00    +0.000 F 
ENDBRANCH  32  33
ENDBRANCH  29  32
ENDBRANCH   4  26
BRANCH   1  36
ATOM     36  C   UNL     1       0.868  11.824  18.886  0.00  0.00    +0.000 C 
BRANCH  36  38
ATOM     37  N   UNL     1       1.979  12.898  20.983  0.00  0.00    +0.000 NA
ATOM     38  C   UNL     1       1.490  12.338  20.075  0.00  0.00    +0.000 C 
ENDBRANCH  36  38
ENDBRANCH   1  36
TORSDOF 8
ENDMDL
MODEL 5
REMARK VINA RESULT:      -8.1      1.130      1.443
REMARK  Name = 
REMARK  8 active torsions:
REMARK  status: ('A' for Active; 'I' for Inactive)
REMARK    1  A    between atoms: C_2  and  C_3
REMARK    2  A    between atoms: C_3  and  C_4
REMARK    3  A    between atoms: C_4  and  N_5
REMARK    4  A    between atoms: C_7  and  C_8
REMARK    5  A    between atoms: N_12  and  C_13
REMARK    6  A    between atoms: N_23  and  C_24
REMARK    7  A    between atoms: C_27  and  O_28
REMARK    8  A    between atoms: O_28  and  C_29
REMARK                            x       y       z     vdW  Elec       q    Type
REMARK                         _______ _______ _______ _____ _____    ______ ____
ROOT
ATOM      1  C   UNL     1      -0.006  10.406  18.913  0.00  0.00    +0.000 C 
ATOM      2  C   UNL     1      -0.232   9.393  20.078  0.00  0.00    +0.000 C 
ATOM      3  C   UNL     1       0.984   8.738  20.677  0.00  0.00    +0.000 C 
ATOM      4  N   UNL     1       1.850   8.245  19.618  0.00  0.00    +0.000 N 
ATOM      5  C   UNL     1       2.090   9.080  18.452  0.00  0.00    +0.000 C 
ATOM      6  C   UNL     1       0.725   9.539  17.839  0.00  0.00    +0.000 C 
ENDROOT
BRANCH   1   7
ATOM      7  N   UNL     1      -1.378  10.938  18.748  0.00  0.00    +0.000 N 
ATOM      8  C   UNL     1      -2.435  10.564  17.993  0.00  0.00    +0.000 A 
ATOM      9  C   UNL     1      -3.458  11.459  18.320  0.00  0.00    +0.000 A 
ATOM     10  C   UNL     1      -2.957  12.243  19.400  0.00  0.00    +0.000 A 
ATOM     11  N   UNL     1      -3.684  13.135  20.134  0.00  0.00    +0.000 N 
ATOM     12  N   UNL     1      -1.695  11.904  19.629  0.00  0.00    +0.000 NA
ATOM     13  H   UNL     1      -4.617  13.356  19.795  0.00  0.00    +0.000 HD
BRANCH  11  14
ATOM     14  C   UNL     1      -3.464  13.594  21.463  0.00  0.00    +0.000 A 
ATOM     15  C   UNL     1      -2.886  14.836  21.767  0.00  0.00    +0.000 A 
ATOM     16  C   UNL     1      -2.516  15.178  23.074  0.00  0.00    +0.000 A 
ATOM     17  C   UNL     1      -2.732  14.276  24.103  0.00  0.00    +0.000 A 
ATOM     18  F   UNL     1      -2.335  14.579  25.347  0.00  0.00    +0.000 F 
ATOM     19  C   UNL     1      -3.342  13.056  23.853  0.00  0.00    +0.000 A 
ATOM     20  C   UNL     1      -3.711  12.724  22.538  0.00  0.00    +0.000 A 
ENDBRANCH  11  14
BRANCH   9  21
ATOM     21  C   UNL     1      -4.768  11.542  17.721  0.00  0.00    +0.000 C 
ATOM     22  N   UNL     1      -4.816  11.221  16.394  0.00  0.00    +0.000 N 
ATOM     23  O   UNL     1      -5.777  11.844  18.344  0.00  0.00    +0.000 OA
ATOM     24  H   UNL     1      -4.074  10.681  15.975  0.00  0.00    +0.000 HD
ATOM     25  H   UNL     1      -5.732  11.182  15.973  0.00  0.00    +0.000 HD
ENDBRANCH   9  21
ENDBRANCH   1   7
BRANCH   4  26
ATOM     26  C   UNL     1       2.289   6.937  19.572  0.00  0.00    +0.000 A 
ATOM     27  C   UNL     1       1.842   6.003  20.505  0.00  0.00    +0.000 A 
ATOM     28  C   UNL     1       2.346   4.703  20.518  0.00  0.00    +0.000 A 
ATOM     29  C   UNL     1       3.320   4.361  19.593  0.00  0.00    +0.000 A 
ATOM     30  N   UNL     1       3.752   5.221  18.650  0.00  0.00    +0.000 NA
ATOM     31  C   UNL     1       3.221   6.468  18.650  0.00  0.00    +0.000 A 
BRANCH  29  32
ATOM     32  O   UNL     1       3.919   3.140  19.514  0.00  0.00    +0.000 OA
BRANCH  32  33
ATOM     33  C   UNL     1       3.075   2.117  19.040  0.00  0.00    +0.000 C 
ATOM     34  F   UNL     1       2.531   2.519  17.863  0.00  0.00    +0.000 F 
ATOM     35  F   UNL     1       3.849   1.039  18.760  0.00  0.00    +0.000 F 
ENDBRANCH  32  33
ENDBRANCH  29  32
ENDBRANCH   4  26
BRANCH   1  36
ATOM     36  C   UNL     1       0.855  11.711  18.874  0.00  0.00    +0.000 C 
BRANCH  36  38
ATOM     37  N   UNL     1       1.797  12.581  21.140  0.00  0.00    +0.000 NA
ATOM     38  C   UNL     1       1.323  12.259  20.117  0.00  0.00    +0.000 C 
ENDBRANCH  36  38
ENDBRANCH   1  36
TORSDOF 8
ENDMDL
MODEL 6
REMARK VINA RESULT:      -8.1      3.175      4.785
REMARK  Name = 
REMARK  8 active torsions:
REMARK  status: ('A' for Active; 'I' for Inactive)
REMARK    1  A    between atoms: C_2  and  C_3
REMARK    2  A    between atoms: C_3  and  C_4
REMARK    3  A    between atoms: C_4  and  N_5
REMARK    4  A    between atoms: C_7  and  C_8
REMARK    5  A    between atoms: N_12  and  C_13
REMARK    6  A    between atoms: N_23  and  C_24
REMARK    7  A    between atoms: C_27  and  O_28
REMARK    8  A    between atoms: O_28  and  C_29
REMARK                            x       y       z     vdW  Elec       q    Type
REMARK                         _______ _______ _______ _____ _____    ______ ____
ROOT
ATOM      1  C   UNL     1      -1.329  12.170  20.769  0.00  0.00    +0.000 C 
ATOM      2  C   UNL     1      -0.737  11.022  21.645  0.00  0.00    +0.000 C 
ATOM      3  C   UNL     1       0.681  10.597  21.371  0.00  0.00    +0.000 C 
ATOM      4  N   UNL     1       0.874  10.417  19.940  0.00  0.00    +0.000 N 
ATOM      5  C   UNL     1       0.317  11.395  19.021  0.00  0.00    +0.000 C 
ATOM      6  C   UNL     1      -1.206  11.597  19.321  0.00  0.00    +0.000 C 
ENDROOT
BRANCH   1   7
ATOM      7  N   UNL     1      -2.619  12.396  21.459  0.00  0.00    +0.000 N 
ATOM      8  C   UNL     1      -2.954  12.660  22.741  0.00  0.00    +0.000 A 
ATOM      9  C   UNL     1      -4.344  12.802  22.739  0.00  0.00    +0.000 A 
ATOM     10  C   UNL     1      -4.737  12.754  21.370  0.00  0.00    +0.000 A 
ATOM     11  N   UNL     1      -5.992  13.011  20.897  0.00  0.00    +0.000 N 
ATOM     12  N   UNL     1      -3.669  12.502  20.625  0.00  0.00    +0.000 NA
ATOM     13  H   UNL     1      -6.732  13.109  21.588  0.00  0.00    +0.000 HD
BRANCH  11  14
ATOM     14  C   UNL     1      -6.390  13.452  19.605  0.00  0.00    +0.000 A 
ATOM     15  C   UNL     1      -6.438  12.613  18.481  0.00  0.00    +0.000 A 
ATOM     16  C   UNL     1      -6.656  13.118  17.192  0.00  0.00    +0.000 A 
ATOM     17  C   UNL     1      -6.841  14.479  17.013  0.00  0.00    +0.000 A 
ATOM     18  F   UNL     1      -7.001  14.972  15.777  0.00  0.00    +0.000 F 
ATOM     19  C   UNL     1      -6.846  15.337  18.103  0.00  0.00    +0.000 A 
ATOM     20  C   UNL     1      -6.629  14.820  19.391  0.00  0.00    +0.000 A 
ENDBRANCH  11  14
BRANCH   9  21
ATOM     21  C   UNL     1      -5.202  13.004  23.883  0.00  0.00    +0.000 C 
ATOM     22  N   UNL     1      -5.036  12.100  24.893  0.00  0.00    +0.000 N 
ATOM     23  O   UNL     1      -6.000  13.927  23.972  0.00  0.00    +0.000 OA
ATOM     24  H   UNL     1      -4.188  11.557  24.955  0.00  0.00    +0.000 HD
ATOM     25  H   UNL     1      -5.557  12.272  25.740  0.00  0.00    +0.000 HD
ENDBRANCH   9  21
ENDBRANCH   1   7
BRANCH   4  26
ATOM     26  C   UNL     1       1.383   9.250  19.405  0.00  0.00    +0.000 A 
ATOM     27  C   UNL     1       1.667   8.157  20.223  0.00  0.00    +0.000 A 
ATOM     28  C   UNL     1       2.260   7.007  19.703  0.00  0.00    +0.000 A 
ATOM     29  C   UNL     1       2.584   6.980  18.355  0.00  0.00    +0.000 A 
ATOM     30  N   UNL     1       2.293   7.999  17.524  0.00  0.00    +0.000 NA
ATOM     31  C   UNL     1       1.691   9.090  18.057  0.00  0.00    +0.000 A 
BRANCH  29  32
ATOM     32  O   UNL     1       3.194   5.937  17.725  0.00  0.00    +0.000 OA
BRANCH  32  33
ATOM     33  C   UNL     1       2.533   4.704  17.890  0.00  0.00    +0.000 C 
ATOM     34  F   UNL     1       1.263   4.833  17.430  0.00  0.00    +0.000 F 
ATOM     35  F   UNL     1       3.146   3.798  17.087  0.00  0.00    +0.000 F 
ENDBRANCH  32  33
ENDBRANCH  29  32
ENDBRANCH   4  26
BRANCH   1  36
ATOM     36  C   UNL     1      -0.815  13.630  20.553  0.00  0.00    +0.000 C 
BRANCH  36  38
ATOM     37  N   UNL     1       0.956  14.454  22.276  0.00  0.00    +0.000 NA
ATOM     38  C   UNL     1       0.191  14.140  21.444  0.00  0.00    +0.000 C 
ENDBRANCH  36  38
ENDBRANCH   1  36
TORSDOF 8
ENDMDL
MODEL 7
REMARK VINA RESULT:      -7.9      3.127      4.532
REMARK  Name = 
REMARK  8 active torsions:
REMARK  status: ('A' for Active; 'I' for Inactive)
REMARK    1  A    between atoms: C_2  and  C_3
REMARK    2  A    between atoms: C_3  and  C_4
REMARK    3  A    between atoms: C_4  and  N_5
REMARK    4  A    between atoms: C_7  and  C_8
REMARK    5  A    between atoms: N_12  and  C_13
REMARK    6  A    between atoms: N_23  and  C_24
REMARK    7  A    between atoms: C_27  and  O_28
REMARK    8  A    between atoms: O_28  and  C_29
REMARK                            x       y       z     vdW  Elec       q    Type
REMARK                         _______ _______ _______ _____ _____    ______ ____
ROOT
ATOM      1  C   UNL     1      -1.366  11.914  19.994  0.00  0.00    +0.000 C 
ATOM      2  C   UNL     1      -0.411  11.315  21.073  0.00  0.00    +0.000 C 
ATOM      3  C   UNL     1       0.994  10.976  20.649  0.00  0.00    +0.000 C 
ATOM      4  N   UNL     1       0.966  10.235  19.398  0.00  0.00    +0.000 N 
ATOM      5  C   UNL     1       0.071  10.667  18.337  0.00  0.00    +0.000 C 
ATOM      6  C   UNL     1      -1.385  10.804  18.896  0.00  0.00    +0.000 C 
ENDROOT
BRANCH   1   7
ATOM      7  N   UNL     1      -2.535  12.263  20.834  0.00  0.00    +0.000 N 
ATOM      8  C   UNL     1      -2.694  12.494  22.156  0.00  0.00    +0.000 A 
ATOM      9  C   UNL     1      -4.045  12.812  22.316  0.00  0.00    +0.000 A 
ATOM     10  C   UNL     1      -4.583  12.892  20.999  0.00  0.00    +0.000 A 
ATOM     11  N   UNL     1      -5.836  13.333  20.681  0.00  0.00    +0.000 N 
ATOM     12  N   UNL     1      -3.644  12.550  20.128  0.00  0.00    +0.000 NA
ATOM     13  H   UNL     1      -6.480  13.485  21.455  0.00  0.00    +0.000 HD
BRANCH  11  14
ATOM     14  C   UNL     1      -6.307  13.895  19.462  0.00  0.00    +0.000 A 
ATOM     15  C   UNL     1      -6.589  13.133  18.317  0.00  0.00    +0.000 A 
ATOM     16  C   UNL     1      -6.873  13.734  17.083  0.00  0.00    +0.000 A 
ATOM     17  C   UNL     1      -6.889  15.115  16.983  0.00  0.00    +0.000 A 
ATOM     18  F   UNL     1      -7.112  15.694  15.795  0.00  0.00    +0.000 F 
ATOM     19  C   UNL     1      -6.660  15.904  18.101  0.00  0.00    +0.000 A 
ATOM     20  C   UNL     1      -6.379  15.292  19.334  0.00  0.00    +0.000 A 
ENDBRANCH  11  14
BRANCH   9  21
ATOM     21  C   UNL     1      -4.743  13.055  23.556  0.00  0.00    +0.000 C 
ATOM     22  N   UNL     1      -4.546  12.110  24.523  0.00  0.00    +0.000 N 
ATOM     23  O   UNL     1      -5.436  14.043  23.757  0.00  0.00    +0.000 OA
ATOM     24  H   UNL     1      -3.750  11.491  24.474  0.00  0.00    +0.000 HD
ATOM     25  H   UNL     1      -4.947  12.302  25.428  0.00  0.00    +0.000 HD
ENDBRANCH   9  21
ENDBRANCH   1   7
BRANCH   4  26
ATOM     26  C   UNL     1       1.598   9.017  19.248  0.00  0.00    +0.000 A 
ATOM     27  C   UNL     1       2.220   8.681  18.046  0.00  0.00    +0.000 A 
ATOM     28  C   UNL     1       2.786   7.421  17.858  0.00  0.00    +0.000 A 
ATOM     29  C   UNL     1       2.700   6.496  18.886  0.00  0.00    +0.000 A 
ATOM     30  N   UNL     1       2.142   6.792  20.076  0.00  0.00    +0.000 NA
ATOM     31  C   UNL     1       1.626   8.035  20.234  0.00  0.00    +0.000 A 
BRANCH  29  32
ATOM     32  O   UNL     1       3.180   5.222  18.826  0.00  0.00    +0.000 OA
BRANCH  32  33
ATOM     33  C   UNL     1       2.758   4.506  17.689  0.00  0.00    +0.000 C 
ATOM     34  F   UNL     1       3.183   3.222  17.807  0.00  0.00    +0.000 F 
ATOM     35  F   UNL     1       1.402   4.467  17.706  0.00  0.00    +0.000 F 
ENDBRANCH  32  33
ENDBRANCH  29  32
ENDBRANCH   4  26
BRANCH   1  36
ATOM     36  C   UNL     1      -1.203  13.196  19.114  0.00  0.00    +0.000 C 
BRANCH  36  38
ATOM     37  N   UNL     1       0.538  14.994  19.835  0.00  0.00    +0.000 NA
ATOM     38  C   UNL     1      -0.302  14.223  19.562  0.00  0.00    +0.000 C 
ENDBRANCH  36  38
ENDBRANCH   1  36
TORSDOF 8
ENDMDL
MODEL 8
REMARK VINA RESULT:      -7.9      3.186      4.781
REMARK  Name = 
REMARK  8 active torsions:
REMARK  status: ('A' for Active; 'I' for Inactive)
REMARK    1  A    between atoms: C_2  and  C_3
REMARK    2  A    between atoms: C_3  and  C_4
REMARK    3  A    between atoms: C_4  and  N_5
REMARK    4  A    between atoms: C_7  and  C_8
REMARK    5  A    between atoms: N_12  and  C_13
REMARK    6  A    between atoms: N_23  and  C_24
REMARK    7  A    between atoms: C_27  and  O_28
REMARK    8  A    between atoms: O_28  and  C_29
REMARK                            x       y       z     vdW  Elec       q    Type
REMARK                         _______ _______ _______ _____ _____    ______ ____
ROOT
ATOM      1  C   UNL     1      -1.269  12.243  20.822  0.00  0.00    +0.000 C 
ATOM      2  C   UNL     1      -0.767  11.043  21.684  0.00  0.00    +0.000 C 
ATOM      3  C   UNL     1       0.662  10.604  21.502  0.00  0.00    +0.000 C 
ATOM      4  N   UNL     1       0.966  10.488  20.084  0.00  0.00    +0.000 N 
ATOM      5  C   UNL     1       0.499  11.521  19.173  0.00  0.00    +0.000 C 
ATOM      6  C   UNL     1      -1.039  11.738  19.362  0.00  0.00    +0.000 C 
ENDROOT
BRANCH   1   7
ATOM      7  N   UNL     1      -2.607  12.461  21.418  0.00  0.00    +0.000 N 
ATOM      8  C   UNL     1      -3.036  12.690  22.678  0.00  0.00    +0.000 A 
ATOM      9  C   UNL     1      -4.422  12.846  22.574  0.00  0.00    +0.000 A 
ATOM     10  C   UNL     1      -4.708  12.842  21.178  0.00  0.00    +0.000 A 
ATOM     11  N   UNL     1      -5.921  13.125  20.619  0.00  0.00    +0.000 N 
ATOM     12  N   UNL     1      -3.589  12.603  20.509  0.00  0.00    +0.000 NA
ATOM     13  H   UNL     1      -6.712  13.210  21.253  0.00  0.00    +0.000 HD
BRANCH  11  14
ATOM     14  C   UNL     1      -6.216  13.609  19.314  0.00  0.00    +0.000 A 
ATOM     15  C   UNL     1      -6.501  14.955  19.033  0.00  0.00    +0.000 A 
ATOM     16  C   UNL     1      -6.967  15.364  17.776  0.00  0.00    +0.000 A 
ATOM     17  C   UNL     1      -7.143  14.424  16.774  0.00  0.00    +0.000 A 
ATOM     18  F   UNL     1      -7.634  14.803  15.586  0.00  0.00    +0.000 F 
ATOM     19  C   UNL     1      -6.830  13.092  16.996  0.00  0.00    +0.000 A 
ATOM     20  C   UNL     1      -6.361  12.692  18.259  0.00  0.00    +0.000 A 
ENDBRANCH  11  14
BRANCH   9  21
ATOM     21  C   UNL     1      -5.363  13.021  23.654  0.00  0.00    +0.000 C 
ATOM     22  N   UNL     1      -5.521  14.311  24.076  0.00  0.00    +0.000 N 
ATOM     23  O   UNL     1      -6.004  12.103  24.146  0.00  0.00    +0.000 OA
ATOM     24  H   UNL     1      -5.248  15.078  23.479  0.00  0.00    +0.000 HD
ATOM     25  H   UNL     1      -6.238  14.474  24.766  0.00  0.00    +0.000 HD
ENDBRANCH   9  21
ENDBRANCH   1   7
BRANCH   4  26
ATOM     26  C   UNL     1       1.498   9.339  19.534  0.00  0.00    +0.000 A 
ATOM     27  C   UNL     1       1.770   9.264  18.169  0.00  0.00    +0.000 A 
ATOM     28  C   UNL     1       2.226   8.079  17.593  0.00  0.00    +0.000 A 
ATOM     29  C   UNL     1       2.386   6.967  18.403  0.00  0.00    +0.000 A 
ATOM     30  N   UNL     1       2.170   7.007  19.733  0.00  0.00    +0.000 NA
ATOM     31  C   UNL     1       1.754   8.182  20.264  0.00  0.00    +0.000 A 
BRANCH  29  32
ATOM     32  O   UNL     1       2.792   5.741  17.967  0.00  0.00    +0.000 OA
BRANCH  32  33
ATOM     33  C   UNL     1       1.903   4.697  18.285  0.00  0.00    +0.000 C 
ATOM     34  F   UNL     1       1.015   4.563  17.266  0.00  0.00    +0.000 F 
ATOM     35  F   UNL     1       2.618   3.545  18.328  0.00  0.00    +0.000 F 
ENDBRANCH  32  33
ENDBRANCH  29  32
ENDBRANCH   4  26
BRANCH   1  36
ATOM     36  C   UNL     1      -0.716  13.702  20.719  0.00  0.00    +0.000 C 
BRANCH  36  38
ATOM     37  N   UNL     1       1.050  14.622  22.397  0.00  0.00    +0.000 NA
ATOM     38  C   UNL     1       0.254  14.134  21.687  0.00  0.00    +0.000 C 
ENDBRANCH  36  38
ENDBRANCH   1  36
TORSDOF 8
ENDMDL
MODEL 9
REMARK VINA RESULT:      -7.7      1.361      1.530
REMARK  Name = 
REMARK  8 active torsions:
REMARK  status: ('A' for Active; 'I' for Inactive)
REMARK    1  A    between atoms: C_2  and  C_3
REMARK    2  A    between atoms: C_3  and  C_4
REMARK    3  A    between atoms: C_4  and  N_5
REMARK    4  A    between atoms: C_7  and  C_8
REMARK    5  A    between atoms: N_12  and  C_13
REMARK    6  A    between atoms: N_23  and  C_24
REMARK    7  A    between atoms: C_27  and  O_28
REMARK    8  A    between atoms: O_28  and  C_29
REMARK                            x       y       z     vdW  Elec       q    Type
REMARK                         _______ _______ _______ _____ _____    ______ ____
ROOT
ATOM      1  C   UNL     1      -0.373  10.760  18.944  0.00  0.00    +0.000 C 
ATOM      2  C   UNL     1      -0.512   9.698  20.079  0.00  0.00    +0.000 C 
ATOM      3  C   UNL     1       0.755   9.105  20.637  0.00  0.00    +0.000 C 
ATOM      4  N   UNL     1       1.633   8.705  19.549  0.00  0.00    +0.000 N 
ATOM      5  C   UNL     1       1.798   9.591  18.408  0.00  0.00    +0.000 C 
ATOM      6  C   UNL     1       0.394   9.978  17.832  0.00  0.00    +0.000 C 
ENDROOT
BRANCH   1   7
ATOM      7  N   UNL     1      -1.780  11.204  18.819  0.00  0.00    +0.000 N 
ATOM      8  C   UNL     1      -2.822  10.788  18.065  0.00  0.00    +0.000 A 
ATOM      9  C   UNL     1      -3.896  11.600  18.439  0.00  0.00    +0.000 A 
ATOM     10  C   UNL     1      -3.431  12.376  19.540  0.00  0.00    +0.000 A 
ATOM     11  N   UNL     1      -4.203  13.191  20.316  0.00  0.00    +0.000 N 
ATOM     12  N   UNL     1      -2.146  12.115  19.739  0.00  0.00    +0.000 NA
ATOM     13  H   UNL     1      -5.155  13.362  19.999  0.00  0.00    +0.000 HD
BRANCH  11  14
ATOM     14  C   UNL     1      -3.992  13.617  21.658  0.00  0.00    +0.000 A 
ATOM     15  C   UNL     1      -3.291  14.784  21.998  0.00  0.00    +0.000 A 
ATOM     16  C   UNL     1      -2.943  15.075  23.324  0.00  0.00    +0.000 A 
ATOM     17  C   UNL     1      -3.306  14.200  24.334  0.00  0.00    +0.000 A 
ATOM     18  F   UNL     1      -2.934  14.450  25.597  0.00  0.00    +0.000 F 
ATOM     19  C   UNL     1      -4.040  13.059  24.045  0.00  0.00    +0.000 A 
ATOM     20  C   UNL     1      -4.385  12.777  22.713  0.00  0.00    +0.000 A 
ENDBRANCH  11  14
BRANCH   9  21
ATOM     21  C   UNL     1      -5.220  11.616  17.862  0.00  0.00    +0.000 C 
ATOM     22  N   UNL     1      -6.134  10.824  18.495  0.00  0.00    +0.000 N 
ATOM     23  O   UNL     1      -5.526  12.306  16.899  0.00  0.00    +0.000 OA
ATOM     24  H   UNL     1      -5.972  10.520  19.444  0.00  0.00    +0.000 HD
ATOM     25  H   UNL     1      -7.086  10.887  18.169  0.00  0.00    +0.000 HD
ENDBRANCH   9  21
ENDBRANCH   1   7
BRANCH   4  26
ATOM     26  C   UNL     1       2.157   7.431  19.453  0.00  0.00    +0.000 A 
ATOM     27  C   UNL     1       2.871   7.039  18.321  0.00  0.00    +0.000 A 
ATOM     28  C   UNL     1       3.329   5.729  18.180  0.00  0.00    +0.000 A 
ATOM     29  C   UNL     1       3.041   4.816  19.182  0.00  0.00    +0.000 A 
ATOM     30  N   UNL     1       2.388   5.162  20.308  0.00  0.00    +0.000 NA
ATOM     31  C   UNL     1       1.981   6.450  20.424  0.00  0.00    +0.000 A 
BRANCH  29  32
ATOM     32  O   UNL     1       3.399   3.501  19.158  0.00  0.00    +0.000 OA
BRANCH  32  33
ATOM     33  C   UNL     1       3.014   2.782  20.306  0.00  0.00    +0.000 C 
ATOM     34  F   UNL     1       2.060   1.884  19.951  0.00  0.00    +0.000 F 
ATOM     35  F   UNL     1       4.087   2.064  20.722  0.00  0.00    +0.000 F 
ENDBRANCH  32  33
ENDBRANCH  29  32
ENDBRANCH   4  26
BRANCH   1  36
ATOM     36  C   UNL     1       0.399  12.119  18.935  0.00  0.00    +0.000 C 
BRANCH  36  38
ATOM     37  N   UNL     1       1.604  12.735  21.160  0.00  0.00    +0.000 NA
ATOM     38  C   UNL     1       1.122  12.503  20.116  0.00  0.00    +0.000 C 
ENDBRANCH  36  38
ENDBRANCH   1  36
TORSDOF 8
ENDMDL
