MODEL 1
REMARK VINA RESULT:      -7.1      0.000      0.000
REMARK  Name = 
REMARK  3 active torsions:
REMARK  status: ('A' for Active; 'I' for Inactive)
REMARK    1  A    between atoms: N_6  and  C_7
REMARK    2  A    between atoms: C_11  and  C_12
REMARK    3  A    between atoms: C_12  and  O_13
REMARK                            x       y       z     vdW  Elec       q    Type
REMARK                         _______ _______ _______ _____ _____    ______ ____
ROOT
ATOM      1  O   UNL     1       7.522   4.855  14.059  0.00  0.00    +0.000 OA
ATOM      2  C   UNL     1       7.032   4.834  15.181  0.00  0.00    +0.000 A 
ATOM      3  N   UNL     1       7.793   4.772  16.314  0.00  0.00    +0.000 N 
ATOM      4  C   UNL     1       7.328   4.650  17.600  0.00  0.00    +0.000 A 
ATOM      5  O   UNL     1       8.114   4.339  18.486  0.00  0.00    +0.000 OA
ATOM      6  N   UNL     1       5.967   4.892  17.775  0.00  0.00    +0.000 N 
ATOM      7  C   UNL     1       5.119   4.862  16.671  0.00  0.00    +0.000 A 
ATOM      8  C   UNL     1       5.578   4.836  15.421  0.00  0.00    +0.000 A 
ATOM      9  F   UNL     1       4.766   4.810  14.352  0.00  0.00    +0.000 F 
ATOM     10  H   UNL     1       8.789   4.675  16.187  0.00  0.00    +0.000 HD
ENDROOT
BRANCH   6  11
ATOM     11  C   UNL     1       5.370   4.915  19.124  0.00  0.00    +0.000 C 
ATOM     12  C   UNL     1       3.915   5.358  19.271  0.00  0.00    +0.000 C 
ATOM     13  C   UNL     1       3.092   4.094  19.449  0.00  0.00    +0.000 C 
ATOM     14  I   UNL     1       1.448   4.010  18.112  0.00  0.00    +0.000 I 
ATOM     15  C   UNL     1       4.104   2.952  19.413  0.00  0.00    +0.000 C 
ATOM     16  O   UNL     1       5.396   3.571  19.655  0.00  0.00    +0.000 OA
BRANCH  15  17
ATOM     17  C   UNL     1       4.197   2.096  18.140  0.00  0.00    +0.000 C 
BRANCH  17  18
ATOM     18  O   UNL     1       4.295   0.712  18.480  0.00  0.00    +0.000 OA
ATOM     19  H   UNL     1       3.405   0.424  18.749  0.00  0.00    +0.000 HD
ENDBRANCH  17  18
ENDBRANCH  15  17
ENDBRANCH   6  11
TORSDOF 3
ENDMDL
MODEL 2
REMARK VINA RESULT:      -6.7      1.287      1.439
REMARK  Name = 
REMARK  3 active torsions:
REMARK  status: ('A' for Active; 'I' for Inactive)
REMARK    1  A    between atoms: N_6  and  C_7
REMARK    2  A    between atoms: C_11  and  C_12
REMARK    3  A    between atoms: C_12  and  O_13
REMARK                            x       y       z     vdW  Elec       q    Type
REMARK                         _______ _______ _______ _____ _____    ______ ____
ROOT
ATOM      1  O   UNL     1       7.699   5.077  14.072  0.00  0.00    +0.000 OA
ATOM      2  C   UNL     1       7.000   5.342  15.041  0.00  0.00    +0.000 A 
ATOM      3  N   UNL     1       7.482   6.003  16.136  0.00  0.00    +0.000 N 
ATOM      4  C   UNL     1       6.798   6.256  17.300  0.00  0.00    +0.000 A 
ATOM      5  O   UNL     1       7.426   6.615  18.288  0.00  0.00    +0.000 OA
ATOM      6  N   UNL     1       5.419   6.068  17.242  0.00  0.00    +0.000 N 
ATOM      7  C   UNL     1       4.874   5.311  16.208  0.00  0.00    +0.000 A 
ATOM      8  C   UNL     1       5.584   4.944  15.142  0.00  0.00    +0.000 A 
ATOM      9  F   UNL     1       5.065   4.217  14.141  0.00  0.00    +0.000 F 
ATOM     10  H   UNL     1       8.469   6.209  16.144  0.00  0.00    +0.000 HD
ENDROOT
BRANCH   6  11
ATOM     11  C   UNL     1       4.559   6.424  18.386  0.00  0.00    +0.000 C 
ATOM     12  C   UNL     1       3.054   6.182  18.271  0.00  0.00    +0.000 C 
ATOM     13  C   UNL     1       2.757   4.916  19.056  0.00  0.00    +0.000 C 
ATOM     14  I   UNL     1       1.634   3.515  17.927  0.00  0.00    +0.000 I 
ATOM     15  C   UNL     1       4.104   4.470  19.616  0.00  0.00    +0.000 C 
ATOM     16  O   UNL     1       4.968   5.635  19.525  0.00  0.00    +0.000 OA
BRANCH  15  17
ATOM     17  C   UNL     1       4.813   3.277  18.953  0.00  0.00    +0.000 C 
BRANCH  17  18
ATOM     18  O   UNL     1       5.092   2.266  19.924  0.00  0.00    +0.000 OA
ATOM     19  H   UNL     1       4.918   1.410  19.496  0.00  0.00    +0.000 HD
ENDBRANCH  17  18
ENDBRANCH  15  17
ENDBRANCH   6  11
TORSDOF 3
ENDMDL
MODEL 3
REMARK VINA RESULT:      -6.6      2.184      3.334
REMARK  Name = 
REMARK  3 active torsions:
REMARK  status: ('A' for Active; 'I' for Inactive)
REMARK    1  A    between atoms: N_6  and  C_7
REMARK    2  A    between atoms: C_11  and  C_12
REMARK    3  A    between atoms: C_12  and  O_13
REMARK                            x       y       z     vdW  Elec       q    Type
REMARK                         _______ _______ _______ _____ _____    ______ ____
ROOT
ATOM      1  O   UNL     1       7.729   5.578  18.013  0.00  0.00    +0.000 OA
ATOM      2  C   UNL     1       6.718   4.899  17.887  0.00  0.00    +0.000 A 
ATOM      3  N   UNL     1       6.169   4.198  18.923  0.00  0.00    +0.000 N 
ATOM      4  C   UNL     1       5.098   3.342  18.848  0.00  0.00    +0.000 A 
ATOM      5  O   UNL     1       4.881   2.583  19.784  0.00  0.00    +0.000 OA
ATOM      6  N   UNL     1       4.346   3.416  17.678  0.00  0.00    +0.000 N 
ATOM      7  C   UNL     1       4.891   4.025  16.551  0.00  0.00    +0.000 A 
ATOM      8  C   UNL     1       6.014   4.741  16.601  0.00  0.00    +0.000 A 
ATOM      9  F   UNL     1       6.545   5.333  15.519  0.00  0.00    +0.000 F 
ATOM     10  H   UNL     1       6.675   4.206  19.795  0.00  0.00    +0.000 HD
ENDROOT
BRANCH   6  11
ATOM     11  C   UNL     1       3.101   2.640  17.528  0.00  0.00    +0.000 C 
ATOM     12  C   UNL     1       2.595   1.831  18.721  0.00  0.00    +0.000 C 
ATOM     13  C   UNL     1       1.459   2.629  19.337  0.00  0.00    +0.000 C 
ATOM     14  I   UNL     1       1.702   2.893  21.427  0.00  0.00    +0.000 I 
ATOM     15  C   UNL     1       1.332   3.876  18.467  0.00  0.00    +0.000 C 
ATOM     16  O   UNL     1       2.026   3.559  17.230  0.00  0.00    +0.000 OA
BRANCH  15  17
ATOM     17  C   UNL     1       1.876   5.207  19.011  0.00  0.00    +0.000 C 
BRANCH  17  18
ATOM     18  O   UNL     1       2.249   6.066  17.932  0.00  0.00    +0.000 OA
ATOM     19  H   UNL     1       2.880   6.714  18.294  0.00  0.00    +0.000 HD
ENDBRANCH  17  18
ENDBRANCH  15  17
ENDBRANCH   6  11
TORSDOF 3
ENDMDL
MODEL 4
REMARK VINA RESULT:      -6.5      3.465      5.288
REMARK  Name = 
REMARK  3 active torsions:
REMARK  status: ('A' for Active; 'I' for Inactive)
REMARK    1  A    between atoms: N_6  and  C_7
REMARK    2  A    between atoms: C_11  and  C_12
REMARK    3  A    between atoms: C_12  and  O_13
REMARK                            x       y       z     vdW  Elec       q    Type
REMARK                         _______ _______ _______ _____ _____    ______ ____
ROOT
ATOM      1  O   UNL     1       1.363   9.056  20.292  0.00  0.00    +0.000 OA
ATOM      2  C   UNL     1       1.744   7.954  19.920  0.00  0.00    +0.000 A 
ATOM      3  N   UNL     1       1.673   6.844  20.714  0.00  0.00    +0.000 N 
ATOM      4  C   UNL     1       2.162   5.597  20.414  0.00  0.00    +0.000 A 
ATOM      5  O   UNL     1       2.270   4.772  21.312  0.00  0.00    +0.000 OA
ATOM      6  N   UNL     1       2.504   5.387  19.080  0.00  0.00    +0.000 N 
ATOM      7  C   UNL     1       2.697   6.483  18.243  0.00  0.00    +0.000 A 
ATOM      8  C   UNL     1       2.350   7.720  18.596  0.00  0.00    +0.000 A 
ATOM      9  F   UNL     1       2.531   8.781  17.793  0.00  0.00    +0.000 F 
ATOM     10  H   UNL     1       1.351   6.983  21.660  0.00  0.00    +0.000 HD
ENDROOT
BRANCH   6  11
ATOM     11  C   UNL     1       2.923   4.055  18.606  0.00  0.00    +0.000 C 
ATOM     12  C   UNL     1       3.384   3.906  17.157  0.00  0.00    +0.000 C 
ATOM     13  C   UNL     1       4.901   3.845  17.188  0.00  0.00    +0.000 C 
ATOM     14  I   UNL     1       5.789   5.221  15.840  0.00  0.00    +0.000 I 
ATOM     15  C   UNL     1       5.273   3.946  18.664  0.00  0.00    +0.000 C 
ATOM     16  O   UNL     1       4.057   3.628  19.394  0.00  0.00    +0.000 OA
BRANCH  15  17
ATOM     17  C   UNL     1       5.830   5.279  19.189  0.00  0.00    +0.000 C 
BRANCH  17  18
ATOM     18  O   UNL     1       7.203   5.131  19.557  0.00  0.00    +0.000 OA
ATOM     19  H   UNL     1       7.577   4.446  18.976  0.00  0.00    +0.000 HD
ENDBRANCH  17  18
ENDBRANCH  15  17
ENDBRANCH   6  11
TORSDOF 3
ENDMDL
MODEL 5
REMARK VINA RESULT:      -6.4      2.269      2.982
REMARK  Name = 
REMARK  3 active torsions:
REMARK  status: ('A' for Active; 'I' for Inactive)
REMARK    1  A    between atoms: N_6  and  C_7
REMARK    2  A    between atoms: C_11  and  C_12
REMARK    3  A    between atoms: C_12  and  O_13
REMARK                            x       y       z     vdW  Elec       q    Type
REMARK                         _______ _______ _______ _____ _____    ______ ____
ROOT
ATOM      1  O   UNL     1       6.283   7.340  16.916  0.00  0.00    +0.000 OA
ATOM      2  C   UNL     1       5.806   6.228  17.102  0.00  0.00    +0.000 A 
ATOM      3  N   UNL     1       5.800   5.625  18.328  0.00  0.00    +0.000 N 
ATOM      4  C   UNL     1       5.374   4.350  18.605  0.00  0.00    +0.000 A 
ATOM      5  O   UNL     1       5.670   3.848  19.682  0.00  0.00    +0.000 OA
ATOM      6  N   UNL     1       4.632   3.730  17.602  0.00  0.00    +0.000 N 
ATOM      7  C   UNL     1       4.680   4.233  16.304  0.00  0.00    +0.000 A 
ATOM      8  C   UNL     1       5.225   5.414  16.018  0.00  0.00    +0.000 A 
ATOM      9  F   UNL     1       5.273   5.906  14.770  0.00  0.00    +0.000 F 
ATOM     10  H   UNL     1       6.272   6.111  19.075  0.00  0.00    +0.000 HD
ENDROOT
BRANCH   6  11
ATOM     11  C   UNL     1       4.012   2.410  17.825  0.00  0.00    +0.000 C 
ATOM     12  C   UNL     1       3.793   1.939  19.261  0.00  0.00    +0.000 C 
ATOM     13  C   UNL     1       2.320   2.150  19.568  0.00  0.00    +0.000 C 
ATOM     14  I   UNL     1       2.019   3.219  21.374  0.00  0.00    +0.000 I 
ATOM     15  C   UNL     1       1.726   2.726  18.286  0.00  0.00    +0.000 C 
ATOM     16  O   UNL     1       2.690   2.425  17.241  0.00  0.00    +0.000 OA
BRANCH  15  17
ATOM     17  C   UNL     1       1.403   4.229  18.240  0.00  0.00    +0.000 C 
BRANCH  17  18
ATOM     18  O   UNL     1       0.830   4.573  16.977  0.00  0.00    +0.000 OA
ATOM     19  H   UNL     1       0.957   3.806  16.392  0.00  0.00    +0.000 HD
ENDBRANCH  17  18
ENDBRANCH  15  17
ENDBRANCH   6  11
TORSDOF 3
ENDMDL
MODEL 6
REMARK VINA RESULT:      -6.3      1.378      1.477
REMARK  Name = 
REMARK  3 active torsions:
REMARK  status: ('A' for Active; 'I' for Inactive)
REMARK    1  A    between atoms: N_6  and  C_7
REMARK    2  A    between atoms: C_11  and  C_12
REMARK    3  A    between atoms: C_12  and  O_13
REMARK                            x       y       z     vdW  Elec       q    Type
REMARK                         _______ _______ _______ _____ _____    ______ ____
ROOT
ATOM      1  O   UNL     1       7.641   4.742  15.346  0.00  0.00    +0.000 OA
ATOM      2  C   UNL     1       6.810   4.894  16.232  0.00  0.00    +0.000 A 
ATOM      3  N   UNL     1       7.154   5.215  17.515  0.00  0.00    +0.000 N 
ATOM      4  C   UNL     1       6.300   5.311  18.586  0.00  0.00    +0.000 A 
ATOM      5  O   UNL     1       6.770   5.341  19.716  0.00  0.00    +0.000 OA
ATOM      6  N   UNL     1       4.943   5.357  18.274  0.00  0.00    +0.000 N 
ATOM      7  C   UNL     1       4.515   4.940  17.016  0.00  0.00    +0.000 A 
ATOM      8  C   UNL     1       5.364   4.710  16.015  0.00  0.00    +0.000 A 
ATOM      9  F   UNL     1       4.958   4.310  14.799  0.00  0.00    +0.000 F 
ATOM     10  H   UNL     1       8.140   5.258  17.723  0.00  0.00    +0.000 HD
ENDROOT
BRANCH   6  11
ATOM     11  C   UNL     1       3.933   5.584  19.324  0.00  0.00    +0.000 C 
ATOM     12  C   UNL     1       2.473   5.251  19.017  0.00  0.00    +0.000 C 
ATOM     13  C   UNL     1       2.179   3.922  19.690  0.00  0.00    +0.000 C 
ATOM     14  I   UNL     1       1.299   2.524  18.360  0.00  0.00    +0.000 I 
ATOM     15  C   UNL     1       3.482   3.530  20.382  0.00  0.00    +0.000 C 
ATOM     16  O   UNL     1       4.263   4.753  20.460  0.00  0.00    +0.000 OA
BRANCH  15  17
ATOM     17  C   UNL     1       4.347   2.431  19.745  0.00  0.00    +0.000 C 
BRANCH  17  18
ATOM     18  O   UNL     1       5.104   1.752  20.750  0.00  0.00    +0.000 OA
ATOM     19  H   UNL     1       4.782   0.834  20.772  0.00  0.00    +0.000 HD
ENDBRANCH  17  18
ENDBRANCH  15  17
ENDBRANCH   6  11
TORSDOF 3
ENDMDL
MODEL 7
REMARK VINA RESULT:      -6.3      2.310      3.457
REMARK  Name = 
REMARK  3 active torsions:
REMARK  status: ('A' for Active; 'I' for Inactive)
REMARK    1  A    between atoms: N_6  and  C_7
REMARK    2  A    between atoms: C_11  and  C_12
REMARK    3  A    between atoms: C_12  and  O_13
REMARK                            x       y       z     vdW  Elec       q    Type
REMARK                         _______ _______ _______ _____ _____    ______ ____
ROOT
ATOM      1  O   UNL     1       7.946   4.844  17.748  0.00  0.00    +0.000 OA
ATOM      2  C   UNL     1       6.757   4.566  17.662  0.00  0.00    +0.000 A 
ATOM      3  N   UNL     1       6.112   3.798  18.591  0.00  0.00    +0.000 N 
ATOM      4  C   UNL     1       4.812   3.362  18.524  0.00  0.00    +0.000 A 
ATOM      5  O   UNL     1       4.448   2.470  19.280  0.00  0.00    +0.000 OA
ATOM      6  N   UNL     1       4.013   3.988  17.570  0.00  0.00    +0.000 N 
ATOM      7  C   UNL     1       4.614   4.698  16.534  0.00  0.00    +0.000 A 
ATOM      8  C   UNL     1       5.912   4.998  16.534  0.00  0.00    +0.000 A 
ATOM      9  F   UNL     1       6.497   5.685  15.540  0.00  0.00    +0.000 F 
ATOM     10  H   UNL     1       6.678   3.406  19.327  0.00  0.00    +0.000 HD
ENDROOT
BRANCH   6  11
ATOM     11  C   UNL     1       2.570   3.698  17.483  0.00  0.00    +0.000 C 
ATOM     12  C   UNL     1       1.967   2.690  18.459  0.00  0.00    +0.000 C 
ATOM     13  C   UNL     1       1.253   3.496  19.531  0.00  0.00    +0.000 C 
ATOM     14  I   UNL     1       1.822   2.913  21.489  0.00  0.00    +0.000 I 
ATOM     15  C   UNL     1       1.455   4.955  19.130  0.00  0.00    +0.000 C 
ATOM     16  O   UNL     1       1.845   4.923  17.731  0.00  0.00    +0.000 OA
BRANCH  15  17
ATOM     17  C   UNL     1       2.481   5.793  19.910  0.00  0.00    +0.000 C 
BRANCH  17  18
ATOM     18  O   UNL     1       1.814   6.672  20.818  0.00  0.00    +0.000 OA
ATOM     19  H   UNL     1       2.487   6.993  21.444  0.00  0.00    +0.000 HD
ENDBRANCH  17  18
ENDBRANCH  15  17
ENDBRANCH   6  11
TORSDOF 3
ENDMDL
MODEL 8
REMARK VINA RESULT:      -6.3      2.559      3.649
REMARK  Name = 
REMARK  3 active torsions:
REMARK  status: ('A' for Active; 'I' for Inactive)
REMARK    1  A    between atoms: N_6  and  C_7
REMARK    2  A    between atoms: C_11  and  C_12
REMARK    3  A    between atoms: C_12  and  O_13
REMARK                            x       y       z     vdW  Elec       q    Type
REMARK                         _______ _______ _______ _____ _____    ______ ____
ROOT
ATOM      1  O   UNL     1       8.056   6.291  19.087  0.00  0.00    +0.000 OA
ATOM      2  C   UNL     1       6.989   5.808  18.731  0.00  0.00    +0.000 A 
ATOM      3  N   UNL     1       6.439   4.712  19.335  0.00  0.00    +0.000 N 
ATOM      4  C   UNL     1       5.302   4.052  18.942  0.00  0.00    +0.000 A 
ATOM      5  O   UNL     1       5.073   2.942  19.403  0.00  0.00    +0.000 OA
ATOM      6  N   UNL     1       4.500   4.726  18.023  0.00  0.00    +0.000 N 
ATOM      7  C   UNL     1       5.034   5.786  17.295  0.00  0.00    +0.000 A 
ATOM      8  C   UNL     1       6.211   6.334  17.594  0.00  0.00    +0.000 A 
ATOM      9  F   UNL     1       6.731   7.357  16.898  0.00  0.00    +0.000 F 
ATOM     10  H   UNL     1       6.988   4.269  20.055  0.00  0.00    +0.000 HD
ENDROOT
BRANCH   6  11
ATOM     11  C   UNL     1       3.191   4.180  17.617  0.00  0.00    +0.000 C 
ATOM     12  C   UNL     1       2.625   2.988  18.389  0.00  0.00    +0.000 C 
ATOM     13  C   UNL     1       1.567   3.541  19.327  0.00  0.00    +0.000 C 
ATOM     14  I   UNL     1       1.846   2.892  21.327  0.00  0.00    +0.000 I 
ATOM     15  C   UNL     1       1.542   5.043  19.058  0.00  0.00    +0.000 C 
ATOM     16  O   UNL     1       2.198   5.218  17.773  0.00  0.00    +0.000 OA
BRANCH  15  17
ATOM     17  C   UNL     1       2.203   5.981  20.081  0.00  0.00    +0.000 C 
BRANCH  17  18
ATOM     18  O   UNL     1       2.382   7.282  19.517  0.00  0.00    +0.000 OA
ATOM     19  H   UNL     1       2.300   7.183  18.552  0.00  0.00    +0.000 HD
ENDBRANCH  17  18
ENDBRANCH  15  17
ENDBRANCH   6  11
TORSDOF 3
ENDMDL
MODEL 9
REMARK VINA RESULT:      -6.2      1.804      2.208
REMARK  Name = 
REMARK  3 active torsions:
REMARK  status: ('A' for Active; 'I' for Inactive)
REMARK    1  A    between atoms: N_6  and  C_7
REMARK    2  A    between atoms: C_11  and  C_12
REMARK    3  A    between atoms: C_12  and  O_13
REMARK                            x       y       z     vdW  Elec       q    Type
REMARK                         _______ _______ _______ _____ _____    ______ ____
ROOT
ATOM      1  O   UNL     1       6.152   5.735  14.632  0.00  0.00    +0.000 OA
ATOM      2  C   UNL     1       5.828   5.506  15.790  0.00  0.00    +0.000 A 
ATOM      3  N   UNL     1       4.693   6.021  16.351  0.00  0.00    +0.000 N 
ATOM      4  C   UNL     1       4.304   5.893  17.662  0.00  0.00    +0.000 A 
ATOM      5  O   UNL     1       3.416   6.619  18.088  0.00  0.00    +0.000 OA
ATOM      6  N   UNL     1       4.984   4.929  18.402  0.00  0.00    +0.000 N 
ATOM      7  C   UNL     1       6.203   4.441  17.937  0.00  0.00    +0.000 A 
ATOM      8  C   UNL     1       6.644   4.687  16.704  0.00  0.00    +0.000 A 
ATOM      9  F   UNL     1       7.817   4.219  16.248  0.00  0.00    +0.000 F 
ATOM     10  H   UNL     1       4.157   6.661  15.786  0.00  0.00    +0.000 HD
ENDROOT
BRANCH   6  11
ATOM     11  C   UNL     1       4.577   4.609  19.784  0.00  0.00    +0.000 C 
ATOM     12  C   UNL     1       3.099   4.715  20.153  0.00  0.00    +0.000 C 
ATOM     13  C   UNL     1       2.553   3.297  20.173  0.00  0.00    +0.000 C 
ATOM     14  I   UNL     1       0.790   3.097  19.011  0.00  0.00    +0.000 I 
ATOM     15  C   UNL     1       3.744   2.408  19.826  0.00  0.00    +0.000 C 
ATOM     16  O   UNL     1       4.921   3.231  20.050  0.00  0.00    +0.000 OA
BRANCH  15  17
ATOM     17  C   UNL     1       3.823   1.809  18.413  0.00  0.00    +0.000 C 
BRANCH  17  18
ATOM     18  O   UNL     1       4.405   0.505  18.461  0.00  0.00    +0.000 OA
ATOM     19  H   UNL     1       3.797  -0.056  18.973  0.00  0.00    +0.000 HD
ENDBRANCH  17  18
ENDBRANCH  15  17
ENDBRANCH   6  11
TORSDOF 3
ENDMDL
